@<TRIPOS>MOLECULE
tmp/5lhgA01.pdb
 234 224 0 0 0
SMALL
GASTEIGER

@<TRIPOS>ATOM
      1  N         11.6740  -59.2520  -35.8800 N.3   162  MET162     -0.1230
      2  CA        12.6940  -58.5270  -36.6340 C.3   162  MET162      0.1702
      3  C         13.0290  -57.1450  -36.0870 C.2   162  MET162      0.2592
      4  O         14.1780  -56.7160  -36.2340 O.2   162  MET162     -0.2718
      5  CB        12.2580  -58.3900  -38.1010 C.3   162  MET162      0.0401
      6  CG        13.3220  -57.8480  -39.0420 C.3   162  MET162      0.0596
      7  SD        12.8060  -57.9330  -40.7690 S.3   162  MET162     -0.1393
      8  CE        11.3070  -56.9530  -40.7300 C.3   162  MET162      0.0692
      9  N         12.0960  -56.4370  -35.4550 N.am  163  VAL163     -0.1980
     10  CA        12.2810  -55.0410  -35.0730 C.3   163  VAL163      0.1595
     11  C         12.3040  -54.9310  -33.5550 C.2   163  VAL163      0.2287
     12  O         11.4620  -55.5220  -32.8680 O.2   163  VAL163     -0.2864
     13  CB        11.1770  -54.1490  -35.6660 C.3   163  VAL163      0.0276
     14  CG1       11.3430  -52.7130  -35.1990 C.3   163  VAL163      0.0022
     15  CG2       11.2020  -54.2250  -37.1800 C.3   163  VAL163      0.0022
     16  N         11.5240  -52.3020  -30.8510 N.3   165  THR165     -0.1218
     17  CA        10.6960  -51.0960  -30.8690 C.3   165  THR165      0.1862
     18  C         11.2000  -50.0510  -29.8690 C.2   165  THR165      0.2287
     19  O         10.4980  -49.6260  -28.9520 O.2   165  THR165     -0.2866
     20  CB         9.2410  -51.4590  -30.6000 C.3   165  THR165      0.1770
     21  OG1        9.1250  -52.0690  -29.3090 O.3   165  THR165     -0.2211
     22  CG2        8.7330  -52.4140  -31.6600 C.3   165  THR165      0.0375
     23  N         16.7590  -47.8930  -38.7980 N.3   186  ILE186     -0.1231
     24  CA        15.9140  -48.0380  -39.9780 C.3   186  ILE186      0.1692
     25  C         15.6580  -46.6540  -40.5550 C.2   186  ILE186      0.2592
     26  O         15.0260  -45.8120  -39.9040 O.2   186  ILE186     -0.2718
     27  CB        14.5880  -48.7400  -39.6470 C.3   186  ILE186      0.0266
     28  CG1       14.8430  -50.1020  -39.0000 C.3   186  ILE186      0.0019
     29  CG2       13.7340  -48.8860  -40.8980 C.3   186  ILE186      0.0020
     30  CD1       13.5890  -50.7620  -38.4700 C.3   186  ILE186      0.0001
     31  N         16.1410  -46.4180  -41.7740 N.am  187  LYS187     -0.1966
     32  CA        15.8420  -45.1730  -42.4710 C.3   187  LYS187      0.1728
     33  C         14.3650  -45.1450  -42.8430 C.2   187  LYS187      0.2616
     34  O         13.8990  -45.9800  -43.6260 O.2   187  LYS187     -0.2715
     35  CB        16.7150  -45.0340  -43.7160 C.3   187  LYS187      0.0311
     36  CG        18.2110  -45.0250  -43.4380 C.3   187  LYS187      0.0038
     37  CD        19.0100  -45.1580  -44.7260 C.3   187  LYS187      0.0206
     38  CE        20.4870  -45.3850  -44.4450 C.3   187  LYS187      0.1093
     39  NZ        21.2570  -45.6110  -45.7000 N.3   187  LYS187     -0.1314
     40  N         13.6280  -44.1890  -42.2830 N.am  188  GLN188     -0.1963
     41  CA        12.1770  -44.1220  -42.4580 C.3   188  GLN188      0.1733
     42  C         11.7730  -43.3730  -43.7220 C.2   188  GLN188      0.2616
     43  O         10.7840  -42.6340  -43.7280 O.2   188  GLN188     -0.2715
     44  CB        11.5420  -43.4910  -41.2220 C.3   188  GLN188      0.0408
     45  CG        10.1100  -43.9370  -40.9630 C.3   188  GLN188      0.0908
     46  CD         9.5340  -43.3430  -39.6940 C.2   188  GLN188      0.2608
     47  OE1       10.2690  -42.9050  -38.8100 O.2   188  GLN188     -0.2717
     48  NE2        8.2090  -43.3270  -39.5970 N.am  188  GLN188     -0.0878
     49  N         12.5190  -43.5400  -44.8100 N.am  189  LYS189     -0.1963
     50  CA        12.1600  -42.9840  -46.1090 C.3   189  LYS189      0.1728
     51  C         11.7160  -44.1270  -47.0100 C.2   189  LYS189      0.2616
     52  O         12.5050  -45.0310  -47.3060 O.2   189  LYS189     -0.2715
     53  CB        13.3320  -42.2260  -46.7330 C.3   189  LYS189      0.0311
     54  CG        12.9450  -41.3900  -47.9440 C.3   189  LYS189      0.0038
     55  CD        14.1290  -40.6060  -48.4880 C.3   189  LYS189      0.0206
     56  CE        14.7940  -41.3370  -49.6430 C.3   189  LYS189      0.1093
     57  NZ        15.8960  -40.5380  -50.2460 N.3   189  LYS189     -0.1314
     58  N         10.4580  -44.0880  -47.4420 N.am  190  CYS190     -0.1968
     59  CA         9.8670  -45.1690  -48.2280 C.3   190  CYS190      0.1712
     60  C          9.2290  -44.5990  -49.4880 C.2   190  CYS190      0.2296
     61  O          8.0930  -44.0930  -49.4390 O.2   190  CYS190     -0.2864
     62  CB         8.8420  -45.9410  -47.4060 C.3   190  CYS190      0.0983
     63  SG         8.1270  -47.3700  -48.2500 S.3   190  CYS190     -0.0798
     64  N          7.0990  -44.7660  -52.7470 N.3   192  LEU192     -0.1245
     65  CA         6.0230  -45.6310  -53.2090 C.3   192  LEU192      0.1561
     66  C          6.0590  -45.7570  -54.7260 C.2   192  LEU192      0.2260
     67  O          6.2690  -44.7720  -55.4400 O.2   192  LEU192     -0.2867
     68  CB         4.6630  -45.0930  -52.7610 C.3   192  LEU192      0.0270
     69  CG         4.4860  -44.8600  -51.2600 C.3   192  LEU192      0.0019
     70  CD1        3.0700  -44.3990  -50.9470 C.3   192  LEU192      0.0001
     71  CD2        4.8300  -46.1170  -50.4800 C.3   192  LEU192      0.0001
     72  N          2.6000  -38.2460  -52.2110 N.3   205  ASP205     -0.1225
     73  CA         3.1040  -39.0620  -51.1100 C.3   205  ASP205      0.1805
     74  C          2.8790  -38.3890  -49.7610 C.2   205  ASP205      0.2597
     75  O          2.6950  -39.0740  -48.7490 O.2   205  ASP205     -0.2718
     76  CB         4.5910  -39.3610  -51.3140 C.3   205  ASP205      0.1424
     77  CG         5.0450  -40.6070  -50.5740 C.2   205  ASP205      0.3668
     78  OD1        4.2860  -41.1120  -49.7200 O.co2 205  ASP205     -0.2456
     79  OD2        6.1670  -41.0840  -50.8460 O.co2 205  ASP205     -0.2456
     80  N          2.8780  -37.0570  -49.7260 N.am  206  GLU206     -0.1979
     81  CA         2.6480  -36.3300  -48.4850 C.3   206  GLU206      0.1602
     82  C          1.1770  -35.9690  -48.2970 C.2   206  GLU206      0.2287
     83  O          0.6270  -36.1500  -47.2070 O.2   206  GLU206     -0.2864
     84  CB         3.5160  -35.0700  -48.4450 C.3   206  GLU206      0.0415
     85  CG         5.0080  -35.3560  -48.4550 C.3   206  GLU206      0.1163
     86  CD         5.8450  -34.1020  -48.3010 C.2   206  GLU206      0.3649
     87  OE1        5.2610  -32.9990  -48.2470 O.co2 206  GLU206     -0.2457
     88  OE2        7.0860  -34.2210  -48.2300 O.co2 206  GLU206     -0.2457
     89  N         -0.3950  -39.2840  -47.1850 N.3   209  GLU209     -0.1245
     90  CA         0.0410  -39.7500  -45.8730 C.3   209  GLU209      0.1567
     91  C         -0.4920  -38.8490  -44.7660 C.2   209  GLU209      0.2260
     92  O         -0.8560  -39.3290  -43.6860 O.2   209  GLU209     -0.2867
     93  CB         1.5670  -39.8240  -45.8200 C.3   209  GLU209      0.0388
     94  CG         2.1230  -40.2760  -44.4790 C.3   209  GLU209      0.1160
     95  CD         3.6110  -40.5600  -44.5310 C.2   209  GLU209      0.3649
     96  OE1        4.1880  -40.5150  -45.6380 O.co2 209  GLU209     -0.2457
     97  OE2        4.2040  -40.8310  -43.4650 O.co2 209  GLU209     -0.2457
     98  N         -2.4230  -48.2340  -49.5130 N.3   361  TRP361     -0.1227
     99  CA        -1.1030  -48.7270  -49.1340 C.3   361  TRP361      0.1737
    100  C         -0.7990  -48.4070  -47.6760 C.2   361  TRP361      0.2595
    101  O         -0.2450  -49.2430  -46.9540 O.2   361  TRP361     -0.2718
    102  CB        -0.0280  -48.1360  -50.0440 C.3   361  TRP361      0.0564
    103  CG         1.3470  -48.6530  -49.7400 C.ar  361  TRP361      0.0003
    104  CD1        1.9670  -49.7210  -50.3200 C.ar  361  TRP361      0.0946
    105  CD2        2.2660  -48.1350  -48.7700 C.ar  361  TRP361      0.0152
    106  NE1        3.2170  -49.8960  -49.7770 N.ar  361  TRP361     -0.2442
    107  CE2        3.4240  -48.9360  -48.8220 C.ar  361  TRP361      0.0810
    108  CE3        2.2230  -47.0710  -47.8640 C.ar  361  TRP361      0.0012
    109  CZ2        4.5280  -48.7060  -48.0040 C.ar  361  TRP361      0.0191
    110  CZ3        3.3190  -46.8440  -47.0540 C.ar  361  TRP361      0.0001
    111  CH2        4.4570  -47.6580  -47.1290 C.ar  361  TRP361      0.0015
    112  N         -1.1480  -47.1980  -47.2280 N.am  362  HIS362     -0.1975
    113  CA        -0.9640  -46.8580  -45.8220 C.3   362  HIS362      0.1656
    114  C         -1.8760  -47.6840  -44.9260 C.2   362  HIS362      0.2291
    115  O         -1.5000  -48.0120  -43.7940 O.2   362  HIS362     -0.2864
    116  CB        -1.2030  -45.3640  -45.6030 C.3   362  HIS362      0.0771
    117  CG        -0.1440  -44.4910  -46.2000 C.ar  362  HIS362      0.0820
    118  ND1       -0.2300  -43.9820  -47.4780 N.ar  362  HIS362     -0.2267
    119  CD2        1.0300  -44.0410  -45.6950 C.ar  362  HIS362      0.1154
    120  CE1        0.8430  -43.2540  -47.7330 C.ar  362  HIS362      0.1986
    121  NE2        1.6230  -43.2740  -46.6680 N.ar  362  HIS362     -0.2212
    122  N         -0.0510  -50.9510  -44.5910 N.3   365  ASN365     -0.1240
    123  CA         1.0140  -50.8610  -43.5980 C.3   365  ASN365      0.1653
    124  C          0.4590  -50.9380  -42.1830 C.2   365  ASN365      0.2266
    125  O          1.1300  -51.4480  -41.2790 O.2   365  ASN365     -0.2867
    126  CB         1.8060  -49.5680  -43.7920 C.3   365  ASN365      0.1155
    127  CG         3.2710  -49.7220  -43.4280 C.2   365  ASN365      0.2627
    128  OD1        4.1350  -49.0590  -44.0010 O.2   365  ASN365     -0.2716
    129  ND2        3.5570  -50.6000  -42.4740 N.am  365  ASN365     -0.0877
    130  N         -0.3010  -54.4870  -41.5340 N.3   368  PHE368     -0.1227
    131  CA         0.9230  -55.2290  -41.2540 C.3   368  PHE368      0.1736
    132  C          1.3090  -55.1080  -39.7860 C.2   368  PHE368      0.2595
    133  O          1.6120  -56.1100  -39.1270 O.2   368  PHE368     -0.2718
    134  CB         2.0580  -54.7290  -42.1490 C.3   368  PHE368      0.0547
    135  CG         3.3950  -55.3320  -41.8240 C.ar  368  PHE368     -0.0202
    136  CD1        3.7670  -56.5480  -42.3660 C.ar  368  PHE368     -0.0042
    137  CD2        4.2790  -54.6840  -40.9770 C.ar  368  PHE368     -0.0042
    138  CE1        4.9880  -57.1150  -42.0630 C.ar  368  PHE368     -0.0003
    139  CE2        5.5050  -55.2440  -40.6740 C.ar  368  PHE368     -0.0003
    140  CZ         5.8610  -56.4600  -41.2200 C.ar  368  PHE368     -0.0000
    141  N          1.3110  -53.8800  -39.2600 N.am  369  ALA369     -0.1980
    142  CA         1.7360  -53.6540  -37.8840 C.3   369  ALA369      0.1597
    143  C          0.8580  -54.4010  -36.8910 C.2   369  ALA369      0.2287
    144  O          1.3520  -54.8770  -35.8630 O.2   369  ALA369     -0.2864
    145  CB         1.7310  -52.1570  -37.5770 C.3   369  ALA369      0.0319
    146  N         13.6880  -47.1340  -33.8260 N.3   394  HIS394     -0.1241
    147  CA        13.4680  -48.5700  -33.9080 C.3   394  HIS394      0.1621
    148  C         14.5780  -49.2230  -34.7210 C.2   394  HIS394      0.2264
    149  O         14.9590  -48.7230  -35.7850 O.2   394  HIS394     -0.2867
    150  CB        12.0970  -48.8610  -34.5180 C.3   394  HIS394      0.0745
    151  CG        10.9560  -48.5170  -33.6130 C.ar  394  HIS394      0.0817
    152  ND1        9.8320  -49.3060  -33.4940 N.ar  394  HIS394     -0.2268
    153  CD2       10.7740  -47.4740  -32.7680 C.ar  394  HIS394      0.1154
    154  CE1        9.0070  -48.7640  -32.6160 C.ar  394  HIS394      0.1986
    155  NE2        9.5530  -47.6490  -32.1650 N.ar  394  HIS394     -0.2212
    156  N          0.5960  -63.0820  -40.4760 N.3   489  LEU489     -0.1245
    157  CA         1.6040  -62.2290  -41.0860 C.3   489  LEU489      0.1561
    158  C          2.6320  -63.1130  -41.7760 C.2   489  LEU489      0.2260
    159  O          3.0050  -64.1600  -41.2440 O.2   489  LEU489     -0.2867
    160  CB         2.2770  -61.3390  -40.0360 C.3   489  LEU489      0.0270
    161  CG         3.1480  -60.2200  -40.5890 C.3   489  LEU489      0.0019
    162  CD1        2.3530  -59.4900  -41.6470 C.3   489  LEU489      0.0001
    163  CD2        3.5850  -59.2760  -39.4810 C.3   489  LEU489      0.0001
    164  N          6.2330  -63.2140  -44.5960 N.3   491  LYS491     -0.1245
    165  CA         7.3380  -62.5710  -45.2880 C.3   491  LYS491      0.1561
    166  C          7.8250  -63.4790  -46.4090 C.2   491  LYS491      0.2260
    167  O          7.5970  -64.6920  -46.3970 O.2   491  LYS491     -0.2867
    168  CB         8.4990  -62.2540  -44.3340 C.3   491  LYS491      0.0271
    169  CG         8.0840  -61.5430  -43.0590 C.3   491  LYS491      0.0035
    170  CD         9.2890  -61.2120  -42.1970 C.3   491  LYS491      0.0206
    171  CE         8.8770  -60.4950  -40.9230 C.3   491  LYS491      0.1093
    172  NZ        10.0590  -60.0570  -40.1330 N.3   491  LYS491     -0.1314
    173  N         14.3330  -49.5080  -48.1120 N.3   507  LEU507     -0.1245
    174  CA        13.0590  -50.1610  -48.3680 C.3   507  LEU507      0.1561
    175  C         12.2040  -49.2780  -49.2650 C.2   507  LEU507      0.2260
    176  O         12.2660  -48.0480  -49.1890 O.2   507  LEU507     -0.2867
    177  CB        12.3360  -50.4620  -47.0510 C.3   507  LEU507      0.0270
    178  CG        12.1780  -49.2700  -46.1030 C.3   507  LEU507      0.0019
    179  CD1       10.7870  -48.6680  -46.2060 C.3   507  LEU507      0.0001
    180  CD2       12.5040  -49.6630  -44.6700 C.3   507  LEU507      0.0001
    181  N          5.5010  -54.1270  -49.6240 N.3   523  LEU523     -0.1245
    182  CA         6.7120  -53.5120  -49.1020 C.3   523  LEU523      0.1561
    183  C          7.8840  -54.4650  -49.2810 C.2   523  LEU523      0.2260
    184  O          7.7470  -55.6740  -49.0810 O.2   523  LEU523     -0.2867
    185  CB         6.5450  -53.1370  -47.6250 C.3   523  LEU523      0.0270
    186  CG         7.7080  -52.4270  -46.9320 C.3   523  LEU523      0.0019
    187  CD1        8.1690  -51.2310  -47.7470 C.3   523  LEU523      0.0001
    188  CD2        7.2940  -51.9910  -45.5390 C.3   523  LEU523      0.0001
    189  N         12.0900  -55.0460  -48.3570 N.3   525  TRP525     -0.1241
    190  CA        13.1530  -54.6980  -47.4240 C.3   525  TRP525      0.1605
    191  C         14.5170  -55.0760  -47.9840 C.2   525  TRP525      0.2264
    192  O         14.6650  -56.1080  -48.6460 O.2   525  TRP525     -0.2867
    193  CB        12.9580  -55.4040  -46.0790 C.3   525  TRP525      0.0550
    194  CG        12.2350  -54.6110  -45.0360 C.ar  525  TRP525      0.0003
    195  CD1       10.8960  -54.3620  -44.9670 C.ar  525  TRP525      0.0946
    196  CD2       12.8200  -53.9830  -43.8910 C.ar  525  TRP525      0.0152
    197  NE1       10.6130  -53.6070  -43.8530 N.ar  525  TRP525     -0.2442
    198  CE2       11.7780  -53.3630  -43.1760 C.ar  525  TRP525      0.0810
    199  CE3       14.1260  -53.8820  -43.4030 C.ar  525  TRP525      0.0012
    200  CZ2       12.0020  -52.6520  -42.0010 C.ar  525  TRP525      0.0191
    201  CZ3       14.3450  -53.1740  -42.2380 C.ar  525  TRP525      0.0001
    202  CH2       13.2900  -52.5690  -41.5500 C.ar  525  TRP525      0.0015
    203  N          6.8660  -58.2570  -48.0030 N.3   536  LEU536     -0.1245
    204  CA         5.9220  -58.3260  -46.8950 C.3   536  LEU536      0.1561
    205  C          4.5210  -58.6030  -47.4240 C.2   536  LEU536      0.2260
    206  O          4.0770  -57.9630  -48.3830 O.2   536  LEU536     -0.2867
    207  CB         5.9280  -57.0240  -46.0900 C.3   536  LEU536      0.0270
    208  CG         6.9300  -56.8520  -44.9440 C.3   536  LEU536      0.0019
    209  CD1        8.3350  -57.2400  -45.3570 C.3   536  LEU536      0.0001
    210  CD2        6.9070  -55.4210  -44.4340 C.3   536  LEU536      0.0001
    211  N          0.6080  -63.1160  -34.3010 N.3   591  TYR591     -0.1241
    212  CA         0.5060  -62.6910  -32.9120 C.3   591  TYR591      0.1605
    213  C         -0.8980  -62.1510  -32.6740 C.2   591  TYR591      0.2264
    214  O         -1.7500  -62.1610  -33.5660 O.2   591  TYR591     -0.2867
    215  CB         1.5870  -61.6670  -32.5510 C.3   591  TYR591      0.0534
    216  CG         1.7860  -60.5580  -33.5580 C.ar  591  TYR591     -0.0201
    217  CD1        0.9310  -59.4650  -33.6010 C.ar  591  TYR591     -0.0009
    218  CD2        2.8520  -60.5900  -34.4470 C.ar  591  TYR591     -0.0009
    219  CE1        1.1210  -58.4440  -34.5130 C.ar  591  TYR591      0.0417
    220  CE2        3.0520  -59.5750  -35.3620 C.ar  591  TYR591      0.0417
    221  CZ         2.1840  -58.5050  -35.3910 C.ar  591  TYR591      0.1957
    222  OH         2.3800  -57.4940  -36.3030 O.3   591  TYR591     -0.2866
    223  N          1.9500  -58.6790  -28.1480 N.3   639  ALA639     -0.1231
    224  CA         2.3240  -58.8800  -29.5470 C.3   639  ALA639      0.1694
    225  C          3.7850  -58.5440  -29.8290 C.2   639  ALA639      0.2592
    226  O          4.1570  -58.3270  -30.9850 O.2   639  ALA639     -0.2718
    227  CB         1.4100  -58.0820  -30.4830 C.3   639  ALA639      0.0304
    228  N          4.6340  -58.5070  -28.8050 N.am  640  THR640     -0.1953
    229  CA         6.0340  -58.1430  -28.9710 C.3   640  THR640      0.1897
    230  C          6.9320  -59.2040  -28.3470 C.2   640  THR640      0.2313
    231  O          6.4850  -60.0650  -27.5850 O.2   640  THR640     -0.2863
    232  CB         6.3410  -56.7740  -28.3490 C.3   640  THR640      0.1794
    233  OG1        6.1210  -56.8280  -26.9340 O.3   640  THR640     -0.2208
    234  CG2        5.4600  -55.6920  -28.9580 C.3   640  THR640      0.0378
@<TRIPOS>BOND
     1    67    66    2
     2    66    65    1
     3    65    68    1
     4    65    64    1
     5    68    69    1
     6    72    73    1
     7    76    73    1
     8    76    77    1
     9    69    70    1
    10    69    71    1
    11    73    74    1
    12    79    77   ar
    13    77    78   ar
    14   104   106   ar
    15   104   103   ar
    16    57    56    1
    17   102   103    1
    18   102    99    1
    19   106   107   ar
    20    74    80   am
    21    74    75    2
    22   103   105   ar
    23    80    81    1
    24    56    55    1
    25   181   182    1
    26    98    99    1
    27    60    61    2
    28    60    59    1
    29   183   182    1
    30   183   184    2
    31   175   176    2
    32   175   174    1
    33    99   100    1
    34   182   185    1
    35   107   105   ar
    36   107   109   ar
    37   105   108   ar
    38   192   191    2
    39    55    54    1
    40    81    84    1
    41    81    82    1
    42    85    84    1
    43    85    86    1
    44   206   205    2
    45   174   173    1
    46   174   177    1
    47   189   190    1
    48    86    87   ar
    49    86    88   ar
    50    82    83    2
    51    63    62    1
    52    59    58    1
    53    59    62    1
    54   109   111   ar
    55   203   204    1
    56   191   190    1
    57    54    53    1
    58   108   110   ar
    59   187   186    1
    60   120   118   ar
    61   120   121   ar
    62   100   112   am
    63   100   101    2
    64   185   186    1
    65   118   117   ar
    66    58    51   am
    67   190   193    1
    68   205   204    1
    69    52    51    2
    70   112   113    1
    71    89    90    1
    72   111   110   ar
    73   177   178    1
    74    51    50    1
    75   186   188    1
    76   204   207    1
    77    53    50    1
    78   121   119   ar
    79   166   167    2
    80   166   165    1
    81   179   178    1
    82   117   119   ar
    83   117   116    1
    84    50    49    1
    85   178   180    1
    86   207   208    1
    87   193   194    1
    88    90    93    1
    89    90    91    1
    90   113   116    1
    91   113   114    1
    92    93    94    1
    93    39    38    1
    94    96    95   ar
    95   209   208    1
    96   165   164    1
    97   165   168    1
    98   194   195   ar
    99   194   196   ar
   100   195   197   ar
   101   208   210    1
   102   114   115    2
   103    49    42   am
   104    91    92    2
   105    37    38    1
   106    37    36    1
   107   122   123    1
   108    95    94    1
   109    95    97   ar
   110   168   169    1
   111   128   127    2
   112   196   199   ar
   113   196   198   ar
   114   197   198   ar
   115   126   123    1
   116   126   127    1
   117    43    42    2
   118    42    41    1
   119    35    36    1
   120    35    32    1
   121    34    33    2
   122   123   124    1
   123   127   129   am
   124   199   201   ar
   125   198   200   ar
   126   169   170    1
   127    33    32    1
   128    33    40   am
   129    32    31    1
   130    41    40    1
   131    41    44    1
   132   136   138   ar
   133   136   135   ar
   134   201   202   ar
   135   170   171    1
   136   124   125    2
   137   134   135    1
   138   134   131    1
   139   138   140   ar
   140   200   202   ar
   141   135   137   ar
   142   158   159    2
   143   158   157    1
   144    31    25   am
   145   162   161    1
   146   130   131    1
   147   131   132    1
   148    44    45    1
   149   140   139   ar
   150   157   156    1
   151   157   160    1
   152   137   139   ar
   153    45    46    1
   154   171   172    1
   155    29    27    1
   156     7     8    1
   157     7     6    1
   158   161   160    1
   159   161   163    1
   160    25    24    1
   161    25    26    2
   162    24    27    1
   163    24    23    1
   164   132   141   am
   165   132   133    2
   166    46    48   am
   167    46    47    2
   168    27    28    1
   169   141   142    1
   170     6     5    1
   171    28    30    1
   172     5     2    1
   173   142   145    1
   174   142   143    1
   175    15    13    1
   176   143   144    2
   177     2     3    1
   178     2     1    1
   179   222   221    1
   180     4     3    2
   181     3     9   am
   182   149   148    2
   183    13    14    1
   184    13    10    1
   185     9    10    1
   186   221   220   ar
   187   221   219   ar
   188   220   218   ar
   189    10    11    1
   190   148   147    1
   191   150   147    1
   192   150   151    1
   193   219   217   ar
   194   218   216   ar
   195   211   212    1
   196   147   146    1
   197   151   152   ar
   198   151   153   ar
   199   217   216   ar
   200   214   213    2
   201   216   215    1
   202    11    12    2
   203   152   154   ar
   204   212   213    1
   205   212   215    1
   206   153   155   ar
   207   154   155   ar
   208    22    20    1
   209   226   225    2
   210    17    16    1
   211    17    20    1
   212    17    18    1
   213    20    21    1
   214   227   224    1
   215    18    19    2
   216   225   224    1
   217   225   228   am
   218   224   223    1
   219   229   228    1
   220   229   232    1
   221   229   230    1
   222   234   232    1
   223   232   233    1
   224   230   231    2
