@<TRIPOS>MOLECULE
tmp/5lhhA01.pdb
 199 192 0 0 0
SMALL
GASTEIGER

@<TRIPOS>ATOM
      1  N        -72.6220  -31.1420  -35.7290 N.3   162  MET162     -0.1230
      2  CA       -73.8850  -31.7340  -36.1550 C.3   162  MET162      0.1702
      3  C        -74.0870  -33.1800  -35.7220 C.2   162  MET162      0.2592
      4  O        -75.1380  -33.7410  -36.0420 O.2   162  MET162     -0.2718
      5  CB       -74.0300  -31.6330  -37.6880 C.3   162  MET162      0.0401
      6  CG       -73.0480  -32.4740  -38.4820 C.3   162  MET162      0.0596
      7  SD       -73.8430  -33.8270  -39.3790 S.3   162  MET162     -0.1393
      8  CE       -74.9070  -32.9430  -40.5100 C.3   162  MET162      0.0692
      9  N        -73.1550  -33.8040  -35.0030 N.am  163  VAL163     -0.1980
     10  CA       -73.2570  -35.2170  -34.6470 C.3   163  VAL163      0.1595
     11  C        -73.1510  -35.3710  -33.1360 C.2   163  VAL163      0.2287
     12  O        -72.2660  -34.7800  -32.5060 O.2   163  VAL163     -0.2864
     13  CB       -72.1830  -36.0640  -35.3560 C.3   163  VAL163      0.0276
     14  CG1      -72.0890  -37.4410  -34.7230 C.3   163  VAL163      0.0022
     15  CG2      -72.5020  -36.1910  -36.8370 C.3   163  VAL163      0.0022
     16  N        -72.1640  -38.1360  -30.5990 N.3   165  THR165     -0.1218
     17  CA       -71.3750  -39.3650  -30.6960 C.3   165  THR165      0.1862
     18  C        -71.8200  -40.3990  -29.6560 C.2   165  THR165      0.2287
     19  O        -71.0850  -40.7760  -28.7450 O.2   165  THR165     -0.2866
     20  CB       -69.8930  -39.0400  -30.5580 C.3   165  THR165      0.1770
     21  OG1      -69.5790  -38.8030  -29.1800 O.3   165  THR165     -0.2211
     22  CG2      -69.5600  -37.8000  -31.3650 C.3   165  THR165      0.0375
     23  N        -77.2810  -42.3400  -38.2240 N.3   186  ILE186     -0.1245
     24  CA       -76.5080  -42.2750  -39.4590 C.3   186  ILE186      0.1561
     25  C        -76.2970  -43.6950  -39.9640 C.2   186  ILE186      0.2260
     26  O        -75.6870  -44.5210  -39.2760 O.2   186  ILE186     -0.2867
     27  CB       -75.1580  -41.5740  -39.2440 C.3   186  ILE186      0.0252
     28  CG1      -75.3480  -40.1730  -38.6680 C.3   186  ILE186      0.0019
     29  CG2      -74.3860  -41.5020  -40.5470 C.3   186  ILE186      0.0019
     30  CD1      -74.0300  -39.4630  -38.4100 C.3   186  ILE186      0.0001
     31  N        -74.3620  -46.3130  -41.6400 N.3   188  GLN188     -0.1245
     32  CA       -72.9090  -46.3610  -41.7850 C.3   188  GLN188      0.1566
     33  C        -72.4490  -46.5900  -43.2210 C.2   188  GLN188      0.2260
     34  O        -71.3330  -46.1850  -43.5660 O.2   188  GLN188     -0.2867
     35  CB       -72.3340  -47.4640  -40.8900 C.3   188  GLN188      0.0367
     36  CG       -72.5010  -47.2250  -39.4010 C.3   188  GLN188      0.0905
     37  CD       -71.7450  -46.0070  -38.9220 C.2   188  GLN188      0.2608
     38  OE1      -70.6730  -45.6870  -39.4350 O.2   188  GLN188     -0.2717
     39  NE2      -72.3000  -45.3190  -37.9320 N.am  188  GLN188     -0.0878
     40  N        -60.0070  -36.1170  -41.5240 N.3   368  PHE368     -0.1227
     41  CA       -61.2540  -35.3980  -41.2860 C.3   368  PHE368      0.1736
     42  C        -61.6990  -35.5290  -39.8350 C.2   368  PHE368      0.2595
     43  O        -62.1060  -34.5450  -39.2090 O.2   368  PHE368     -0.2718
     44  CB       -62.3430  -35.9140  -42.2280 C.3   368  PHE368      0.0547
     45  CG       -63.7370  -35.6010  -41.7690 C.ar  368  PHE368     -0.0202
     46  CD1      -64.2240  -34.3050  -41.8300 C.ar  368  PHE368     -0.0042
     47  CD2      -64.5600  -36.6020  -41.2700 C.ar  368  PHE368     -0.0042
     48  CE1      -65.5030  -34.0100  -41.4020 C.ar  368  PHE368     -0.0003
     49  CE2      -65.8450  -36.3150  -40.8430 C.ar  368  PHE368     -0.0003
     50  CZ       -66.3170  -35.0170  -40.9110 C.ar  368  PHE368     -0.0000
     51  N        -61.6370  -36.7460  -39.2880 N.am  369  ALA369     -0.1966
     52  CA       -62.1110  -36.9780  -37.9280 C.3   369  ALA369      0.1728
     53  C        -61.3160  -36.1640  -36.9170 C.2   369  ALA369      0.2616
     54  O        -61.8700  -35.6840  -35.9210 O.2   369  ALA369     -0.2715
     55  CB       -62.0350  -38.4670  -37.5950 C.3   369  ALA369      0.0334
     56  N        -60.0170  -35.9950  -37.1580 N.am  370  ASN370     -0.1972
     57  CA       -59.1520  -35.2370  -36.2680 C.3   370  ASN370      0.1688
     58  C        -58.8840  -33.8250  -36.7640 C.2   370  ASN370      0.2292
     59  O        -58.1820  -33.0670  -36.0840 O.2   370  ASN370     -0.2864
     60  CB       -57.8300  -35.9830  -36.0550 C.3   370  ASN370      0.1181
     61  CG       -58.0370  -37.3660  -35.4710 C.2   370  ASN370      0.2629
     62  OD1      -58.1960  -37.5210  -34.2620 O.2   370  ASN370     -0.2716
     63  ND2      -58.0390  -38.3790  -36.3270 N.am  370  ASN370     -0.0877
     64  N        -52.6160  -39.4200  -29.8750 N.3   382  TRP382     -0.1241
     65  CA       -53.6820  -38.8050  -30.6620 C.3   382  TRP382      0.1605
     66  C        -55.0460  -39.3870  -30.3190 C.2   382  TRP382      0.2264
     67  O        -56.0490  -38.6650  -30.3320 O.2   382  TRP382     -0.2867
     68  CB       -53.4030  -38.9580  -32.1580 C.3   382  TRP382      0.0550
     69  CG       -53.6220  -40.3340  -32.6900 C.ar  382  TRP382      0.0003
     70  CD1      -52.7100  -41.3470  -32.7540 C.ar  382  TRP382      0.0946
     71  CD2      -54.8310  -40.8430  -33.2660 C.ar  382  TRP382      0.0152
     72  NE1      -53.2820  -42.4620  -33.3230 N.ar  382  TRP382     -0.2442
     73  CE2      -54.5830  -42.1770  -33.6460 C.ar  382  TRP382      0.0810
     74  CE3      -56.1010  -40.3020  -33.4920 C.ar  382  TRP382      0.0012
     75  CZ2      -55.5560  -42.9760  -34.2390 C.ar  382  TRP382      0.0191
     76  CZ3      -57.0650  -41.0970  -34.0800 C.ar  382  TRP382      0.0001
     77  CH2      -56.7880  -42.4190  -34.4470 C.ar  382  TRP382      0.0015
     78  N        -58.2810  -40.0620  -26.0380 N.3   385  ASP385     -0.1239
     79  CA       -59.6650  -39.9260  -25.6140 C.3   385  ASP385      0.1674
     80  C        -60.5510  -41.0610  -26.1110 C.2   385  ASP385      0.2266
     81  O        -61.7770  -40.9760  -25.9790 O.2   385  ASP385     -0.2867
     82  CB       -60.2270  -38.5890  -26.0980 C.3   385  ASP385      0.1410
     83  CG       -60.2710  -38.4940  -27.6070 C.2   385  ASP385      0.3668
     84  OD1      -59.2580  -38.8430  -28.2510 O.co2 385  ASP385     -0.2456
     85  OD2      -61.3170  -38.0770  -28.1480 O.co2 385  ASP385     -0.2456
     86  N        -74.1910  -43.1380  -33.6190 N.3   394  HIS394     -0.1241
     87  CA       -74.0190  -41.7030  -33.7930 C.3   394  HIS394      0.1621
     88  C        -75.2400  -41.1130  -34.4820 C.2   394  HIS394      0.2264
     89  O        -75.7610  -41.6780  -35.4490 O.2   394  HIS394     -0.2867
     90  CB       -72.7590  -41.4070  -34.6070 C.3   394  HIS394      0.0745
     91  CG       -71.4900  -41.8130  -33.9240 C.ar  394  HIS394      0.0817
     92  ND1      -70.2490  -41.3900  -34.3480 N.ar  394  HIS394     -0.2268
     93  CD2      -71.2710  -42.5920  -32.8370 C.ar  394  HIS394      0.1154
     94  CE1      -69.3200  -41.8950  -33.5560 C.ar  394  HIS394      0.1986
     95  NE2      -69.9140  -42.6290  -32.6320 N.ar  394  HIS394     -0.2212
     96  N        -61.3100  -27.9310  -40.4200 N.3   489  LEU489     -0.1245
     97  CA       -62.0620  -28.6750  -41.4240 C.3   489  LEU489      0.1561
     98  C        -63.2920  -27.8570  -41.7930 C.2   489  LEU489      0.2260
     99  O        -63.8580  -27.1580  -40.9490 O.2   489  LEU489     -0.2867
    100  CB       -62.4500  -30.0760  -40.9290 C.3   489  LEU489      0.0270
    101  CG       -63.6870  -30.3010  -40.0600 C.3   489  LEU489      0.0019
    102  CD1      -64.9150  -30.5730  -40.9160 C.3   489  LEU489      0.0001
    103  CD2      -63.4490  -31.4450  -39.1010 C.3   489  LEU489      0.0001
    104  N        -67.0140  -27.2940  -44.3480 N.3   491  LYS491     -0.1245
    105  CA       -68.1820  -27.9130  -44.9570 C.3   491  LYS491      0.1561
    106  C        -68.7330  -27.0160  -46.0550 C.2   491  LYS491      0.2260
    107  O        -68.6990  -25.7870  -45.9420 O.2   491  LYS491     -0.2867
    108  CB       -69.2710  -28.1810  -43.9130 C.3   491  LYS491      0.0271
    109  CG       -68.7840  -28.9660  -42.7140 C.3   491  LYS491      0.0035
    110  CD       -69.9050  -29.2570  -41.7350 C.3   491  LYS491      0.0206
    111  CE       -69.3930  -30.1050  -40.5790 C.3   491  LYS491      0.1093
    112  NZ       -70.4840  -30.5570  -39.6740 N.3   491  LYS491     -0.1314
    113  N        -74.4030  -41.2300  -46.8500 N.3   507  LEU507     -0.1245
    114  CA       -73.1090  -40.6440  -47.1650 C.3   507  LEU507      0.1561
    115  C        -72.4000  -41.5080  -48.1940 C.2   507  LEU507      0.2260
    116  O        -72.5910  -42.7250  -48.2400 O.2   507  LEU507     -0.2867
    117  CB       -72.2360  -40.4730  -45.9110 C.3   507  LEU507      0.0270
    118  CG       -71.9360  -41.6390  -44.9650 C.3   507  LEU507      0.0019
    119  CD1      -70.7040  -41.3290  -44.1340 C.3   507  LEU507      0.0001
    120  CD2      -73.1040  -41.9060  -44.0440 C.3   507  LEU507      0.0001
    121  N        -65.8690  -36.4630  -49.1510 N.3   523  LEU523     -0.1245
    122  CA       -67.0230  -37.0490  -48.4850 C.3   523  LEU523      0.1561
    123  C        -68.2530  -36.1850  -48.7160 C.2   523  LEU523      0.2260
    124  O        -68.1710  -34.9530  -48.6930 O.2   523  LEU523     -0.2867
    125  CB       -66.7580  -37.2080  -46.9810 C.3   523  LEU523      0.0270
    126  CG       -67.7530  -38.0260  -46.1600 C.3   523  LEU523      0.0019
    127  CD1      -68.0270  -39.3590  -46.8320 C.3   523  LEU523      0.0001
    128  CD2      -67.2210  -38.2320  -44.7430 C.3   523  LEU523      0.0001
    129  N        -72.6070  -35.8110  -47.7610 N.3   525  TRP525     -0.1241
    130  CA       -73.5790  -36.1270  -46.7220 C.3   525  TRP525      0.1605
    131  C        -74.9900  -35.8550  -47.2150 C.2   525  TRP525      0.2264
    132  O        -75.2820  -34.7560  -47.7000 O.2   525  TRP525     -0.2867
    133  CB       -73.3350  -35.3060  -45.4550 C.3   525  TRP525      0.0550
    134  CG       -72.1620  -35.7220  -44.6390 C.ar  525  TRP525      0.0003
    135  CD1      -71.4400  -36.8710  -44.7560 C.ar  525  TRP525      0.0946
    136  CD2      -71.5920  -34.9960  -43.5470 C.ar  525  TRP525      0.0152
    137  NE1      -70.4410  -36.8980  -43.8120 N.ar  525  TRP525     -0.2442
    138  CE2      -70.5160  -35.7580  -43.0560 C.ar  525  TRP525      0.0810
    139  CE3      -71.8830  -33.7710  -42.9410 C.ar  525  TRP525      0.0012
    140  CZ2      -69.7320  -35.3350  -41.9850 C.ar  525  TRP525      0.0191
    141  CZ3      -71.1010  -33.3520  -41.8820 C.ar  525  TRP525      0.0001
    142  CH2      -70.0380  -34.1310  -41.4160 C.ar  525  TRP525      0.0015
    143  N        -77.9890  -36.0590  -44.9890 N.3   527  LEU527     -0.1245
    144  CA       -78.4300  -36.2880  -43.6230 C.3   527  LEU527      0.1561
    145  C        -79.6150  -35.4340  -43.2040 C.2   527  LEU527      0.2260
    146  O        -80.1410  -35.6380  -42.1040 O.2   527  LEU527     -0.2867
    147  CB       -77.2700  -36.0480  -42.6470 C.3   527  LEU527      0.0270
    148  CG       -76.1060  -37.0180  -42.8370 C.3   527  LEU527      0.0019
    149  CD1      -74.8500  -36.5190  -42.1400 C.3   527  LEU527      0.0001
    150  CD2      -76.5050  -38.3900  -42.3270 C.3   527  LEU527      0.0001
    151  N        -61.2390  -27.3650  -34.2470 N.3   591  TYR591     -0.1227
    152  CA       -61.1560  -27.8110  -32.8610 C.3   591  TYR591      0.1736
    153  C        -59.7500  -28.3440  -32.6120 C.2   591  TYR591      0.2596
    154  O        -58.9230  -28.4250  -33.5230 O.2   591  TYR591     -0.2718
    155  CB       -62.2260  -28.8590  -32.5320 C.3   591  TYR591      0.0548
    156  CG       -62.4080  -29.9520  -33.5650 C.ar  591  TYR591     -0.0200
    157  CD1      -61.5260  -31.0210  -33.6350 C.ar  591  TYR591     -0.0009
    158  CD2      -63.4830  -29.9320  -34.4460 C.ar  591  TYR591     -0.0009
    159  CE1      -61.6970  -32.0320  -34.5610 C.ar  591  TYR591      0.0417
    160  CE2      -63.6630  -30.9410  -35.3790 C.ar  591  TYR591      0.0417
    161  CZ       -62.7660  -31.9860  -35.4300 C.ar  591  TYR591      0.1957
    162  OH       -62.9280  -32.9910  -36.3520 O.3   591  TYR591     -0.2866
    163  N        -59.4860  -28.7140  -31.3660 N.am  592  SER592     -0.1938
    164  CA       -58.1310  -29.0760  -30.9960 C.3   592  SER592      0.2055
    165  C        -57.8280  -30.5280  -31.3550 C.2   592  SER592      0.2643
    166  O        -58.7190  -31.3730  -31.4630 O.2   592  SER592     -0.2714
    167  CB       -57.9040  -28.8620  -29.5020 C.3   592  SER592      0.2130
    168  OG       -58.7660  -29.6930  -28.7430 O.3   592  SER592     -0.2179
    169  N        -56.5390  -30.8010  -31.5460 N.am  593  TYR593     -0.1973
    170  CA       -56.0260  -32.1560  -31.6830 C.3   593  TYR593      0.1639
    171  C        -54.7600  -32.2670  -30.8470 C.2   593  TYR593      0.2290
    172  O        -54.1490  -31.2620  -30.4800 O.2   593  TYR593     -0.2864
    173  CB       -55.7390  -32.5210  -33.1470 C.3   593  TYR593      0.0560
    174  CG       -54.6180  -31.7220  -33.7790 C.ar  593  TYR593     -0.0198
    175  CD1      -53.3070  -32.1800  -33.7490 C.ar  593  TYR593     -0.0009
    176  CD2      -54.8730  -30.5160  -34.4200 C.ar  593  TYR593     -0.0009
    177  CE1      -52.2830  -31.4580  -34.3320 C.ar  593  TYR593      0.0417
    178  CE2      -53.8550  -29.7880  -35.0040 C.ar  593  TYR593      0.0417
    179  CZ       -52.5620  -30.2620  -34.9560 C.ar  593  TYR593      0.1957
    180  OH       -51.5400  -29.5390  -35.5340 O.3   593  TYR593     -0.2866
    181  N        -62.2460  -33.9080  -25.4520 N.3   638  PRO638     -0.2102
    182  CA       -61.9260  -32.6980  -26.2090 C.3   638  PRO638      0.1504
    183  C        -62.5880  -32.7300  -27.5780 C.2   638  PRO638      0.2576
    184  O        -63.0870  -33.7560  -28.0420 O.2   638  PRO638     -0.2718
    185  CB       -60.3960  -32.7290  -26.3210 C.3   638  PRO638      0.0282
    186  CG       -59.9550  -34.0680  -25.7560 C.3   638  PRO638      0.0208
    187  CD       -61.1810  -34.9140  -25.5940 C.3   638  PRO638      0.0893
    188  N        -62.6020  -31.5620  -28.2140 N.am  639  ALA639     -0.1966
    189  CA       -63.0460  -31.3650  -29.5910 C.3   639  ALA639      0.1728
    190  C        -64.5310  -31.6490  -29.8010 C.2   639  ALA639      0.2616
    191  O        -64.9790  -31.7360  -30.9480 O.2   639  ALA639     -0.2715
    192  CB       -62.2100  -32.1980  -30.5660 C.3   639  ALA639      0.0334
    193  N        -65.3180  -31.7630  -28.7390 N.am  640  THR640     -0.1951
    194  CA       -66.7280  -32.1010  -28.8650 C.3   640  THR640      0.1897
    195  C        -67.6060  -30.9940  -28.2930 C.2   640  THR640      0.2313
    196  O        -67.1290  -30.0060  -27.7290 O.2   640  THR640     -0.2863
    197  CB       -67.0410  -33.4230  -28.1570 C.3   640  THR640      0.1794
    198  OG1      -66.8090  -33.2760  -26.7500 O.3   640  THR640     -0.2208
    199  CG2      -66.1620  -34.5330  -28.6980 C.3   640  THR640      0.0378
@<TRIPOS>BOND
     1   121   122    1
     2   123   124    2
     3   123   122    1
     4   122   125    1
     5   116   115    2
     6   115   114    1
     7   129   130    1
     8   132   131    2
     9   131   130    1
    10   114   113    1
    11   114   117    1
    12   125   126    1
    13   127   126    1
    14   130   133    1
    15   126   128    1
    16   106   107    2
    17   106   105    1
    18   117   118    1
    19   133   134    1
    20   143   144    1
    21   118   119    1
    22   118   120    1
    23   105   104    1
    24   105   108    1
    25   135   134   ar
    26   135   137   ar
    27   134   136   ar
    28   108   109    1
    29   137   138   ar
    30   144   145    1
    31   144   147    1
    32    34    33    2
    33   136   138   ar
    34   136   139   ar
    35    33    32    1
    36   145   146    2
    37   138   140   ar
    38   139   141   ar
    39   148   147    1
    40   148   150    1
    41   148   149    1
    42   109   110    1
    43    44    45    1
    44    44    41    1
    45   140   142   ar
    46   141   142   ar
    47    46    45   ar
    48    46    48   ar
    49    98    97    1
    50    98    99    2
    51    32    31    1
    52    32    35    1
    53    45    47   ar
    54   110   111    1
    55    40    41    1
    56    97   100    1
    57    97    96    1
    58    48    50   ar
    59    41    42    1
    60    47    49   ar
    61   100   101    1
    62   102   101    1
    63    50    49   ar
    64    35    36    1
    65   111   112    1
    66    29    27    1
    67     8     7    1
    68   101   103    1
    69    25    24    1
    70    25    26    2
    71    42    51   am
    72    42    43    2
    73    24    27    1
    74    24    23    1
    75    38    37    2
    76    36    37    1
    77     7     6    1
    78    51    52    1
    79    27    28    1
    80    37    39   am
    81    28    30    1
    82     6     5    1
    83    52    55    1
    84    52    53    1
    85     5     2    1
    86    56    53   am
    87    56    57    1
    88    53    54    2
    89    15    13    1
    90    58    57    1
    91    58    59    2
    92   162   161    1
    93    63    61   am
    94    57    60    1
    95     2     1    1
    96     2     3    1
    97    60    61    1
    98     4     3    2
    99     3     9   am
   100   180   179    1
   101    61    62    2
   102    89    88    2
   103   161   160   ar
   104   161   159   ar
   105   160   158   ar
   106    13    14    1
   107    13    10    1
   108   178   179   ar
   109   178   176   ar
   110     9    10    1
   111   179   177   ar
   112    10    11    1
   113    90    91    1
   114    90    87    1
   115   159   157   ar
   116    88    87    1
   117    77    75   ar
   118    77    76   ar
   119   158   156   ar
   120   176   174   ar
   121    92    91   ar
   122    92    94   ar
   123   177   175   ar
   124   151   152    1
   125    75    73   ar
   126    76    74   ar
   127    91    93   ar
   128    87    86    1
   129   174   175   ar
   130   174   173    1
   131    73    72   ar
   132    73    71   ar
   133   157   156   ar
   134   156   155    1
   135    94    95   ar
   136   154   153    2
   137    74    71   ar
   138    72    70   ar
   139    71    69   ar
   140   173   170    1
   141    11    12    2
   142   152   153    1
   143   152   155    1
   144    93    95   ar
   145    70    69   ar
   146    69    68    1
   147   153   163   am
   148    68    65    1
   149   170   169    1
   150   170   171    1
   151   169   165   am
   152   166   165    2
   153   163   164    1
   154    22    20    1
   155   165   164    1
   156   164   167    1
   157   191   190    2
   158   171   172    2
   159    17    16    1
   160    17    20    1
   161    17    18    1
   162    65    66    1
   163    65    64    1
   164   192   189    1
   165    20    21    1
   166    67    66    2
   167   190   189    1
   168   190   193   am
   169    18    19    2
   170   189   188    1
   171   167   168    1
   172   194   193    1
   173   194   195    1
   174   194   197    1
   175   199   197    1
   176   195   196    2
   177    84    83   ar
   178   188   183   am
   179   197   198    1
   180    85    83   ar
   181   184   183    2
   182    83    82    1
   183   183   182    1
   184   185   182    1
   185   185   186    1
   186   182   181    1
   187    80    81    2
   188    80    79    1
   189    82    79    1
   190    78    79    1
   191   186   187    1
   192   187   181    1
