@<TRIPOS>MOLECULE
tmp/5lhpA00.pdb
 148 149 0 0 0
SMALL
GASTEIGER

@<TRIPOS>ATOM
      1  N        138.7760  -34.9130   26.5750 N.3    47  HIS47      -0.1241
      2  CA       139.6210  -35.5670   27.5620 C.3    47  HIS47       0.1621
      3  C        138.8710  -35.6340   28.8920 C.2    47  HIS47       0.2264
      4  O        139.2300  -36.4200   29.7760 O.2    47  HIS47      -0.2867
      5  CB       140.9740  -34.8560   27.7050 C.3    47  HIS47       0.0745
      6  CG       140.9500  -33.6400   28.5910 C.ar   47  HIS47       0.0817
      7  ND1      140.9620  -32.3580   28.0950 N.ar   47  HIS47      -0.2268
      8  CD2      140.9500  -33.5260   29.9390 C.ar   47  HIS47       0.1154
      9  CE1      140.9410  -31.4980   29.1020 C.ar   47  HIS47       0.1986
     10  NE2      140.9260  -32.1830   30.2290 N.ar   47  HIS47      -0.2212
     11  N        146.6940  -32.8840   24.3720 N.3    95  TYR95      -0.1241
     12  CA       145.5800  -33.6260   23.8170 C.3    95  TYR95       0.1605
     13  C        145.4000  -33.2590   22.3460 C.2    95  TYR95       0.2264
     14  O        145.6240  -32.1200   21.9620 O.2    95  TYR95      -0.2867
     15  CB       144.2970  -33.3300   24.6010 C.3    95  TYR95       0.0534
     16  CG       144.3540  -33.6900   26.0770 C.ar   95  TYR95      -0.0201
     17  CD1      144.4300  -35.0160   26.4840 C.ar   95  TYR95      -0.0009
     18  CD2      144.3080  -32.7080   27.0580 C.ar   95  TYR95      -0.0009
     19  CE1      144.4700  -35.3530   27.8160 C.ar   95  TYR95       0.0417
     20  CE2      144.3550  -33.0380   28.3880 C.ar   95  TYR95       0.0417
     21  CZ       144.4360  -34.3700   28.7590 C.ar   95  TYR95       0.1957
     22  OH       144.4860  -34.7340   30.0800 O.3    95  TYR95      -0.2866
     23  N        145.5840  -16.9810   34.2960 N.3   193  ASP193     -0.1225
     24  CA       145.6120  -18.1760   33.4580 C.3   193  ASP193      0.1805
     25  C        144.4730  -19.1070   33.8760 C.2   193  ASP193      0.2598
     26  O        143.9280  -18.9680   34.9680 O.2   193  ASP193     -0.2718
     27  CB       146.9710  -18.8940   33.5830 C.3   193  ASP193      0.1424
     28  CG       147.1440  -20.0160   32.5700 C.2   193  ASP193      0.3668
     29  OD1      146.3560  -20.0850   31.5980 O.co2 193  ASP193     -0.2456
     30  OD2      148.0670  -20.8390   32.7430 O.co2 193  ASP193     -0.2456
     31  N        144.1010  -20.0420   33.0060 N.am  194  SER194     -0.1938
     32  CA       143.1870  -21.1110   33.3940 C.3   194  SER194      0.2055
     33  C        143.9940  -22.2530   34.0350 C.2   194  SER194      0.2643
     34  O        145.2110  -22.3440   33.8420 O.2   194  SER194     -0.2714
     35  CB       142.3820  -21.6300   32.1980 C.3   194  SER194      0.2130
     36  OG       143.2340  -22.1650   31.2040 O.3   194  SER194     -0.2179
     37  N        143.3130  -23.1210   34.7840 N.am  195  CYS195     -0.1953
     38  CA       143.9860  -24.1460   35.5790 C.3   195  CYS195      0.1843
     39  C        143.1810  -25.4400   35.6280 C.2   195  CYS195      0.2625
     40  O        142.1260  -25.5500   35.0020 O.2   195  CYS195     -0.2714
     41  CB       144.2350  -23.6330   37.0030 C.3   195  CYS195      0.0997
     42  SG       145.5380  -24.5090   37.9210 S.3   195  CYS195     -0.0797
     43  N        143.6940  -26.4180   36.3700 N.am  196  LYS196     -0.1977
     44  CA       143.0260  -27.7060   36.5230 C.3   196  LYS196      0.1596
     45  C        141.5690  -27.4820   36.9360 C.2   196  LYS196      0.2287
     46  O        141.2880  -26.7460   37.8810 O.2   196  LYS196     -0.2864
     47  CB       143.7620  -28.5720   37.5580 C.3   196  LYS196      0.0298
     48  CG       143.5280  -30.0700   37.4280 C.3   196  LYS196      0.0038
     49  CD       143.6130  -30.7480   38.7820 C.3   196  LYS196      0.0206
     50  CE       143.5990  -32.2690   38.6690 C.3   196  LYS196      0.1093
     51  NZ       144.8490  -32.7840   38.0440 N.3   196  LYS196     -0.1314
     52  N        139.1030  -27.1810   32.3620 N.3   199  SER199     -0.1217
     53  CA       138.9730  -27.9880   31.1630 C.3   199  SER199      0.1889
     54  C        137.5670  -28.0050   30.6120 C.2   199  SER199      0.2288
     55  O        136.5830  -28.0620   31.3740 O.2   199  SER199     -0.2866
     56  CB       139.4000  -29.4090   31.4430 C.3   199  SER199      0.2089
     57  OG       140.7930  -29.4670   31.6320 O.3   199  SER199     -0.2183
     58  N        139.1470  -25.0160   26.7900 N.3   217  VAL217     -0.1231
     59  CA       140.2830  -25.2380   27.6700 C.3   217  VAL217      0.1692
     60  C        140.7020  -26.6840   27.5320 C.2   217  VAL217      0.2593
     61  O        139.8990  -27.5950   27.7150 O.2   217  VAL217     -0.2718
     62  CB       139.9640  -24.9010   29.1520 C.3   217  VAL217      0.0266
     63  CG1      141.1390  -25.2240   30.0400 C.3   217  VAL217      0.0020
     64  CG2      139.6120  -23.4420   29.3230 C.3   217  VAL217      0.0020
     65  N        141.9590  -26.8880   27.1620 N.am  218  SER218     -0.1938
     66  CA       142.4440  -28.2240   26.8400 C.3   218  SER218      0.2055
     67  C        143.6490  -28.5990   27.7180 C.2   218  SER218      0.2643
     68  O        143.5600  -29.5770   28.4690 O.2   218  SER218     -0.2714
     69  CB       142.7800  -28.3160   25.3510 C.3   218  SER218      0.2130
     70  OG       143.1800  -29.6230   24.9730 O.3   218  SER218     -0.2179
     71  N        144.7440  -27.8340   27.6790 N.am  219  TRP219     -0.1959
     72  CA       145.8770  -28.1610   28.5600 C.3   219  TRP219      0.1771
     73  C        146.8890  -27.0380   28.8780 C.2   219  TRP219      0.2620
     74  O        146.6480  -25.8620   28.6120 O.2   219  TRP219     -0.2715
     75  CB       146.6390  -29.3580   27.9710 C.3   219  TRP219      0.0590
     76  CG       147.1540  -29.1770   26.5760 C.ar  219  TRP219      0.0006
     77  CD1      146.4400  -29.2960   25.4280 C.ar  219  TRP219      0.0946
     78  CD2      148.5010  -28.8770   26.1770 C.ar  219  TRP219      0.0152
     79  NE1      147.2450  -29.0880   24.3410 N.ar  219  TRP219     -0.2442
     80  CE2      148.5150  -28.8240   24.7710 C.ar  219  TRP219      0.0810
     81  CE3      149.6900  -28.6370   26.8720 C.ar  219  TRP219      0.0012
     82  CZ2      149.6770  -28.5370   24.0410 C.ar  219  TRP219      0.0191
     83  CZ3      150.8450  -28.3570   26.1430 C.ar  219  TRP219      0.0001
     84  CH2      150.8270  -28.3100   24.7460 C.ar  219  TRP219      0.0015
     85  N        147.9950  -27.4230   29.5140 N.am  220  GLY220     -0.1940
     86  CA       149.1020  -26.5260   29.8150 C.3   220  GLY220      0.2014
     87  C        150.0610  -27.1300   30.8340 C.2   220  GLY220      0.2639
     88  O        149.6360  -27.9070   31.6900 O.2   220  GLY220     -0.2714
     89  N        151.3480  -26.7840   30.7480 N.am  221  ARG221     -0.1963
     90  CA       152.3050  -27.1450   31.7970 C.3   221  ARG221      0.1729
     91  C        152.1870  -26.1210   32.9270 C.2   221  ARG221      0.2617
     92  O        152.4770  -24.9410   32.7520 O.2   221  ARG221     -0.2715
     93  CB       153.7400  -27.2250   31.2420 C.3   221  ARG221      0.0348
     94  CG       154.7940  -27.7200   32.2540 C.3   221  ARG221      0.0492
     95  CD       155.9850  -28.4840   31.6080 C.3   221  ARG221      0.2205
     96  NE       156.2450  -28.1650   30.1910 N.pl3 221  ARG221     -0.0865
     97  CZ       157.1270  -28.8120   29.4170 C.cat 221  ARG221      0.5346
     98  NH1      157.8490  -29.8210   29.9030 N.pl3 221  ARG221      0.1354
     99  NH2      157.2920  -28.4530   28.1480 N.pl3 221  ARG221      0.1354
    100  N        151.7220  -26.5850   34.0820 N.am  222  GLY222     -0.1940
    101  CA       151.4420  -25.7120   35.2030 C.3   222  GLY222      0.2014
    102  C        150.2190  -24.8490   34.9890 C.2   222  GLY222      0.2639
    103  O        149.4230  -25.0790   34.0820 O.2   222  GLY222     -0.2714
    104  N        150.0710  -23.8550   35.8600 N.am  223  CYS223     -0.1967
    105  CA       149.0260  -22.8440   35.7430 C.3   223  CYS223      0.1712
    106  C        149.6430  -21.4680   35.9660 C.2   223  CYS223      0.2296
    107  O        150.2710  -21.2300   36.9990 O.2   223  CYS223     -0.2864
    108  CB       147.9060  -23.0870   36.7550 C.3   223  CYS223      0.0983
    109  SG       147.1750  -24.7540   36.7250 S.3   223  CYS223     -0.0798
    110  N        154.8050  -20.1830   29.7860 N.3   228  LYS228     -0.1231
    111  CA       153.8980  -21.3280   29.5110 C.3   228  LYS228      0.1678
    112  C        152.3980  -21.0170   29.4230 C.2   228  LYS228      0.2434
    113  O        151.6850  -21.0290   30.4270 O.2   228  LYS228     -0.2733
    114  CB       154.0840  -22.4120   30.5770 C.3   228  LYS228      0.0284
    115  CG       154.7410  -23.6240   30.0240 C.3   228  LYS228      0.0035
    116  CD       156.2090  -23.3940   29.7260 C.3   228  LYS228      0.0206
    117  CE       156.9290  -24.7010   29.4740 C.3   228  LYS228      0.1093
    118  NZ       158.3300  -24.4840   29.0510 N.3   228  LYS228     -0.1314
    119  N        151.8960  -20.7810   28.2100 N.am  229  PRO229     -0.2718
    120  CA       150.4910  -20.3890   28.0650 C.3   229  PRO229      0.1535
    121  C        149.5000  -21.5490   28.1840 C.2   229  PRO229      0.2599
    122  O        149.8750  -22.7330   28.1710 O.2   229  PRO229     -0.2715
    123  CB       150.4450  -19.7900   26.6530 C.3   229  PRO229      0.0310
    124  CG       151.4890  -20.5080   25.9250 C.3   229  PRO229      0.0237
    125  CD       152.5870  -20.8340   26.9180 C.3   229  PRO229      0.0939
    126  N        148.2230  -21.1970   28.2770 N.am  230  GLY230     -0.1941
    127  CA       147.1760  -22.1890   28.2860 C.3   230  GLY230      0.2014
    128  C        146.9470  -22.6050   26.8460 C.2   230  GLY230      0.2639
    129  O        146.9820  -21.7590   25.9410 O.2   230  GLY230     -0.2714
    130  N        146.7390  -23.8970   26.6200 N.am  231  VAL231     -0.1963
    131  CA       146.4320  -24.3730   25.2830 C.3   231  VAL231      0.1727
    132  C        144.9550  -24.7620   25.1320 C.2   231  VAL231      0.2616
    133  O        144.3990  -25.4860   25.9630 O.2   231  VAL231     -0.2715
    134  CB       147.2930  -25.5570   24.9100 C.3   231  VAL231      0.0290
    135  CG1      147.1710  -25.8180   23.4270 C.3   231  VAL231      0.0023
    136  CG2      148.7390  -25.2910   25.2900 C.3   231  VAL231      0.0023
    137  N        144.3420  -24.2520   24.0660 N.am  232  TYR232     -0.1974
    138  CA       142.9230  -24.4270   23.7840 C.3   232  TYR232      0.1639
    139  C        142.6570  -25.1330   22.4520 C.2   232  TYR232      0.2290
    140  O        143.3900  -24.9300   21.4940 O.2   232  TYR232     -0.2864
    141  CB       142.2460  -23.0550   23.7750 C.3   232  TYR232      0.0560
    142  CG       142.4450  -22.2960   25.0620 C.ar  232  TYR232     -0.0198
    143  CD1      143.6560  -21.6680   25.3450 C.ar  232  TYR232     -0.0009
    144  CD2      141.4230  -22.2190   26.0050 C.ar  232  TYR232     -0.0009
    145  CE1      143.8440  -20.9900   26.5210 C.ar  232  TYR232      0.0417
    146  CE2      141.5960  -21.5520   27.1860 C.ar  232  TYR232      0.0417
    147  CZ       142.8120  -20.9340   27.4430 C.ar  232  TYR232      0.1957
    148  OH       142.9840  -20.2490   28.6200 O.3   232  TYR232     -0.2866
@<TRIPOS>BOND
     1   140   139    2
     2    14    13    2
     3    13    12    1
     4   139   138    1
     5   135   134    1
     6   141   138    1
     7   141   142    1
     8   138   137    1
     9    12    11    1
    10    12    15    1
    11    82    84   ar
    12    82    80   ar
    13   137   132   am
    14    79    80   ar
    15    79    77   ar
    16    15    16    1
    17    84    83   ar
    18    80    78   ar
    19   134   131    1
    20   134   136    1
    21    70    69    1
    22   142   143   ar
    23   142   144   ar
    24   132   131    1
    25   132   133    2
    26   131   130    1
    27   143   145   ar
    28    69    66    1
    29    77    76   ar
    30   124   123    1
    31   124   125    1
    32   129   128    2
    33   144   146   ar
    34    16    17   ar
    35    16    18   ar
    36    83    81   ar
    37    78    76   ar
    38    78    81   ar
    39    17    19   ar
    40   145   147   ar
    41     1     2    1
    42    76    75    1
    43   130   128   am
    44   123   120    1
    45    58    59    1
    46    66    65    1
    47    66    67    1
    48   128   127    1
    49   125   119    1
    50    18    20   ar
    51    65    60   am
    52   146   147   ar
    53   147   148    1
    54    60    59    1
    55    60    61    2
    56     2     5    1
    57     2     3    1
    58    59    62    1
    59    71    67   am
    60    71    72    1
    61     5     6    1
    62    67    68    2
    63    19    21   ar
    64    75    72    1
    65   120   121    1
    66   120   119    1
    67     7     6   ar
    68     7     9   ar
    69    99    97    1
    70   122   121    2
    71   121   126   am
    72   119   112   am
    73   126   127    1
    74    20    21   ar
    75    72    73    1
    76     6     8   ar
    77    74    73    2
    78    21    22    1
    79    73    85   am
    80     3     4    2
    81   118   117    1
    82     9    10   ar
    83    62    64    1
    84    62    63    1
    85    97    98    1
    86    97    96    2
    87   112   111    1
    88   112   113    2
    89   117   116    1
    90   111   110    1
    91   111   114    1
    92    85    86    1
    93   116   115    1
    94    86    87    1
    95     8    10   ar
    96   115   114    1
    97    96    95    1
    98    54    53    1
    99    54    55    2
   100    89    87   am
   101    89    90    1
   102    87    88    2
   103    53    56    1
   104    53    52    1
   105    36    35    1
   106    93    90    1
   107    93    94    1
   108    56    57    1
   109    29    28   ar
   110    95    94    1
   111    90    91    1
   112    35    32    1
   113    28    30   ar
   114    28    27    1
   115    92    91    2
   116    91   100   am
   117    31    32    1
   118    31    25   am
   119    32    33    1
   120    24    27    1
   121    24    25    1
   122    24    23    1
   123    34    33    2
   124    25    26    2
   125    33    37   am
   126   103   102    2
   127   100   101    1
   128    37    38    1
   129   102   101    1
   130   102   104   am
   131    40    39    2
   132    38    39    1
   133    38    41    1
   134    39    43   am
   135   105   104    1
   136   105   106    1
   137   105   108    1
   138   106   107    2
   139    43    44    1
   140    44    45    1
   141    44    47    1
   142   109   108    1
   143   109    42    1
   144    45    46    2
   145    41    42    1
   146    48    47    1
   147    48    49    1
   148    51    50    1
   149    50    49    1
