@<TRIPOS>MOLECULE
tmp/5lhqA00.pdb
 190 187 0 0 0
SMALL
GASTEIGER

@<TRIPOS>ATOM
      1  N        181.4960  214.1310  157.9320 N.3    32  CYS32      -0.1191
      2  CA       181.9540  214.9960  156.8440 C.3    32  CYS32       0.1849
      3  C        181.0010  216.1100  156.5300 C.2    32  CYS32       0.2311
      4  O        179.8640  216.1220  157.0060 O.2    32  CYS32      -0.2863
      5  CB       182.1560  214.2220  155.5370 C.2    32  CYS32       0.0422
      6  SG       183.7200  213.3550  155.3980 S.3    32  CYS32      -0.0573
      7  N        186.1700  209.7410  149.8980 N.3    47  HIS47      -0.1226
      8  CA       186.9750  209.2210  150.9840 C.3    47  HIS47       0.1752
      9  C        186.2480  209.2450  152.2790 C.2    47  HIS47       0.2596
     10  O        186.6490  208.6300  153.2210 O.2    47  HIS47      -0.2718
     11  CB       188.3630  209.8900  151.0810 C.3    47  HIS47       0.0759
     12  CG       188.3980  211.1770  151.8490 C.ar   47  HIS47       0.0818
     13  ND1      188.5720  212.3900  151.2410 N.ar   47  HIS47      -0.2268
     14  CD2      188.3250  211.4290  153.1670 C.ar   47  HIS47       0.1154
     15  CE1      188.5640  213.3380  152.1490 C.ar   47  HIS47       0.1986
     16  NE2      188.4190  212.7810  153.3280 N.ar   47  HIS47      -0.2212
     17  N        185.1590  209.9650  152.3130 N.am   48  CYS48      -0.1970
     18  CA       184.3540  210.0050  153.5200 C.3    48  CYS48       0.1712
     19  C        183.4950  208.7270  153.6400 C.2    48  CYS48       0.2296
     20  O        182.9620  208.4200  154.7140 O.2    48  CYS48      -0.2864
     21  CB       183.4320  211.2110  153.5240 C.3    48  CYS48       0.0986
     22  SG       184.2740  212.7550  153.5590 S.3    48  CYS48      -0.0757
     23  N        199.7630  210.1660  149.0590 N.3    93  LEU93      -0.1245
     24  CA       199.3760  211.2980  149.8970 C.3    93  LEU93       0.1561
     25  C        198.0760  211.8950  149.3580 C.2    93  LEU93       0.2260
     26  O        197.2300  212.3490  150.1220 O.2    93  LEU93      -0.2867
     27  CB       200.4800  212.3570  149.9330 C.3    93  LEU93       0.0270
     28  CG       200.2780  213.7200  150.6080 C.3    93  LEU93       0.0019
     29  CD1      199.9470  213.6140  152.1110 C.3    93  LEU93       0.0001
     30  CD2      201.4890  214.6390  150.3860 C.3    93  LEU93       0.0001
     31  N        194.3510  211.8910  147.1460 N.3    95  TYR95      -0.1241
     32  CA       193.1930  211.1370  146.6970 C.3    95  TYR95       0.1605
     33  C        192.8700  211.5210  145.2750 C.2    95  TYR95       0.2264
     34  O        192.9650  212.6790  144.9040 O.2    95  TYR95      -0.2867
     35  CB       191.9800  211.3910  147.6090 C.3    95  TYR95       0.0534
     36  CG       192.1020  210.9300  149.0430 C.ar   95  TYR95      -0.0201
     37  CD1      192.1280  209.5780  149.3470 C.ar   95  TYR95      -0.0009
     38  CD2      192.3180  211.8160  150.0620 C.ar   95  TYR95      -0.0009
     39  CE1      192.2570  209.1320  150.6450 C.ar   95  TYR95       0.0417
     40  CE2      192.4680  211.3830  151.3560 C.ar   95  TYR95       0.0417
     41  CZ       192.4480  210.0440  151.6500 C.ar   95  TYR95       0.1957
     42  OH       192.5940  209.6260  152.9630 O.3    95  TYR95      -0.2866
     43  N        188.3530  219.8400  162.8350 N.3   143  LYS143     -0.1245
     44  CA       189.2370  220.2800  163.9250 C.3   143  LYS143      0.1561
     45  C        189.7010  221.7420  163.8020 C.2   143  LYS143      0.2260
     46  O        189.8120  222.2510  162.6900 O.2   143  LYS143     -0.2867
     47  CB       190.4610  219.3670  163.9740 C.3   143  LYS143      0.0271
     48  CG       190.1190  217.9020  164.0240 C.3   143  LYS143      0.0035
     49  CD       191.3750  217.0580  164.0230 C.3   143  LYS143      0.0206
     50  CE       191.0440  215.5760  164.0500 C.3   143  LYS143      0.1093
     51  NZ       192.2940  214.7890  164.0650 N.3   143  LYS143     -0.1314
     52  N        195.4250  220.8360  163.9550 N.3   146  GLU146     -0.1245
     53  CA       195.6580  219.5160  163.3510 C.3   146  GLU146      0.1567
     54  C        195.8280  218.5890  164.5590 C.2   146  GLU146      0.2260
     55  O        195.2070  217.5290  164.6490 O.2   146  GLU146     -0.2867
     56  CB       196.8620  219.4660  162.3920 C.3   146  GLU146      0.0388
     57  CG       198.0850  220.2900  162.7850 C.3   146  GLU146      0.1160
     58  CD       199.2390  220.1320  161.7970 C.2   146  GLU146      0.3649
     59  OE1      199.2220  219.1600  161.0110 O.co2 146  GLU146     -0.2457
     60  OE2      200.1450  220.9970  161.7840 O.co2 146  GLU146     -0.2457
     61  N        204.0370  220.0530  147.0190 N.3   174  TYR174     -0.1241
     62  CA       203.4400  218.7400  146.8490 C.3   174  TYR174      0.1605
     63  C        204.0490  218.0500  145.6420 C.2   174  TYR174      0.2264
     64  O        203.7750  216.8720  145.3730 O.2   174  TYR174     -0.2867
     65  CB       201.9170  218.8860  146.6960 C.3   174  TYR174      0.0534
     66  CG       201.1540  219.1800  147.9770 C.ar  174  TYR174     -0.0201
     67  CD1      201.4010  218.4630  149.1520 C.ar  174  TYR174     -0.0009
     68  CD2      200.2810  220.2670  148.0420 C.ar  174  TYR174     -0.0009
     69  CE1      200.7230  218.7580  150.3220 C.ar  174  TYR174      0.0417
     70  CE2      199.6140  220.5890  149.2070 C.ar  174  TYR174      0.0417
     71  CZ       199.8300  219.8220  150.3430 C.ar  174  TYR174      0.1957
     72  OH       199.1500  220.1250  151.4950 O.3   174  TYR174     -0.2866
     73  N        193.0170  227.5110  157.3260 N.3   193  ASP193     -0.1225
     74  CA       192.9540  226.3300  156.4460 C.3   193  ASP193      0.1805
     75  C        191.8060  225.4140  156.8890 C.2   193  ASP193      0.2598
     76  O        191.3140  225.5350  158.0110 O.2   193  ASP193     -0.2718
     77  CB       194.3030  225.5870  156.4300 C.3   193  ASP193      0.1424
     78  CG       194.3670  224.4790  155.3650 C.2   193  ASP193      0.3668
     79  OD1      193.4630  224.4030  154.5010 O.co2 193  ASP193     -0.2456
     80  OD2      195.3670  223.7260  155.3270 O.co2 193  ASP193     -0.2456
     81  N        191.4050  224.4820  156.0280 N.am  194  SER194     -0.1938
     82  CA       190.4560  223.4390  156.4060 C.3   194  SER194      0.2055
     83  C        191.2280  222.2830  157.0350 C.2   194  SER194      0.2643
     84  O        192.4500  222.2220  156.9300 O.2   194  SER194     -0.2714
     85  CB       189.6120  222.9900  155.2020 C.3   194  SER194      0.2130
     86  OG       190.3830  222.5440  154.0930 O.3   194  SER194     -0.2179
     87  N        190.5490  221.4210  157.7710 N.am  195  CYS195     -0.1953
     88  CA       191.2590  220.3680  158.4800 C.3   195  CYS195      0.1843
     89  C        190.4190  219.0710  158.5120 C.2   195  CYS195      0.2625
     90  O        189.3810  218.9920  157.8470 O.2   195  CYS195     -0.2714
     91  CB       191.6420  220.8780  159.8810 C.3   195  CYS195      0.0997
     92  SG       192.9410  219.9590  160.6870 S.3   195  CYS195     -0.0797
     93  N        190.8590  218.0660  159.2740 N.am  196  LYS196     -0.1963
     94  CA       190.1570  216.7780  159.3770 C.3   196  LYS196      0.1728
     95  C        188.7180  217.0090  159.7900 C.2   196  LYS196      0.2616
     96  O        188.4540  217.7860  160.7260 O.2   196  LYS196     -0.2715
     97  CB       190.8590  215.8780  160.4080 C.3   196  LYS196      0.0311
     98  CG       190.5490  214.3790  160.3500 C.3   196  LYS196      0.0038
     99  CD       190.1660  213.9250  158.9520 C.3   196  LYS196      0.0206
    100  CE       189.6130  212.4870  158.9340 C.3   196  LYS196      0.1093
    101  NZ       190.5820  211.4770  159.4390 N.3   196  LYS196     -0.1314
    102  N        187.7840  216.4780  158.9950 N.am  197  GLY197     -0.1955
    103  CA       186.3940  216.7110  159.3250 C.3   197  GLY197      0.1869
    104  C        185.7540  217.7640  158.4330 C.2   197  GLY197      0.2309
    105  O        184.5420  217.9540  158.4780 O.2   197  GLY197     -0.2863
    106  N        186.1360  217.3420  154.8440 N.3   199  SER199     -0.1217
    107  CA       185.9720  216.6790  153.5740 C.3   199  SER199      0.1889
    108  C        184.5420  216.6240  153.0550 C.2   199  SER199      0.2288
    109  O        183.6500  216.3790  153.8140 O.2   199  SER199     -0.2866
    110  CB       186.6490  215.3230  153.6290 C.3   199  SER199      0.2089
    111  OG       188.0540  215.4270  153.4810 O.3   199  SER199     -0.2183
    112  N        186.5440  219.8460  149.7770 N.3   217  VAL217     -0.1231
    113  CA       187.6570  219.5490  150.6860 C.3   217  VAL217      0.1692
    114  C        188.0970  218.0920  150.5580 C.2   217  VAL217      0.2593
    115  O        187.2490  217.2030  150.6110 O.2   217  VAL217     -0.2718
    116  CB       187.3140  219.8680  152.1700 C.3   217  VAL217      0.0266
    117  CG1      188.4660  219.4910  153.0500 C.3   217  VAL217      0.0020
    118  CG2      187.0120  221.3380  152.3450 C.3   217  VAL217      0.0020
    119  N        189.3400  217.8750  150.1210 N.am  218  SER218     -0.1938
    120  CA       189.8310  216.5290  149.9380 C.3   218  SER218      0.2055
    121  C        191.0680  216.0650  150.7730 C.2   218  SER218      0.2643
    122  O        191.0220  215.0160  151.4390 O.2   218  SER218     -0.2714
    123  CB       190.1790  216.3780  148.4610 C.3   218  SER218      0.2130
    124  OG       190.6160  215.0510  148.1500 O.3   218  SER218     -0.2179
    125  N        192.0970  216.8990  150.8920 N.am  219  TRP219     -0.1959
    126  CA       193.2970  216.4840  151.6350 C.3   219  TRP219      0.1771
    127  C        194.3350  217.5900  151.8340 C.2   219  TRP219      0.2620
    128  O        194.1970  218.7070  151.3490 O.2   219  TRP219     -0.2715
    129  CB       194.0350  215.3160  150.9890 C.3   219  TRP219      0.0590
    130  CG       194.5480  215.5040  149.6140 C.ar  219  TRP219      0.0006
    131  CD1      193.8580  215.4040  148.4540 C.ar  219  TRP219      0.0946
    132  CD2      195.9060  215.8400  149.2530 C.ar  219  TRP219      0.0152
    133  NE1      194.6960  215.6270  147.3770 N.ar  219  TRP219     -0.2442
    134  CE2      195.9560  215.9130  147.8370 C.ar  219  TRP219      0.0810
    135  CE3      197.0830  216.0810  149.9900 C.ar  219  TRP219      0.0012
    136  CZ2      197.1390  216.2150  147.1340 C.ar  219  TRP219      0.0191
    137  CZ3      198.2680  216.3690  149.2910 C.ar  219  TRP219      0.0001
    138  CH2      198.2810  216.4430  147.8780 C.ar  219  TRP219      0.0015
    139  N        195.4320  217.2200  152.4710 N.am  220  GLY220     -0.1940
    140  CA       196.4860  218.1650  152.7470 C.3   220  GLY220      0.2014
    141  C        197.4600  217.6090  153.7580 C.2   220  GLY220      0.2639
    142  O        197.0540  216.8280  154.6130 O.2   220  GLY220     -0.2714
    143  N        198.7440  217.9500  153.6360 N.am  221  ARG221     -0.1963
    144  CA       199.7290  217.4980  154.6180 C.3   221  ARG221      0.1729
    145  C        199.5990  218.4390  155.8060 C.2   221  ARG221      0.2617
    146  O        199.8620  219.6320  155.6920 O.2   221  ARG221     -0.2715
    147  CB       201.1590  217.5440  154.0600 C.3   221  ARG221      0.0348
    148  CG       202.2460  217.0720  155.0280 C.3   221  ARG221      0.0492
    149  CD       203.0180  215.9080  154.4410 C.3   221  ARG221      0.2205
    150  NE       202.3200  214.6480  154.6900 N.pl3 221  ARG221     -0.0865
    151  CZ       202.8690  213.4440  154.5780 C.cat 221  ARG221      0.5346
    152  NH1      204.1260  213.3340  154.1680 N.pl3 221  ARG221      0.1354
    153  NH2      202.1450  212.3550  154.8410 N.pl3 221  ARG221      0.1354
    154  N        199.1030  217.9160  156.9240 N.am  222  GLY222     -0.1940
    155  CA       198.8360  218.7620  158.0620 C.3   222  GLY222      0.2014
    156  C        197.6480  219.6510  157.8130 C.2   222  GLY222      0.2639
    157  O        196.8480  219.3830  156.9300 O.2   222  GLY222     -0.2714
    158  N        197.4880  220.6550  158.6660 N.am  223  CYS223     -0.1967
    159  CA       196.4350  221.6560  158.5200 C.3   223  CYS223      0.1712
    160  C        197.0730  223.0420  158.7480 C.2   223  CYS223      0.2296
    161  O        197.6990  223.2970  159.7790 O.2   223  CYS223     -0.2864
    162  CB       195.2820  221.3950  159.4870 C.3   223  CYS223      0.0983
    163  SG       194.4460  219.7590  159.2960 S.3   223  CYS223     -0.0798
    164  N        202.1690  224.0080  152.5060 N.3   228  LYS228     -0.1231
    165  CA       201.2230  222.9090  152.3610 C.3   228  LYS228      0.1678
    166  C        199.7850  223.4160  152.3550 C.2   228  LYS228      0.2434
    167  O        199.1390  223.4920  153.4000 O.2   228  LYS228     -0.2733
    168  CB       201.4150  221.8850  153.4810 C.3   228  LYS228      0.0284
    169  CG       202.1970  220.6500  153.0660 C.3   228  LYS228      0.0035
    170  CD       203.6740  220.9650  152.8890 C.3   228  LYS228      0.0206
    171  CE       204.3180  220.0380  151.8720 C.3   228  LYS228      0.1093
    172  NZ       205.7940  219.9510  152.0560 N.3   228  LYS228     -0.1314
    173  N        199.2890  223.7610  151.1710 N.am  229  PRO229     -0.2718
    174  CA       197.9250  224.2620  151.0270 C.3   229  PRO229      0.1535
    175  C        196.9160  223.1220  151.1450 C.2   229  PRO229      0.2599
    176  O        197.2610  221.9570  150.9280 O.2   229  PRO229     -0.2715
    177  CB       197.9390  224.9020  149.6340 C.3   229  PRO229      0.0310
    178  CG       198.9850  224.1250  148.8850 C.3   229  PRO229      0.0237
    179  CD       200.0500  223.7930  149.9120 C.3   229  PRO229      0.0939
    180  N        195.6700  223.4550  151.4490 N.am  230  GLY230     -0.1941
    181  CA       194.6350  222.4570  151.4090 C.3   230  GLY230      0.2014
    182  C        194.3800  222.1030  149.9560 C.2   230  GLY230      0.2638
    183  O        194.4140  222.9730  149.0650 O.2   230  GLY230     -0.2714
    184  N        194.1420  220.8140  149.7080 N.am  231  VAL231     -0.1977
    185  CA       193.8500  220.3760  148.3630 C.3   231  VAL231      0.1596
    186  C        192.3850  220.0490  148.2610 C.2   231  VAL231      0.2287
    187  O        191.7930  219.4970  149.1820 O.2   231  VAL231     -0.2864
    188  CB       194.6850  219.1500  147.9600 C.3   231  VAL231      0.0276
    189  CG1      194.5800  218.9050  146.4680 C.3   231  VAL231      0.0022
    190  CG2      196.1400  219.3040  148.4070 C.3   231  VAL231      0.0022
@<TRIPOS>BOND
     1    34    33    2
     2    33    32    1
     3    64    63    2
     4    63    62    1
     5   189   188    1
     6    65    62    1
     7    65    66    1
     8    32    31    1
     9    32    35    1
    10    62    61    1
    11   136   134   ar
    12   136   138   ar
    13   133   134   ar
    14   133   131   ar
    15    35    36    1
    16   134   132   ar
    17   138   137   ar
    18   188   185    1
    19   188   190    1
    20    66    68   ar
    21    66    67   ar
    22    68    70   ar
    23   124   123    1
    24   186   185    1
    25   186   187    2
    26   185   184    1
    27   131   130   ar
    28   123   120    1
    29   178   177    1
    30   178   179    1
    31    36    37   ar
    32    36    38   ar
    33    23    24    1
    34   183   182    2
    35    67    69   ar
    36    70    71   ar
    37   132   130   ar
    38   132   135   ar
    39   137   135   ar
    40    37    39   ar
    41    25    24    1
    42    25    26    2
    43   130   129    1
    44   177   174    1
    45   184   182   am
    46   112   113    1
    47    24    27    1
    48     7     8    1
    49   179   173    1
    50    27    28    1
    51   120   119    1
    52   120   121    1
    53   182   181    1
    54    38    40   ar
    55   119   114   am
    56    69    71   ar
    57    71    72    1
    58    30    28    1
    59   114   115    2
    60   114   113    1
    61    28    29    1
    62    39    41   ar
    63   113   116    1
    64   121   125   am
    65   121   122    2
    66   125   126    1
    67   176   175    2
    68     8    11    1
    69     8     9    1
    70   129   126    1
    71   174   175    1
    72   174   173    1
    73    11    12    1
    74   175   180   am
    75   173   166   am
    76    13    12   ar
    77    13    15   ar
    78   128   127    2
    79    40    41   ar
    80   181   180    1
    81   126   127    1
    82    41    42    1
    83   127   139   am
    84    12    14   ar
    85   171   172    1
    86   171   170    1
    87    15    16   ar
    88   116   118    1
    89   116   117    1
    90     9    17   am
    91     9    10    2
    92    17    18    1
    93   166   165    1
    94   166   167    2
    95   165   164    1
    96   165   168    1
    97   139   140    1
    98   140   141    1
    99   170   169    1
   100   108   107    1
   101   108   109    2
   102   169   168    1
   103    14    16   ar
   104   111   110    1
   105    18    21    1
   106    18    19    1
   107    21    22    1
   108    22     6    1
   109   107   110    1
   110   107   106    1
   111   143   141   am
   112   143   144    1
   113    19    20    2
   114   141   142    2
   115   147   144    1
   116   147   148    1
   117    86    85    1
   118   152   151    1
   119   149   150    1
   120   149   148    1
   121    79    78   ar
   122   151   150    2
   123   151   153    1
   124   144   145    1
   125    85    82    1
   126    80    78   ar
   127    78    77    1
   128     6     5    2
   129     5     2    1
   130   146   145    2
   131   145   154   am
   132    81    82    1
   133    81    75   am
   134    82    83    1
   135    77    74    1
   136    74    75    1
   137    74    73    1
   138     3     2    1
   139     3     4    2
   140     2     1    1
   141    75    76    2
   142   154   155    1
   143    84    83    2
   144   157   156    2
   145    83    87   am
   146    87    88    1
   147   156   155    1
   148   156   158   am
   149    90    89    2
   150   104   105    2
   151   104   103    1
   152    88    89    1
   153    88    91    1
   154    89    93   am
   155   159   158    1
   156   159   160    1
   157   159   162    1
   158   160   161    2
   159   100    99    1
   160   100   101    1
   161    99    98    1
   162   102   103    1
   163   102    95   am
   164    93    94    1
   165   163   162    1
   166   163    92    1
   167    94    95    1
   168    94    97    1
   169    95    96    2
   170    91    92    1
   171    98    97    1
   172    59    58   ar
   173    60    58   ar
   174    58    57    1
   175    56    57    1
   176    56    53    1
   177    46    45    2
   178    43    44    1
   179    53    52    1
   180    53    54    1
   181    45    44    1
   182    44    47    1
   183    47    48    1
   184    49    48    1
   185    49    50    1
   186    50    51    1
   187    54    55    2
