@<TRIPOS>MOLECULE
tmp/5lhvC00.pdb
 140 132 0 0 0
SMALL
GASTEIGER

@<TRIPOS>ATOM
      1  N         -2.2490   -0.8520   31.3540 N.3    23  GLY23      -0.1225
      2  CA        -1.3050   -1.7380   30.6750 C.3    23  GLY23       0.1811
      3  C         -0.5870   -2.6430   31.6540 C.2    23  GLY23       0.2280
      4  O         -0.3520   -3.8190   31.3600 O.2    23  GLY23      -0.2866
      5  N         -1.2940   -5.7820   29.3020 N.3    65  GLY65      -0.1210
      6  CA         0.0670   -5.8390   28.8040 C.3    65  GLY65       0.1956
      7  C          0.3890   -4.6940   27.8450 C.2    65  GLY65       0.2611
      8  O         -0.4720   -3.8500   27.5270 O.2    65  GLY65      -0.2717
      9  N          1.6520   -4.6450   27.4020 N.am   66  ILE66      -0.1979
     10  CA         2.0900   -3.6690   26.3910 C.3    66  ILE66       0.1595
     11  C          1.6970   -4.1480   25.0040 C.2    66  ILE66       0.2287
     12  O          2.0290   -5.2660   24.6050 O.2    66  ILE66      -0.2864
     13  CB         3.6120   -3.4240   26.4710 C.3    66  ILE66       0.0276
     14  CG1        4.0100   -2.8720   27.8440 C.3    66  ILE66       0.0022
     15  CG2        4.1030   -2.5670   25.3040 C.3    66  ILE66       0.0022
     16  CD1        5.5350   -2.8650   27.9960 C.3    66  ILE66       0.0001
     17  N         -9.2260    2.7550   29.0660 N.3    88  ARG88      -0.1245
     18  CA        -7.7820    2.5770   29.2290 C.3    88  ARG88       0.1563
     19  C         -7.2060    3.7330   30.0460 C.2    88  ARG88       0.2260
     20  O         -7.5010    4.9250   29.7850 O.2    88  ARG88      -0.2867
     21  CB        -7.0980    2.4780   27.8560 C.3    88  ARG88       0.0307
     22  CG        -5.5690    2.6310   27.9400 C.3    88  ARG88       0.0489
     23  CD        -4.8420    2.1610   26.6560 C.3    88  ARG88       0.2205
     24  NE        -3.5700    2.8480   26.5520 N.pl3  88  ARG88      -0.0865
     25  CZ        -2.5530    2.7240   27.3940 C.cat  88  ARG88       0.5346
     26  NH1       -2.5690    1.7970   28.3700 N.pl3  88  ARG88       0.1354
     27  NH2       -1.5070    3.5190   27.2350 N.pl3  88  ARG88       0.1354
     28  N          0.3030    5.3390   30.5850 N.3    91  THR91      -0.1203
     29  CA         1.4110    6.2840   30.6860 C.3    91  THR91       0.1994
     30  C          1.8060    6.6540   29.2710 C.2    91  THR91       0.2619
     31  O          1.5200    5.8970   28.3230 O.2    91  THR91      -0.2717
     32  CB         2.6200    5.6740   31.4220 C.3    91  THR91       0.1784
     33  OG1        3.0730    4.4780   30.7220 O.3    91  THR91      -0.2211
     34  CG2        2.2630    5.3610   32.8990 C.3    91  THR91       0.0376
     35  N          2.4790    7.8150   29.1320 N.am   92  THR92      -0.1938
     36  CA         2.6650    8.3440   27.7950 C.3    92  THR92       0.2028
     37  C          3.8340    9.3100   27.7580 C.2    92  THR92       0.2642
     38  O          4.1620    9.9500   28.7470 O.2    92  THR92      -0.2714
     39  CB         1.3980    9.0350   27.2730 C.3    92  THR92       0.1808
     40  OG1        1.5640    9.3820   25.9000 O.3    92  THR92      -0.2208
     41  CG2        1.0550   10.3640   28.0280 C.3    92  THR92       0.0379
     42  N          4.4130    9.4460   26.5600 N.am   93  GLY93      -0.1954
     43  CA         5.4860   10.4090   26.3280 C.3    93  GLY93       0.1869
     44  C          4.9510   11.5900   25.5490 C.2    93  GLY93       0.2309
     45  O          4.4560   11.3970   24.4280 O.2    93  GLY93      -0.2863
     46  N          8.3360    0.7820   21.2420 N.3   159  PHE159     -0.1241
     47  CA         8.7550    1.8570   22.1210 C.3   159  PHE159      0.1605
     48  C          9.9310    2.6010   21.5170 C.2   159  PHE159      0.2264
     49  O         10.1140    3.7970   21.7850 O.2   159  PHE159     -0.2867
     50  CB         9.1980    1.2230   23.4500 C.3   159  PHE159      0.0534
     51  CG         9.4760    2.2260   24.5400 C.ar  159  PHE159     -0.0203
     52  CD1        8.4350    2.7440   25.3200 C.ar  159  PHE159     -0.0042
     53  CD2       10.7610    2.6650   24.8120 C.ar  159  PHE159     -0.0042
     54  CE1        8.7230    3.6490   26.3860 C.ar  159  PHE159     -0.0003
     55  CE2       11.0320    3.5550   25.8440 C.ar  159  PHE159     -0.0003
     56  CZ        10.0180    4.0330   26.6240 C.ar  159  PHE159     -0.0000
     57  N          8.8530    5.3030   17.9090 N.3   163  GLN163     -0.1245
     58  CA         8.8050    6.5970   18.5960 C.3   163  GLN163      0.1566
     59  C         10.0500    7.4210   18.2600 C.2   163  GLN163      0.2260
     60  O         10.4030    8.3780   18.9750 O.2   163  GLN163     -0.2867
     61  CB         8.6230    6.3530   20.0950 C.3   163  GLN163      0.0367
     62  CG         7.3610    5.5260   20.3560 C.3   163  GLN163      0.0905
     63  CD         6.9240    5.4320   21.8170 C.2   163  GLN163      0.2608
     64  OE1        7.2170    6.3130   22.6240 O.2   163  GLN163     -0.2717
     65  NE2        6.2120    4.3660   22.1390 N.am  163  GLN163     -0.0878
     66  N         13.2030    6.8500   18.6410 N.3   165  ARG165     -0.1245
     67  CA        14.3170    6.8130   19.5790 C.3   165  ARG165      0.1563
     68  C         15.5830    6.3010   18.8840 C.2   165  ARG165      0.2260
     69  O         15.5350    5.2740   18.2110 O.2   165  ARG165     -0.2867
     70  CB        13.9530    5.9250   20.7790 C.3   165  ARG165      0.0307
     71  CG        12.9640    6.5550   21.7130 C.3   165  ARG165      0.0489
     72  CD        12.8200    5.6940   23.0030 C.3   165  ARG165      0.2205
     73  NE        12.2760    6.5020   24.1260 N.pl3 165  ARG165     -0.0865
     74  CZ        10.9780    6.7030   24.3200 C.cat 165  ARG165      0.5346
     75  NH1       10.1080    6.1180   23.5130 N.pl3 165  ARG165      0.1354
     76  NH2       10.5320    7.4880   25.2900 N.pl3 165  ARG165      0.1354
     77  N          3.0360    9.9690   22.4080 N.3   192  PHE192     -0.1227
     78  CA         3.1680    8.5760   22.0130 C.3   192  PHE192      0.1736
     79  C          2.6880    7.6430   23.1260 C.2   192  PHE192      0.2595
     80  O          3.0210    7.8150   24.3160 O.2   192  PHE192     -0.2718
     81  CB         4.6320    8.2060   21.7970 C.3   192  PHE192      0.0547
     82  CG         5.2580    8.6850   20.4780 C.ar  192  PHE192     -0.0202
     83  CD1        4.8170    8.1880   19.2610 C.ar  192  PHE192     -0.0042
     84  CD2        6.3320    9.5970   20.4840 C.ar  192  PHE192     -0.0042
     85  CE1        5.4640    8.5790   18.0300 C.ar  192  PHE192     -0.0003
     86  CE2        6.9690    9.9820   19.2620 C.ar  192  PHE192     -0.0003
     87  CZ         6.5080    9.4410   18.0530 C.ar  192  PHE192     -0.0000
     88  N          1.9860    6.5780   22.7330 N.am  193  GLU193     -0.1965
     89  CA         1.7840    5.4040   23.5720 C.3   193  GLU193      0.1733
     90  C          1.6360    4.1820   22.6740 C.2   193  GLU193      0.2616
     91  O          1.9190    4.2480   21.4750 O.2   193  GLU193     -0.2715
     92  CB         0.7180    5.6360   24.6610 C.3   193  GLU193      0.0429
     93  CG        -0.6270    5.9830   24.1270 C.3   193  GLU193      0.1163
     94  CD        -1.3470    4.8260   23.4850 C.2   193  GLU193      0.3649
     95  OE1       -1.4150    4.8400   22.2320 O.co2 193  GLU193     -0.2457
     96  OE2       -1.8500    3.9270   24.2070 O.co2 193  GLU193     -0.2457
     97  N          1.2190    3.0500   23.2470 N.am  194  MET194     -0.1963
     98  CA         1.3580    1.7880   22.5360 C.3   194  MET194      0.1736
     99  C          0.1160    0.9100   22.4740 C.2   194  MET194      0.2616
    100  O          0.2380   -0.2420   22.0220 O.2   194  MET194     -0.2715
    101  CB         2.5690    0.9710   23.0540 C.3   194  MET194      0.0427
    102  CG         3.8800    1.7140   22.9330 C.3   194  MET194      0.0599
    103  SD         5.2850    0.7770   23.4720 S.3   194  MET194     -0.1393
    104  CE         5.1610   -0.6300   22.3520 C.3   194  MET194      0.0692
    105  N         -1.0720    1.3790   22.9140 N.am  195  GLU195     -0.1977
    106  CA        -2.2790    0.5360   22.8430 C.3   195  GLU195      0.1602
    107  C         -3.5020    1.2100   22.2500 C.2   195  GLU195      0.2287
    108  O         -4.4300    0.5050   21.8630 O.2   195  GLU195     -0.2864
    109  CB        -2.6970   -0.0050   24.2310 C.3   195  GLU195      0.0415
    110  CG        -1.6900   -0.9410   24.8930 C.3   195  GLU195      0.1163
    111  CD        -0.5320   -0.2190   25.5460 C.2   195  GLU195      0.3649
    112  OE1       -0.7640    0.8600   26.1090 O.co2 195  GLU195     -0.2457
    113  OE2        0.6090   -0.7430   25.5600 O.co2 195  GLU195     -0.2457
    114  N          4.5400   10.8740   31.5760 N.3   217  ILE217     -0.1231
    115  CA         5.7040   10.5010   32.3870 C.3   217  ILE217      0.1692
    116  C          7.0300   10.9630   31.7890 C.2   217  ILE217      0.2591
    117  O          8.0630   10.9170   32.4840 O.2   217  ILE217     -0.2718
    118  CB         5.7330    8.9810   32.6940 C.3   217  ILE217      0.0266
    119  CG1        5.9810    8.1310   31.4130 C.3   217  ILE217      0.0019
    120  CG2        4.4320    8.5840   33.3410 C.3   217  ILE217      0.0020
    121  CD1        6.3590    6.6950   31.6940 C.3   217  ILE217      0.0001
    122  N          7.0410   11.4250   30.5400 N.am  218  ILE218     -0.1980
    123  CA         8.2520   11.9820   29.9580 C.3   218  ILE218      0.1595
    124  C          7.8170   12.9740   28.8920 C.2   218  ILE218      0.2287
    125  O          6.7380   12.8390   28.3120 O.2   218  ILE218     -0.2864
    126  CB         9.2270   10.8940   29.4460 C.3   218  ILE218      0.0276
    127  CG1       10.6710   11.4370   29.4270 C.3   218  ILE218      0.0022
    128  CG2        8.8070   10.3610   28.1340 C.3   218  ILE218      0.0022
    129  CD1       11.2940   11.6090   30.8440 C.3   218  ILE218      0.0001
    130  N          9.4890   14.4030   25.4880 N.3   220  ARG220     -0.1245
    131  CA        10.5920   14.1590   24.5610 C.3   220  ARG220      0.1563
    132  C         11.3400   15.4360   24.1630 C.2   220  ARG220      0.2260
    133  O         12.3980   15.3350   23.5150 O.2   220  ARG220     -0.2867
    134  CB        10.0470   13.4350   23.3310 C.3   220  ARG220      0.0307
    135  CG         9.4810   12.0300   23.6500 C.3   220  ARG220      0.0489
    136  CD        10.6250   11.0160   23.9150 C.3   220  ARG220      0.2205
    137  NE        11.5510   10.9220   22.7800 N.pl3 220  ARG220     -0.0865
    138  CZ        11.3220   10.1650   21.7060 C.cat 220  ARG220      0.5346
    139  NH1       12.2040   10.1210   20.7060 N.pl3 220  ARG220      0.1354
    140  NH2       10.2190    9.4640   21.6450 N.pl3 220  ARG220      0.1354
@<TRIPOS>BOND
     1    57    58    1
     2    85    87   ar
     3    85    83   ar
     4    87    86   ar
     5    69    68    2
     6    59    58    1
     7    59    60    2
     8    58    61    1
     9    66    67    1
    10    68    67    1
    11    83    82   ar
    12    86    84   ar
    13    67    70    1
    14    61    62    1
    15    62    63    1
    16    82    84   ar
    17    82    81    1
    18   139   138    1
    19    70    71    1
    20    46    47    1
    21    91    90    2
    22    48    49    2
    23    48    47    1
    24   140   138    1
    25   138   137    2
    26    71    72    1
    27    81    78    1
    28    63    65   am
    29    63    64    2
    30   108   107    2
    31    78    77    1
    32    78    79    1
    33   100    99    2
    34    47    50    1
    35    95    94   ar
    36   107   106    1
    37   104   103    1
    38    99    98    1
    39    99   105   am
    40    98   101    1
    41    98    97    1
    42    90    97   am
    43    90    89    1
    44    88    79   am
    45    88    89    1
    46   137   136    1
    47   106   105    1
    48   106   109    1
    49   102   101    1
    50   102   103    1
    51    72    73    1
    52    79    80    2
    53   134   135    1
    54   134   131    1
    55    50    51    1
    56    94    93    1
    57    94    96   ar
    58    75    74    1
    59   133   132    2
    60    89    92    1
    61   135   136    1
    62    73    74    2
    63    93    92    1
    64   132   131    1
    65   109   110    1
    66    74    76    1
    67    45    44    2
    68    51    53   ar
    69    51    52   ar
    70   131   130    1
    71    12    11    2
    72    53    55   ar
    73   110   111    1
    74    11    10    1
    75    15    13    1
    76    52    54   ar
    77   111   113   ar
    78   111   112   ar
    79    44    43    1
    80    55    56   ar
    81    40    39    1
    82    43    42    1
    83    54    56   ar
    84    10    13    1
    85    10     9    1
    86    13    14    1
    87    24    23    1
    88    24    25    2
    89    42    37   am
    90    23    22    1
    91    27    25    1
    92    39    36    1
    93    39    41    1
    94    25    26    1
    95     9     7   am
    96     8     7    2
    97    37    36    1
    98    37    38    2
    99    36    35    1
   100    14    16    1
   101     7     6    1
   102    21    22    1
   103    21    18    1
   104   128   126    1
   105   125   124    2
   106    31    30    2
   107     6     5    1
   108   124   123    1
   109    17    18    1
   110    35    30   am
   111    18    19    1
   112    30    29    1
   113   127   126    1
   114   127   129    1
   115   126   123    1
   116    20    19    2
   117   123   122    1
   118   122   116   am
   119    28    29    1
   120     2     1    1
   121     2     3    1
   122    29    32    1
   123    33    32    1
   124     4     3    2
   125   119   121    1
   126   119   118    1
   127    32    34    1
   128   114   115    1
   129   116   115    1
   130   116   117    2
   131   115   118    1
   132   118   120    1
