@<TRIPOS>MOLECULE
tmp/5li1A00.pdb
 206 198 0 0 0
SMALL
GASTEIGER

@<TRIPOS>ATOM
      1  N        -11.8080   -1.0880   11.1050 N.3    15  ILE15      -0.1231
      2  CA       -12.2320   -2.4670   11.3610 C.3    15  ILE15       0.1696
      3  C        -13.3250   -2.9800   10.4140 C.2    15  ILE15       0.2632
      4  O        -13.6170   -4.1740   10.4050 O.2    15  ILE15      -0.2714
      5  CB       -12.6630   -2.7090   12.8360 C.3    15  ILE15       0.0266
      6  CG1      -13.8930   -1.8650   13.2110 C.3    15  ILE15       0.0019
      7  CG2      -11.4950   -2.4430   13.7920 C.3    15  ILE15       0.0020
      8  CD1      -14.3390   -2.0590   14.6940 C.3    15  ILE15       0.0001
      9  N        -13.9140   -2.0910    9.6180 N.am   16  GLY16      -0.1718
     10  CA       -14.9560   -2.5020    8.6940 C.2    16  GLY16       0.1480
     11  C        -15.4860   -1.4050    7.7900 C.2    16  GLY16       0.2820
     12  O        -15.2780   -0.2160    8.0400 O.2    16  GLY16      -0.2669
     13  N        -16.1740   -1.8230    6.7320 N.am   17  ARG17      -0.1929
     14  CA       -16.8360   -0.9310    5.7790 C.3    17  ARG17       0.1732
     15  C        -18.0800   -1.6370    5.2380 C.2    17  ARG17       0.2617
     16  O        -18.0970   -2.8590    5.0950 O.2    17  ARG17      -0.2715
     17  CB       -15.9510   -0.6630    4.5660 C.3    17  ARG17       0.0348
     18  CG       -14.6740    0.0980    4.7730 C.3    17  ARG17       0.0492
     19  CD       -14.0320    0.3330    3.4010 C.3    17  ARG17       0.2205
     20  NE       -12.9300    1.2870    3.4490 N.pl3  17  ARG17      -0.0865
     21  CZ       -13.0810    2.5990    3.3110 C.cat  17  ARG17       0.5346
     22  NH1      -14.2910    3.1130    3.1180 N.pl3  17  ARG17       0.1354
     23  NH2      -12.0240    3.3940    3.3740 N.pl3  17  ARG17       0.1354
     24  N        -19.1100   -0.8670    4.9140 N.am   18  GLY18      -0.1940
     25  CA       -20.2360   -1.3870    4.1550 C.3    18  GLY18       0.2014
     26  C        -20.6030   -0.4260    3.0340 C.2    18  GLY18       0.2640
     27  O        -19.7870    0.4140    2.6260 O.2    18  GLY18      -0.2714
     28  N        -21.8310   -0.5300    2.5360 N.am   19  SER19      -0.1935
     29  CA       -22.2560    0.3290    1.4310 C.3    19  SER19       0.2055
     30  C        -22.3890    1.8040    1.8290 C.2    19  SER19       0.2643
     31  O        -22.3260    2.6900    0.9750 O.2    19  SER19      -0.2714
     32  CB       -23.5820   -0.1620    0.8560 C.3    19  SER19       0.2130
     33  OG       -23.4100   -1.3660    0.1310 O.3    19  SER19      -0.2179
     34  N        -22.5620    2.0580    3.1180 N.am   20  TYR20      -0.1959
     35  CA       -22.9530    3.3880    3.5810 C.3    20  TYR20       0.1771
     36  C        -22.0150    4.0170    4.6030 C.2    20  TYR20       0.2619
     37  O        -22.0910    5.2260    4.8440 O.2    20  TYR20      -0.2715
     38  CB       -24.3810    3.3510    4.1520 C.3    20  TYR20       0.0574
     39  CG       -25.3840    2.7630    3.1930 C.ar   20  TYR20      -0.0198
     40  CD1      -25.8210    3.4810    2.0880 C.ar   20  TYR20      -0.0009
     41  CD2      -25.8860    1.4840    3.3860 C.ar   20  TYR20      -0.0009
     42  CE1      -26.7340    2.9390    1.1970 C.ar   20  TYR20       0.0417
     43  CE2      -26.7920    0.9360    2.5050 C.ar   20  TYR20       0.0417
     44  CZ       -27.2130    1.6640    1.4190 C.ar   20  TYR20       0.1957
     45  OH       -28.1190    1.1150    0.5580 O.3    20  TYR20      -0.2866
     46  N        -21.1490    3.2140    5.2190 N.am   21  ALA21      -0.1977
     47  CA       -20.3010    3.7190    6.3000 C.3    21  ALA21       0.1597
     48  C        -18.9390    3.0480    6.3870 C.2    21  ALA21       0.2287
     49  O        -18.7070    2.0020    5.7870 O.2    21  ALA21      -0.2864
     50  CB       -21.0190    3.6120    7.6400 C.3    21  ALA21       0.0319
     51  N        -16.1570    1.9000    9.4900 N.3    23  VAL23      -0.1245
     52  CA       -16.1930    1.6720   10.9340 C.3    23  VAL23       0.1561
     53  C        -14.7740    1.6070   11.4850 C.2    23  VAL23       0.2260
     54  O        -13.9380    0.8760   10.9540 O.2    23  VAL23      -0.2867
     55  CB       -16.9710    0.3770   11.2900 C.3    23  VAL23       0.0252
     56  CG1      -17.0140    0.1690   12.8080 C.3    23  VAL23       0.0019
     57  CG2      -18.3950    0.4480   10.7270 C.3    23  VAL23       0.0019
     58  N        -16.3850    1.1890   19.1170 N.3    36  ALA36      -0.1245
     59  CA       -16.3640    1.2400   17.6580 C.3    36  ALA36       0.1562
     60  C        -16.9830    2.5650   17.2360 C.2    36  ALA36       0.2260
     61  O        -17.7500    3.1560   17.9870 O.2    36  ALA36      -0.2867
     62  CB       -17.0950    0.0480   17.0310 C.3    36  ALA36       0.0290
     63  N        -18.9180    4.3460   13.9300 N.3    38  LYS38      -0.1245
     64  CA       -19.4970    4.2830   12.6010 C.3    38  LYS38       0.1561
     65  C        -19.5250    5.6880   11.9940 C.2    38  LYS38       0.2260
     66  O        -20.0120    6.6310   12.6140 O.2    38  LYS38      -0.2867
     67  CB       -20.8950    3.6640   12.6690 C.3    38  LYS38       0.0271
     68  CG       -21.5930    3.5170   11.3230 C.3    38  LYS38       0.0035
     69  CD       -22.8720    2.6830   11.4470 C.3    38  LYS38       0.0206
     70  CE       -23.4360    2.3340   10.0590 C.3    38  LYS38       0.1093
     71  NZ       -24.4320    1.2330   10.0950 N.3    38  LYS38      -0.1314
     72  N        -33.1200    7.8690    7.0260 N.3    53  TRP53      -0.1241
     73  CA       -32.3820    6.6920    7.4790 C.3    53  TRP53       0.1605
     74  C        -31.3480    6.9980    8.5580 C.2    53  TRP53       0.2264
     75  O        -31.1630    6.1890    9.4680 O.2    53  TRP53      -0.2867
     76  CB       -31.8220    5.8290    6.3280 C.3    53  TRP53       0.0550
     77  CG       -30.5020    6.2290    5.6880 C.ar   53  TRP53       0.0003
     78  CD1      -30.3370    6.7820    4.4530 C.ar   53  TRP53       0.0946
     79  CD2      -29.1750    6.0220    6.2130 C.ar   53  TRP53       0.0152
     80  NE1      -28.9990    6.9620    4.1850 N.ar   53  TRP53      -0.2442
     81  CE2      -28.2650    6.5020    5.2470 C.ar   53  TRP53       0.0810
     82  CE3      -28.6730    5.4940    7.4070 C.ar   53  TRP53       0.0012
     83  CZ2      -26.8860    6.4790    5.4420 C.ar   53  TRP53       0.0191
     84  CZ3      -27.2990    5.4700    7.6020 C.ar   53  TRP53       0.0001
     85  CH2      -26.4230    5.9600    6.6250 C.ar   53  TRP53       0.0015
     86  N        -31.5870    5.2480   12.1240 N.3    57  GLU57      -0.1245
     87  CA       -30.4340    4.5210   12.6700 C.3    57  GLU57       0.1567
     88  C        -30.0830    5.0020   14.0850 C.2    57  GLU57       0.2260
     89  O        -29.8590    4.1900   14.9870 O.2    57  GLU57      -0.2867
     90  CB       -29.2060    4.5750   11.7330 C.3    57  GLU57       0.0388
     91  CG       -27.9760    3.8550   12.3420 C.3    57  GLU57       0.1160
     92  CD       -27.1430    3.0850   11.3290 C.2    57  GLU57       0.3649
     93  OE1      -27.0090    3.5400   10.1720 O.co2  57  GLU57      -0.2457
     94  OE2      -26.6180    2.0090   11.6920 O.co2  57  GLU57      -0.2457
     95  N        -26.5280   -4.0130   19.3590 N.3    71  VAL71      -0.1245
     96  CA       -25.4260   -3.1120   19.6990 C.3    71  VAL71       0.1561
     97  C        -25.9510   -1.7420   20.1790 C.2    71  VAL71       0.2260
     98  O        -26.7280   -1.0950   19.4880 O.2    71  VAL71      -0.2867
     99  CB       -24.4580   -2.9380   18.5120 C.3    71  VAL71       0.0252
    100  CG1      -23.4200   -1.8430   18.8130 C.3    71  VAL71       0.0019
    101  CG2      -23.7500   -4.2650   18.2150 C.3    71  VAL71       0.0019
    102  N        -20.3470    3.4910   19.3170 N.3    87  ILE87      -0.1231
    103  CA       -21.1780    2.3570   19.7050 C.3    87  ILE87       0.1692
    104  C        -20.2900    1.3150   20.3720 C.2    87  ILE87       0.2592
    105  O        -19.0590    1.4120   20.3150 O.2    87  ILE87      -0.2718
    106  CB       -21.8790    1.7600   18.4630 C.3    87  ILE87       0.0266
    107  CG1      -20.8360    1.2270   17.4690 C.3    87  ILE87       0.0019
    108  CG2      -22.7840    2.8180   17.7950 C.3    87  ILE87       0.0020
    109  CD1      -21.4140    0.7350   16.1300 C.3    87  ILE87       0.0001
    110  N        -20.8900    0.3160   21.0140 N.am   88  GLU88      -0.1966
    111  CA       -20.0560   -0.6420   21.7380 C.3    88  GLU88       0.1733
    112  C        -19.2630   -1.5200   20.7700 C.2    88  GLU88       0.2616
    113  O        -19.7560   -1.8850   19.6990 O.2    88  GLU88      -0.2715
    114  CB       -20.8540   -1.4630   22.7610 C.3    88  GLU88       0.0429
    115  CG       -22.0440   -2.1890   22.2130 C.3    88  GLU88       0.1163
    116  CD       -22.8440   -2.8900   23.3040 C.2    88  GLU88       0.3649
    117  OE1      -22.2360   -3.3910   24.2740 O.co2  88  GLU88      -0.2457
    118  OE2      -24.0860   -2.9300   23.1960 O.co2  88  GLU88      -0.2457
    119  N        -18.0210   -1.7960   21.1540 N.am   89  TYR89      -0.1960
    120  CA       -17.0740   -2.5630   20.3580 C.3    89  TYR89       0.1771
    121  C        -17.2200   -4.0390   20.6900 C.2    89  TYR89       0.2619
    122  O        -17.1460   -4.4210   21.8480 O.2    89  TYR89      -0.2715
    123  CB       -15.6540   -2.0840   20.6680 C.3    89  TYR89       0.0574
    124  CG       -14.5410   -2.9080   20.0510 C.ar   89  TYR89      -0.0198
    125  CD1      -14.5570   -3.2340   18.6940 C.ar   89  TYR89      -0.0009
    126  CD2      -13.4680   -3.3450   20.8230 C.ar   89  TYR89      -0.0009
    127  CE1      -13.5310   -3.9800   18.1260 C.ar   89  TYR89       0.0417
    128  CE2      -12.4360   -4.0880   20.2670 C.ar   89  TYR89       0.0417
    129  CZ       -12.4730   -4.4050   18.9200 C.ar   89  TYR89       0.1957
    130  OH       -11.4450   -5.1380   18.3710 O.3    89  TYR89      -0.2866
    131  N        -17.4410   -4.8560   19.6690 N.am   90  VAL90      -0.1977
    132  CA       -17.6860   -6.2800   19.8480 C.3    90  VAL90       0.1596
    133  C        -16.5350   -7.0260   19.1630 C.2    90  VAL90       0.2287
    134  O        -16.4550   -7.0550   17.9470 O.2    90  VAL90      -0.2864
    135  CB       -19.0550   -6.6740   19.2320 C.3    90  VAL90       0.0276
    136  CG1      -19.4840   -8.0270   19.7140 C.3    90  VAL90       0.0022
    137  CG2      -20.1210   -5.6430   19.5900 C.3    90  VAL90       0.0022
    138  N        -17.2140  -10.6680   13.0380 N.3    94  ASP94      -0.1239
    139  CA       -18.5600  -10.9680   12.5450 C.3    94  ASP94       0.1674
    140  C        -18.7040  -12.4150   12.0540 C.2    94  ASP94       0.2266
    141  O        -17.7240  -13.1590   11.9870 O.2    94  ASP94      -0.2867
    142  CB       -19.0770   -9.9120   11.5300 C.3    94  ASP94       0.1410
    143  CG       -18.2660   -9.8560   10.2410 C.2    94  ASP94       0.3668
    144  OD1      -17.8730  -10.9280    9.7270 O.co2  94  ASP94      -0.2456
    145  OD2      -18.0400   -8.7350    9.7220 O.co2  94  ASP94      -0.2456
    146  N        -22.5220  -10.4900    7.6990 N.3   137  ASP137     -0.1225
    147  CA       -21.6680   -9.3390    8.0600 C.3   137  ASP137      0.1805
    148  C        -22.2190   -8.4820    9.2040 C.2   137  ASP137      0.2597
    149  O        -21.4590   -7.7440    9.8530 O.2   137  ASP137     -0.2718
    150  CB       -21.4290   -8.4010    6.8690 C.3   137  ASP137      0.1424
    151  CG       -21.4070   -9.1180    5.5420 C.2   137  ASP137      0.3668
    152  OD1      -22.1060  -10.1420    5.3880 O.co2 137  ASP137     -0.2456
    153  OD2      -20.7000   -8.6320    4.6380 O.co2 137  ASP137     -0.2456
    154  N        -23.5280   -8.5680    9.4400 N.am  138  ASN138     -0.1974
    155  CA       -24.2000   -7.7040   10.4120 C.3   138  ASN138      0.1688
    156  C        -24.4390   -8.4020   11.7390 C.2   138  ASN138      0.2292
    157  O        -25.0000   -7.8170   12.6580 O.2   138  ASN138     -0.2864
    158  CB       -25.5330   -7.1800    9.8500 C.3   138  ASN138      0.1181
    159  CG       -25.3450   -6.0380    8.8760 C.2   138  ASN138      0.2629
    160  OD1      -24.2630   -5.4540    8.7980 O.2   138  ASN138     -0.2716
    161  ND2      -26.4060   -5.6980    8.1300 N.am  138  ASN138     -0.0877
    162  N        -22.5120   -9.8330   14.8880 N.3   140  LEU140     -0.1245
    163  CA       -21.2210   -9.8170   15.5740 C.3   140  LEU140      0.1561
    164  C        -21.1440  -10.8350   16.7290 C.2   140  LEU140      0.2260
    165  O        -22.1400  -11.1030   17.3760 O.2   140  LEU140     -0.2867
    166  CB       -20.9460   -8.4060   16.1220 C.3   140  LEU140      0.0270
    167  CG       -21.1250   -7.2800   15.0970 C.3   140  LEU140      0.0019
    168  CD1      -20.9650   -5.8850   15.7160 C.3   140  LEU140      0.0001
    169  CD2      -20.1520   -7.4750   13.9580 C.3   140  LEU140      0.0001
    170  N        -25.9670   -5.6050   14.4690 N.3   150  THR150     -0.1203
    171  CA       -25.6370   -4.1920   14.3210 C.3   150  THR150      0.1994
    172  C        -26.2050   -3.6690   12.9910 C.2   150  THR150      0.2617
    173  O        -26.8050   -4.4410   12.2270 O.2   150  THR150     -0.2717
    174  CB       -24.1200   -3.9240   14.4240 C.3   150  THR150      0.1784
    175  OG1      -23.8920   -2.5130   14.5820 O.3   150  THR150     -0.2211
    176  CG2      -23.3590   -4.4580   13.1840 C.3   150  THR150      0.0376
    177  N        -26.0360   -2.3720   12.7440 N.am  151  ASP151     -0.1973
    178  CA       -26.4070   -1.7210   11.4770 C.3   151  ASP151      0.1709
    179  C        -27.9240   -1.5620   11.3140 C.2   151  ASP151      0.2293
    180  O        -28.6090   -2.4320   10.7610 O.2   151  ASP151     -0.2864
    181  CB       -25.7690   -2.4260   10.2590 C.3   151  ASP151      0.1436
    182  CG       -26.0000   -1.6610    8.9540 C.2   151  ASP151      0.3671
    183  OD1      -26.5690   -0.5540    9.0090 O.co2 151  ASP151     -0.2456
    184  OD2      -25.6110   -2.1560    7.8740 O.co2 151  ASP151     -0.2456
    185  N        -10.6850   -9.5140   12.9130 N.3   295  PHE295     -0.1241
    186  CA       -11.1950   -8.6370   11.8650 C.3   295  PHE295      0.1605
    187  C        -10.3760   -8.8120   10.5930 C.2   295  PHE295      0.2264
    188  O         -9.1610   -8.9810   10.6670 O.2   295  PHE295     -0.2867
    189  CB       -11.2020   -7.1810   12.3440 C.3   295  PHE295      0.0534
    190  CG       -12.1800   -6.9330   13.4490 C.ar  295  PHE295     -0.0203
    191  CD1      -11.8050   -7.0950   14.7750 C.ar  295  PHE295     -0.0042
    192  CD2      -13.5010   -6.5970   13.1600 C.ar  295  PHE295     -0.0042
    193  CE1      -12.7310   -6.8980   15.8030 C.ar  295  PHE295     -0.0003
    194  CE2      -14.4230   -6.4060   14.1770 C.ar  295  PHE295     -0.0003
    195  CZ       -14.0390   -6.5550   15.5010 C.ar  295  PHE295     -0.0000
    196  N         -9.3770   -4.6440    6.0700 N.3   299  PHE299     -0.1241
    197  CA        -9.7070   -3.4320    6.8260 C.3   299  PHE299      0.1605
    198  C         -8.5920   -2.9910    7.7740 C.2   299  PHE299      0.2264
    199  O         -8.1920   -1.8260    7.7630 O.2   299  PHE299     -0.2867
    200  CB       -11.0490   -3.5730    7.5700 C.3   299  PHE299      0.0534
    201  CG       -12.1610   -4.0410    6.6900 C.ar  299  PHE299     -0.0203
    202  CD1      -12.5180   -3.3140    5.5620 C.ar  299  PHE299     -0.0042
    203  CD2      -12.8250   -5.2210    6.9550 C.ar  299  PHE299     -0.0042
    204  CE1      -13.5210   -3.7490    4.7270 C.ar  299  PHE299     -0.0003
    205  CE2      -13.8300   -5.6560    6.1240 C.ar  299  PHE299     -0.0003
    206  CZ       -14.1860   -4.9200    5.0140 C.ar  299  PHE299     -0.0000
@<TRIPOS>BOND
     1    33    32    1
     2    45    44    1
     3    32    29    1
     4    31    30    2
     5    42    44   ar
     6    42    40   ar
     7    44    43   ar
     8    29    30    1
     9    29    28    1
    10    30    34   am
    11    40    39   ar
    12    43    41   ar
    13    28    26   am
    14    27    26    2
    15    26    25    1
    16    34    35    1
    17    22    21    1
    18    39    41   ar
    19    39    38    1
    20    21    23    1
    21    21    20    2
    22    19    20    1
    23    19    18    1
    24    35    38    1
    25    35    36    1
    26    25    24    1
    27    80    78   ar
    28    80    81   ar
    29    78    77   ar
    30    17    18    1
    31    17    14    1
    32    36    37    2
    33    36    46   am
    34   153   151   ar
    35   204   206   ar
    36   204   202   ar
    37    24    15   am
    38   206   205   ar
    39    16    15    2
    40    46    47    1
    41    15    14    1
    42    81    83   ar
    43    81    79   ar
    44   152   151   ar
    45    83    85   ar
    46   151   150    1
    47   202   201   ar
    48    77    79   ar
    49    77    76    1
    50    14    13    1
    51    49    48    2
    52   196   197    1
    53   205   203   ar
    54    79    82   ar
    55    47    48    1
    56    47    50    1
    57    76    73    1
    58    85    84   ar
    59   201   203   ar
    60   201   200    1
    61    13    11   am
    62   197   200    1
    63   197   198    1
    64   150   147    1
    65    72    73    1
    66    82    84   ar
    67    73    74    1
    68   146   147    1
    69   199   198    2
    70    11    12    2
    71    11    10    1
    72   184   182   ar
    73   147   148    1
    74   161   159   am
    75    74    75    2
    76    10     9    2
    77   160   159    2
    78   159   158    1
    79   182   183   ar
    80   182   181    1
    81   148   154   am
    82   148   149    2
    83   154   155    1
    84    51    52    1
    85     9     3    1
    86   145   143   ar
    87   144   143   ar
    88   158   155    1
    89    70    71    1
    90    70    69    1
    91    93    92   ar
    92   143   142    1
    93   181   178    1
    94     4     3    2
    95   155   156    1
    96     3     2    1
    97   187   188    2
    98   187   186    1
    99    57    55    1
   100   180   179    2
   101    52    55    1
   102    52    53    1
   103    54    53    2
   104     1     2    1
   105    55    56    1
   106   179   178    1
   107    68    69    1
   108    68    67    1
   109    92    94   ar
   110    92    91    1
   111     2     5    1
   112   178   177    1
   113   142   139    1
   114    90    91    1
   115    90    87    1
   116   156   157    2
   117   186   189    1
   118   186   185    1
   119   141   140    2
   120    65    64    1
   121    65    66    2
   122   140   139    1
   123    86    87    1
   124   173   172    2
   125   189   190    1
   126   139   138    1
   127    64    67    1
   128    64    63    1
   129    87    88    1
   130   177   172   am
   131     5     6    1
   132     5     7    1
   133   172   171    1
   134   192   190   ar
   135   192   194   ar
   136   176   174    1
   137     6     8    1
   138   190   191   ar
   139   169   167    1
   140    88    89    2
   141   194   195   ar
   142   171   174    1
   143   171   170    1
   144   174   175    1
   145   191   193   ar
   146   162   163    1
   147   167   168    1
   148   167   166    1
   149   195   193   ar
   150   163   166    1
   151   163   164    1
   152   109   107    1
   153   164   165    2
   154    62    59    1
   155    60    59    1
   156    60    61    2
   157   107   106    1
   158    59    58    1
   159   108   106    1
   160   134   133    2
   161   127   125   ar
   162   127   129   ar
   163   101    99    1
   164   130   129    1
   165   106   103    1
   166    99   100    1
   167    99    96    1
   168   125   124   ar
   169   129   128   ar
   170   133   132    1
   171   135   137    1
   172   135   136    1
   173   135   132    1
   174   102   103    1
   175    95    96    1
   176    98    97    2
   177   131   132    1
   178   131   121   am
   179    96    97    1
   180   113   112    2
   181   103   104    1
   182   124   123    1
   183   124   126   ar
   184   128   126   ar
   185   105   104    2
   186   120   123    1
   187   120   121    1
   188   120   119    1
   189   104   110   am
   190   121   122    2
   191   112   119   am
   192   112   111    1
   193   110   111    1
   194   111   114    1
   195   115   114    1
   196   115   116    1
   197   118   116   ar
   198   116   117   ar
