@<TRIPOS>MOLECULE
tmp/5li3B00.pdb
 180 176 0 0 0
SMALL
GASTEIGER

@<TRIPOS>ATOM
      1  N          1.2920    8.9200    2.3100 N.3    19  HIS19      -0.1241
      2  CA         0.2400    9.7220    2.9290 C.3    19  HIS19       0.1621
      3  C         -0.8560    8.8120    3.4660 C.2    19  HIS19       0.2264
      4  O         -1.0570    7.7180    2.9600 O.2    19  HIS19      -0.2867
      5  CB        -0.3950   10.6460    1.8980 C.3    19  HIS19       0.0745
      6  CG         0.4160   11.8650    1.5740 C.ar   19  HIS19       0.0817
      7  ND1        1.5940   11.8160    0.8580 N.ar   19  HIS19      -0.2268
      8  CD2        0.1690   13.1760    1.7960 C.ar   19  HIS19       0.1154
      9  CE1        2.0540   13.0420    0.6840 C.ar   19  HIS19       0.1986
     10  NE2        1.2090   13.8870    1.2470 N.ar   19  HIS19      -0.2212
     11  N         -5.0980   12.6310    2.8190 N.3    22  THR22      -0.1203
     12  CA        -4.3750   13.8560    2.4430 C.3    22  THR22       0.1994
     13  C         -3.2060   14.1930    3.3720 C.2    22  THR22       0.2618
     14  O         -2.4160   15.0730    3.0590 O.2    22  THR22      -0.2717
     15  CB        -5.3070   15.0700    2.4470 C.3    22  THR22       0.1784
     16  OG1       -5.8920   15.2090    3.7470 O.3    22  THR22      -0.2211
     17  CG2       -6.3970   14.9220    1.3900 C.3    22  THR22       0.0376
     18  N         -3.1000   13.5020    4.5020 N.am   23  LEU23      -0.1966
     19  CA        -2.1030   13.8260    5.5120 C.3    23  LEU23       0.1713
     20  C         -0.7660   13.1810    5.1920 C.2    23  LEU23       0.2458
     21  O         -0.7170   11.9750    4.9950 O.2    23  LEU23      -0.2730
     22  CB        -2.5650   13.3480    6.8910 C.3    23  LEU23       0.0310
     23  CG        -3.8400   14.0100    7.4140 C.3    23  LEU23       0.0022
     24  CD1       -4.3160   13.2860    8.6610 C.3    23  LEU23       0.0001
     25  CD2       -3.6060   15.4900    7.6940 C.3    23  LEU23       0.0001
     26  N          0.3240   13.9790    5.1550 N.am   24  PRO24      -0.2727
     27  CA         1.6580   13.3870    5.0890 C.3    24  PRO24       0.1402
     28  C          1.9070   12.4450    6.2550 C.2    24  PRO24       0.2269
     29  O          1.4570   12.7160    7.3660 O.2    24  PRO24      -0.2865
     30  CB         2.5930   14.5950    5.1920 C.3    24  PRO24       0.0296
     31  CG         1.7970   15.7380    4.6700 C.3    24  PRO24       0.0237
     32  CD         0.3700   15.4520    5.0400 C.3    24  PRO24       0.0939
     33  N          2.2290   23.0040    0.2360 N.3    98  GLN98      -0.1231
     34  CA         1.4030   22.1020    1.0420 C.3    98  GLN98       0.1698
     35  C          0.1880   21.7680    0.1720 C.2    98  GLN98       0.2592
     36  O         -0.3170   22.6370   -0.5640 O.2    98  GLN98      -0.2718
     37  CB         0.9830   22.7300    2.3910 C.3    98  GLN98       0.0381
     38  CG         2.1540   23.0680    3.3170 C.3    98  GLN98       0.0905
     39  CD         2.7080   24.4790    3.1540 C.2    98  GLN98       0.2608
     40  OE1        3.8680   24.6990    2.7400 O.2    98  GLN98      -0.2717
     41  NE2        1.8800   25.4470    3.4980 N.am   98  GLN98      -0.0878
     42  N         -0.2470   20.5070    0.2350 N.am   99  ASP99      -0.1974
     43  CA        -1.2740   19.9530   -0.6620 C.3    99  ASP99       0.1709
     44  C         -0.7600   19.8210   -2.1120 C.2    99  ASP99       0.2293
     45  O         -1.5560   19.7650   -3.0570 O.2    99  ASP99      -0.2864
     46  CB        -2.5910   20.7770   -0.6340 C.3    99  ASP99       0.1436
     47  CG        -3.0790   21.1580    0.8150 C.2    99  ASP99       0.3671
     48  OD1       -2.3290   21.0840    1.8240 O.co2  99  ASP99      -0.2456
     49  OD2       -4.2450   21.5860    0.9490 O.co2  99  ASP99      -0.2456
     50  N          2.5360   17.6540   -3.1200 N.3   101  PRO101     -0.2116
     51  CA         3.7360   16.8270   -3.1220 C.3   101  PRO101      0.1372
     52  C          3.9830   16.1920   -4.5000 C.2   101  PRO101      0.2244
     53  O          3.0290   15.8980   -5.2280 O.2   101  PRO101     -0.2868
     54  CB         3.4040   15.7510   -2.0930 C.3   101  PRO101      0.0268
     55  CG         1.9430   15.5290   -2.2840 C.3   101  PRO101      0.0207
     56  CD         1.3730   16.8890   -2.6150 C.3   101  PRO101      0.0892
     57  N         -4.1000   16.3630  -12.1090 N.3   139  PRO139     -0.2116
     58  CA        -5.1230   17.3640  -12.4150 C.3   139  PRO139      0.1372
     59  C         -4.5690   18.8040  -12.4270 C.2   139  PRO139      0.2244
     60  O         -3.4280   19.0210  -12.0210 O.2   139  PRO139     -0.2868
     61  CB        -6.1230   17.1840  -11.2730 C.3   139  PRO139      0.0268
     62  CG        -5.2800   16.7510  -10.1300 C.3   139  PRO139      0.0207
     63  CD        -4.2260   15.8740  -10.7230 C.3   139  PRO139      0.0892
     64  N         -6.9570   22.1540  -12.1510 N.3   141  HIS141     -0.1226
     65  CA        -7.8620   23.2770  -11.9430 C.3   141  HIS141      0.1752
     66  C         -7.5730   24.1560  -10.7090 C.2   141  HIS141      0.2596
     67  O         -8.0920   25.2650  -10.6220 O.2   141  HIS141     -0.2718
     68  CB        -9.3250   22.8060  -11.9920 C.3   141  HIS141      0.0759
     69  CG        -9.8110   22.1630  -10.7360 C.ar  141  HIS141      0.0818
     70  ND1      -11.0990   22.3330  -10.2800 N.ar  141  HIS141     -0.2268
     71  CD2       -9.1910   21.3560   -9.8400 C.ar  141  HIS141      0.1154
     72  CE1      -11.2530   21.6590   -9.1550 C.ar  141  HIS141      0.1986
     73  NE2      -10.1090   21.0620   -8.8650 N.ar  141  HIS141     -0.2212
     74  N         -6.7560   23.6620   -9.7800 N.am  142  HIS142     -0.1975
     75  CA        -6.3030   24.4490   -8.6350 C.3   142  HIS142      0.1656
     76  C         -5.0100   25.1950   -8.9020 C.2   142  HIS142      0.2291
     77  O         -4.7340   26.1860   -8.2290 O.2   142  HIS142     -0.2864
     78  CB        -6.1000   23.5620   -7.4050 C.3   142  HIS142      0.0771
     79  CG        -7.3670   22.9930   -6.8640 C.ar  142  HIS142      0.0820
     80  ND1       -8.5040   23.7510   -6.6590 N.ar  142  HIS142     -0.2267
     81  CD2       -7.6790   21.7330   -6.4890 C.ar  142  HIS142      0.1154
     82  CE1       -9.4580   22.9790   -6.1770 C.ar  142  HIS142      0.1986
     83  NE2       -8.9860   21.7500   -6.0710 N.ar  142  HIS142     -0.2212
     84  N         -3.4370   21.8530   -4.2710 N.3   150  GLY150     -0.1210
     85  CA        -4.4930   20.8560   -4.4550 C.3   150  GLY150      0.1956
     86  C         -4.1350   19.7300   -5.4090 C.2   150  GLY150      0.2612
     87  O         -4.9710   19.3080   -6.2030 O.2   150  GLY150     -0.2717
     88  N         -2.8850   19.2650   -5.3290 N.am  151  PHE151     -0.1962
     89  CA        -2.3540   18.1870   -6.1730 C.3   151  PHE151      0.1771
     90  C         -2.3230   18.5360   -7.6680 C.2   151  PHE151      0.2619
     91  O         -2.2460   17.6360   -8.5030 O.2   151  PHE151     -0.2715
     92  CB        -3.1250   16.8750   -5.9240 C.3   151  PHE151      0.0574
     93  CG        -3.4050   16.6130   -4.4690 C.ar  151  PHE151     -0.0200
     94  CD1       -2.3580   16.5080   -3.5660 C.ar  151  PHE151     -0.0042
     95  CD2       -4.7080   16.5130   -3.9920 C.ar  151  PHE151     -0.0042
     96  CE1       -2.5870   16.2940   -2.2100 C.ar  151  PHE151     -0.0003
     97  CE2       -4.9470   16.2910   -2.6390 C.ar  151  PHE151     -0.0003
     98  CZ        -3.8880   16.1800   -1.7460 C.ar  151  PHE151     -0.0000
     99  N         -2.3440   19.8340   -7.9910 N.am  152  CYS152     -0.1968
    100  CA        -2.3130   20.3260   -9.3640 C.3   152  CYS152      0.1712
    101  C         -1.0230   21.1050   -9.6190 C.2   152  CYS152      0.2296
    102  O         -0.6750   21.9930   -8.8510 O.2   152  CYS152     -0.2864
    103  CB        -3.5210   21.2180   -9.6370 C.3   152  CYS152      0.0983
    104  SG        -5.1090   20.4140   -9.3250 S.3   152  CYS152     -0.0798
    105  N        -16.0500   19.5580  -10.7110 N.3   179  ASP179     -0.1239
    106  CA       -15.3110   19.0340   -9.5630 C.3   179  ASP179      0.1674
    107  C        -15.9370   19.6980   -8.3370 C.2   179  ASP179      0.2266
    108  O        -16.3890   20.8350   -8.4080 O.2   179  ASP179     -0.2867
    109  CB       -13.7960   19.3380   -9.6730 C.3   179  ASP179      0.1410
    110  CG       -13.0000   18.9440   -8.4110 C.2   179  ASP179      0.3668
    111  OD1      -13.2280   19.5010   -7.3300 O.co2 179  ASP179     -0.2456
    112  OD2      -12.1110   18.0820   -8.4620 O.co2 179  ASP179     -0.2456
    113  N        -14.6780   20.8740   -5.6400 N.3   181  HIS181     -0.1241
    114  CA       -13.8710   21.9450   -5.0800 C.3   181  HIS181      0.1621
    115  C        -13.8370   23.1350   -6.0260 C.2   181  HIS181      0.2264
    116  O        -14.0220   22.9830   -7.2440 O.2   181  HIS181     -0.2867
    117  CB       -12.4650   21.4290   -4.8090 C.3   181  HIS181      0.0745
    118  CG       -12.4590   20.2030   -3.9660 C.ar  181  HIS181      0.0817
    119  ND1      -12.2470   18.9410   -4.4880 N.ar  181  HIS181     -0.2268
    120  CD2      -12.7240   20.0330   -2.6480 C.ar  181  HIS181      0.1154
    121  CE1      -12.3480   18.0550   -3.5060 C.ar  181  HIS181      0.1986
    122  NE2      -12.6230   18.6920   -2.3820 N.ar  181  HIS181     -0.2212
    123  N        -15.4280   24.1270    1.0170 N.3   206  CYS206     -0.1221
    124  CA       -14.7230   22.8410    1.0750 C.3   206  CYS206      0.1808
    125  C        -13.2110   22.9570    0.7640 C.2   206  CYS206      0.2601
    126  O        -12.3830   22.7690    1.6540 O.2   206  CYS206     -0.2717
    127  CB       -15.4170   21.8180    0.1710 C.3   206  CYS206      0.0970
    128  SG       -14.7460   20.1440    0.3410 S.3   206  CYS206     -0.0800
    129  N        -12.8600   23.2530   -0.4860 N.am  207  PHE207     -0.1976
    130  CA       -11.4730   23.5380   -0.8500 C.3   207  PHE207      0.1639
    131  C        -11.4470   24.5150   -2.0330 C.2   207  PHE207      0.2290
    132  O        -12.0740   24.2420   -3.0560 O.2   207  PHE207     -0.2864
    133  CB       -10.7010   22.2810   -1.2010 C.3   207  PHE207      0.0560
    134  CG        -9.2240   22.4920   -1.3280 C.ar  207  PHE207     -0.0200
    135  CD1       -8.6770   22.9620   -2.5190 C.ar  207  PHE207     -0.0042
    136  CD2       -8.3740   22.2020   -0.2740 C.ar  207  PHE207     -0.0042
    137  CE1       -7.3080   23.1430   -2.6490 C.ar  207  PHE207     -0.0003
    138  CE2       -7.0040   22.3810   -0.3970 C.ar  207  PHE207     -0.0003
    139  CZ        -6.4700   22.8590   -1.5860 C.ar  207  PHE207     -0.0000
    140  N        -15.4130   13.8970   -7.4280 N.3   267  ASP267     -0.1239
    141  CA       -15.4330   14.0270   -5.9660 C.3   267  ASP267      0.1674
    142  C        -16.7280   14.6380   -5.3530 C.2   267  ASP267      0.2266
    143  O        -16.8580   14.6700   -4.1340 O.2   267  ASP267     -0.2867
    144  CB       -14.1600   14.7500   -5.4690 C.3   267  ASP267      0.1410
    145  CG       -13.8140   16.0070   -6.3030 C.2   267  ASP267      0.3668
    146  OD1      -14.6920   16.4370   -7.1070 O.co2 267  ASP267     -0.2456
    147  OD2      -12.6810   16.5600   -6.1440 O.co2 267  ASP267     -0.2456
    148  N        -13.5010   13.2560    0.3060 N.3   274  LEU274     -0.1245
    149  CA       -12.9830   14.6430    0.3060 C.3   274  LEU274      0.1561
    150  C        -14.0330   15.7310    0.0790 C.2   274  LEU274      0.2260
    151  O        -13.6970   16.8980   -0.0750 O.2   274  LEU274     -0.2867
    152  CB       -11.8490   14.7690   -0.7240 C.3   274  LEU274      0.0270
    153  CG       -10.5950   13.9160   -0.4660 C.3   274  LEU274      0.0019
    154  CD1       -9.4280   14.4360   -1.3040 C.3   274  LEU274      0.0001
    155  CD2      -10.1900   13.8700    1.0020 C.3   274  LEU274      0.0001
    156  N        -10.5180   15.6210  -13.5730 N.3   308  GLU308     -0.1231
    157  CA        -9.9090   16.3680  -12.4590 C.3   308  GLU308      0.1699
    158  C         -9.8380   15.4910  -11.1920 C.2   308  GLU308      0.2592
    159  O         -9.0800   14.5330  -11.1700 O.2   308  GLU308     -0.2718
    160  CB       -10.6600   17.6910  -12.2210 C.3   308  GLU308      0.0402
    161  CG       -10.5620   18.7080  -13.3550 C.3   308  GLU308      0.1161
    162  CD        -9.1940   19.3680  -13.4890 C.2   308  GLU308      0.3649
    163  OE1       -8.3690   19.2940  -12.5490 O.co2 308  GLU308     -0.2457
    164  OE2       -8.9480   19.9790  -14.5510 O.co2 308  GLU308     -0.2457
    165  N        -10.6230   15.7920  -10.1540 N.am  309  GLY309     -0.1957
    166  CA       -10.6040   15.0160   -8.9170 C.3   309  GLY309      0.1869
    167  C        -11.5460   13.8240   -8.9540 C.2   309  GLY309      0.2309
    168  O        -12.1220   13.4920   -9.9950 O.2   309  GLY309     -0.2863
    169  N        -12.0200   10.6550   -5.6340 N.3   311  TYR311     -0.1241
    170  CA       -11.1690    9.8590   -4.7330 C.3   311  TYR311      0.1605
    171  C        -11.7450    8.5380   -4.2390 C.2   311  TYR311      0.2264
    172  O        -11.0640    7.8050   -3.5450 O.2   311  TYR311     -0.2867
    173  CB       -10.7020   10.7560   -3.5840 C.3   311  TYR311      0.0534
    174  CG       -10.0270   11.9640   -4.1710 C.ar  311  TYR311     -0.0201
    175  CD1       -8.7830   11.8460   -4.8040 C.ar  311  TYR311     -0.0009
    176  CD2      -10.6730   13.2040   -4.2120 C.ar  311  TYR311     -0.0009
    177  CE1       -8.1670   12.9390   -5.3980 C.ar  311  TYR311      0.0417
    178  CE2      -10.0640   14.3040   -4.8020 C.ar  311  TYR311      0.0417
    179  CZ        -8.8110   14.1620   -5.3950 C.ar  311  TYR311      0.1957
    180  OH        -8.1900   15.2220   -5.9980 O.3   311  TYR311     -0.2866
@<TRIPOS>BOND
     1   164   162   ar
     2   156   157    1
     3   162   161    1
     4   162   163   ar
     5   161   160    1
     6   157   160    1
     7   157   158    1
     8    59    58    1
     9    59    60    2
    10    58    57    1
    11    58    61    1
    12    64    65    1
    13    57    63    1
    14    68    65    1
    15    68    69    1
    16    65    66    1
    17    61    62    1
    18   158   159    2
    19   158   165   am
    20    69    70   ar
    21    69    71   ar
    22    63    62    1
    23   105   106    1
    24    66    67    2
    25    66    74   am
    26    70    72   ar
    27   165   166    1
    28   168   167    2
    29    71    73   ar
    30    74    75    1
    31   109   106    1
    32   109   110    1
    33   103   100    1
    34   103   104    1
    35   101   100    1
    36   101   102    2
    37   106   107    1
    38   100    99    1
    39    72    73   ar
    40   167   166    1
    41    76    75    1
    42    76    77    2
    43    75    78    1
    44    91    90    2
    45   112   110   ar
    46   110   111   ar
    47   108   107    2
    48    99    90   am
    49    90    89    1
    50   140   141    1
    51    78    79    1
    52   116   115    2
    53   146   145   ar
    54    79    80   ar
    55    79    81   ar
    56    80    82   ar
    57    81    83   ar
    58   145   147   ar
    59   145   144    1
    60    87    86    2
    61    82    83   ar
    62    89    92    1
    63    89    88    1
    64   115   114    1
    65   180   179    1
    66   141   144    1
    67   141   142    1
    68    92    93    1
    69   113   114    1
    70   169   170    1
    71    86    88   am
    72    86    85    1
    73   177   179   ar
    74   177   175   ar
    75   179   178   ar
    76   142   143    2
    77    53    52    2
    78   114   117    1
    79   117   118    1
    80   175   174   ar
    81   178   176   ar
    82   170   171    1
    83   170   173    1
    84    52    51    1
    85   119   118   ar
    86   119   121   ar
    87    93    95   ar
    88    93    94   ar
    89    85    84    1
    90   171   172    2
    91   176   174   ar
    92   174   173    1
    93    95    97   ar
    94   118   120   ar
    95    94    96   ar
    96   121   122   ar
    97    51    50    1
    98    51    54    1
    99    50    56    1
   100    45    44    2
   101   132   131    2
   102   137   135   ar
   103   137   139   ar
   104   120   122   ar
   105    97    98   ar
   106    56    55    1
   107   135   134   ar
   108    55    54    1
   109    96    98   ar
   110    44    43    1
   111   131   130    1
   112   139   138   ar
   113   134   133    1
   114   134   136   ar
   115   154   153    1
   116   133   130    1
   117   130   129    1
   118   152   153    1
   119   152   149    1
   120    43    46    1
   121    43    42    1
   122    46    47    1
   123    36    35    2
   124   129   125   am
   125   153   155    1
   126   138   136   ar
   127   151   150    2
   128   150   149    1
   129   127   128    1
   130   127   124    1
   131    35    42   am
   132    35    34    1
   133    33    34    1
   134   148   149    1
   135     9     7   ar
   136     9    10   ar
   137   125   124    1
   138   125   126    2
   139    47    49   ar
   140    47    48   ar
   141     7     6   ar
   142   123   124    1
   143    34    37    1
   144    10     8   ar
   145    17    15    1
   146     6     8   ar
   147     6     5    1
   148     5     2    1
   149     1     2    1
   150    37    38    1
   151    12    15    1
   152    12    11    1
   153    12    13    1
   154    15    16    1
   155    40    39    2
   156     2     3    1
   157     4     3    2
   158    14    13    2
   159    39    38    1
   160    39    41   am
   161    13    18   am
   162    18    19    1
   163    31    32    1
   164    31    30    1
   165    21    20    2
   166    32    26    1
   167    27    26    1
   168    27    30    1
   169    27    28    1
   170    26    20   am
   171    20    19    1
   172    19    22    1
   173    28    29    2
   174    22    23    1
   175    23    25    1
   176    23    24    1
