@<TRIPOS>MOLECULE
tmp/5li6A01.pdb
 146 134 0 0 0
SMALL
GASTEIGER

@<TRIPOS>ATOM
      1  N         29.2170   18.2380   14.0360 N.3    77  THR77      -0.1203
      2  CA        28.8180   18.0760   12.6710 C.3    77  THR77       0.1994
      3  C         27.3800   18.5050   12.4480 C.2    77  THR77       0.2617
      4  O         26.8310   18.2060   11.3580 O.2    77  THR77      -0.2717
      5  CB        29.0390   16.6000   12.1910 C.3    77  THR77       0.1784
      6  OG1       28.2480   15.6960   13.0130 O.3    77  THR77      -0.2211
      7  CG2       30.5190   16.2320   12.3560 C.3    77  THR77       0.0376
      8  N         26.7580   19.1560   13.4530 N.am   78  VAL78      -0.1979
      9  CA        25.4950   19.8350   13.2180 C.3    78  VAL78       0.1595
     10  C         25.6690   21.3280   13.4250 C.2    78  VAL78       0.2287
     11  O         26.7380   21.7460   13.8840 O.2    78  VAL78      -0.2864
     12  CB        24.3290   19.2320   14.0490 C.3    78  VAL78       0.0276
     13  CG1       24.1540   17.6880   13.7280 C.3    78  VAL78       0.0022
     14  CG2       24.4840   19.5090   15.5510 C.3    78  VAL78       0.0022
     15  N         28.1580   21.6210   19.8160 N.3    82  LEU82      -0.1245
     16  CA        27.8190   20.6360   20.8110 C.3    82  LEU82       0.1561
     17  C         29.0880   20.1000   21.4900 C.2    82  LEU82       0.2260
     18  O         30.0420   19.7790   20.8180 O.2    82  LEU82      -0.2867
     19  CB        27.0280   19.4650   20.2160 C.3    82  LEU82       0.0270
     20  CG        25.7010   19.7930   19.5370 C.3    82  LEU82       0.0019
     21  CD1       25.1100   18.5390   18.9980 C.3    82  LEU82       0.0001
     22  CD2       24.7220   20.5170   20.4880 C.3    82  LEU82       0.0001
     23  N         29.4890   17.3240   22.7570 N.3    84  VAL84      -0.1245
     24  CA        29.7090   15.9220   22.2740 C.3    84  VAL84       0.1561
     25  C         30.7470   15.8010   21.1470 C.2    84  VAL84       0.2260
     26  O         31.1830   14.6780   20.8000 O.2    84  VAL84      -0.2867
     27  CB        28.3850   15.2270   21.8590 C.3    84  VAL84       0.0252
     28  CG1       27.3330   15.3380   22.9770 C.3    84  VAL84       0.0019
     29  CG2       27.8300   15.7840   20.5610 C.3    84  VAL84       0.0019
     30  N         31.9700   11.2820   20.0450 N.3    88  VAL88      -0.1245
     31  CA        31.2680   10.2810   19.2750 C.3    88  VAL88       0.1561
     32  C         31.8900   10.2350   17.8720 C.2    88  VAL88       0.2260
     33  O         32.3680   11.2410   17.3440 O.2    88  VAL88      -0.2867
     34  CB        29.7370   10.5970   19.2500 C.3    88  VAL88       0.0252
     35  CG1       29.4510   11.9180   18.5380 C.3    88  VAL88       0.0019
     36  CG2       29.0250    9.4810   18.5870 C.3    88  VAL88       0.0019
     37  N         31.3240   10.0850   14.6480 N.3    90  ASN90      -0.1225
     38  CA        31.0240   10.9710   13.5420 C.3    90  ASN90       0.1785
     39  C         31.5460   12.4080   13.8240 C.2    90  ASN90       0.2597
     40  O         31.7460   13.1710   12.8790 O.2    90  ASN90      -0.2718
     41  CB        29.5140   10.9150   13.1400 C.3    90  ASN90       0.1169
     42  CG        28.5470   11.3480   14.2530 C.2    90  ASN90       0.2627
     43  OD1       28.6500   10.9060   15.4060 O.2    90  ASN90      -0.2716
     44  ND2       27.6010   12.1970   13.9200 N.am   90  ASN90      -0.0877
     45  N         31.7580   12.7300   15.0990 N.am   91  MET91      -0.1979
     46  CA        32.2830   14.0120   15.5320 C.3    91  MET91       0.1605
     47  C         33.7150   13.8930   16.0840 C.2    91  MET91       0.2287
     48  O         34.0790   14.6100   17.0130 O.2    91  MET91      -0.2864
     49  CB        31.3690   14.6910   16.5320 C.3    91  MET91       0.0413
     50  CG        29.9300   14.7560   15.9850 C.3    91  MET91       0.0598
     51  SD        29.0440   16.0580   16.8530 S.3    91  MET91      -0.1393
     52  CE        27.3390   15.5970   16.4630 C.3    91  MET91       0.0692
     53  N         26.5980    7.5460   24.3560 N.3   210  LEU210     -0.1245
     54  CA        26.3660    8.4090   23.1590 C.3   210  LEU210      0.1561
     55  C         26.4170    7.6150   21.8230 C.2   210  LEU210      0.2260
     56  O         25.6780    7.9020   20.8800 O.2   210  LEU210     -0.2867
     57  CB        27.4060    9.5060   23.0790 C.3   210  LEU210      0.0270
     58  CG        27.5300   10.6120   24.1230 C.3   210  LEU210      0.0019
     59  CD1       28.8230   11.4650   23.8170 C.3   210  LEU210      0.0001
     60  CD2       26.3180   11.4700   24.2150 C.3   210  LEU210      0.0001
     61  N         23.2380    7.1960   19.3130 N.3   214  LEU214     -0.1231
     62  CA        23.4590    7.6120   17.9070 C.3   214  LEU214      0.1693
     63  C         22.9820    6.5440   16.9140 C.2   214  LEU214      0.2591
     64  O         22.2000    6.8260   15.9920 O.2   214  LEU214     -0.2718
     65  CB        24.9680    7.9060   17.6600 C.3   214  LEU214      0.0284
     66  CG        25.3460    8.2320   16.1910 C.3   214  LEU214      0.0019
     67  CD1       24.8630    9.6500   15.8770 C.3   214  LEU214      0.0001
     68  CD2       26.8620    7.9720   15.8050 C.3   214  LEU214      0.0001
     69  N         23.4210    5.3040   17.1010 N.am  215  LEU215     -0.1980
     70  CA        23.0100    4.2280   16.1550 C.3   215  LEU215      0.1596
     71  C         21.5510    4.0390   16.1990 C.2   215  LEU215      0.2287
     72  O         20.8170    3.8750   15.2190 O.2   215  LEU215     -0.2864
     73  CB        23.6710    2.9020   16.5650 C.3   215  LEU215      0.0297
     74  CG        24.8830    2.5760   15.7290 C.3   215  LEU215      0.0022
     75  CD1       25.9190    3.6030   15.9970 C.3   215  LEU215      0.0001
     76  CD2       25.3600    1.1560   16.1470 C.3   215  LEU215      0.0001
     77  N         19.0830    6.2400   17.2410 N.3   217  SER217     -0.1202
     78  CA        18.2520    7.4040   16.6820 C.3   217  SER217      0.2020
     79  C         18.7810    8.2250   15.4200 C.2   217  SER217      0.2619
     80  O         18.2660    9.4330   15.0220 O.2   217  SER217     -0.2717
     81  CB        18.0380    8.4690   17.7460 C.3   217  SER217      0.2103
     82  OG        19.1570    9.3360   17.7150 O.3   217  SER217     -0.2182
     83  N         19.8320    7.6750   14.8370 N.am  218  ALA218     -0.1965
     84  CA        20.2660    8.1460   13.5610 C.3   218  ALA218      0.1728
     85  C         20.1710    6.9570   12.5850 C.2   218  ALA218      0.2616
     86  O         19.5520    7.0900   11.5590 O.2   218  ALA218     -0.2715
     87  CB        21.6510    8.7370   13.6390 C.3   218  ALA218      0.0334
     88  N         20.7790    5.8120   12.9180 N.am  219  GLY219     -0.1955
     89  CA        20.7540    4.6400   12.0240 C.3   219  GLY219      0.1869
     90  C         19.3160    4.1570   11.7220 C.2   219  GLY219      0.2309
     91  O         18.9830    3.8200   10.5750 O.2   219  GLY219     -0.2863
     92  N         17.2890    7.3800    9.8270 N.3   222  THR222     -0.1218
     93  CA        17.6410    7.6050    8.4260 C.3   222  THR222      0.1862
     94  C         17.1250    6.4790    7.5210 C.2   222  THR222      0.2287
     95  O         16.6180    6.6980    6.4300 O.2   222  THR222     -0.2866
     96  CB        19.1710    7.7300    8.2150 C.3   222  THR222      0.1770
     97  OG1       19.8260    6.6530    8.8410 O.3   222  THR222     -0.2211
     98  CG2       19.7380    9.1050    8.7680 C.3   222  THR222      0.0375
     99  N         19.7350   12.2960    5.2010 N.3   265  SER265     -0.1217
    100  CA        20.5910   13.1940    5.9680 C.3   265  SER265      0.1889
    101  C         21.0210   14.3020    5.0150 C.2   265  SER265      0.2288
    102  O         22.0760   14.1850    4.4070 O.2   265  SER265     -0.2866
    103  CB        21.8230   12.3910    6.4690 C.3   265  SER265      0.2089
    104  OG        22.7830   13.2340    7.1500 O.3   265  SER265     -0.2183
    105  N         21.9250   17.5530    5.1880 N.3   267  SER267     -0.1202
    106  CA        22.8220   18.6530    5.6660 C.3   267  SER267      0.2020
    107  C         23.9490   18.1100    6.5310 C.2   267  SER267      0.2618
    108  O         23.8460   17.0760    7.2150 O.2   267  SER267     -0.2717
    109  CB        22.0140   19.6990    6.4100 C.3   267  SER267      0.2103
    110  OG        21.4460   19.1500    7.6040 O.3   267  SER267     -0.2182
    111  N         25.0740   18.7700    6.4940 N.am  268  LYS268     -0.1979
    112  CA        26.1740   18.3570    7.3660 C.3   268  LYS268      0.1596
    113  C         27.0030   19.6020    7.7330 C.2   268  LYS268      0.2287
    114  O         27.2300   20.4710    6.8720 O.2   268  LYS268     -0.2864
    115  CB        26.9930   17.3510    6.5820 C.3   268  LYS268      0.0298
    116  CG        27.4320   16.0740    7.2430 C.3   268  LYS268      0.0038
    117  CD        26.4410   15.2500    8.0920 C.3   268  LYS268      0.0206
    118  CE        25.7430   14.1720    7.2410 C.3   268  LYS268      0.1093
    119  NZ        25.0080   14.6380    6.0200 N.3   268  LYS268     -0.1314
    120  N         29.3410    6.6620    5.4760 N.3   328  CYS328     -0.1235
    121  CA        28.3820    5.7990    6.2080 C.3   328  CYS328      0.1677
    122  C         28.8860    4.3570    6.4190 C.2   328  CYS328      0.2270
    123  O         29.1000    3.6140    5.4560 O.2   328  CYS328     -0.2867
    124  CB        27.0770    5.7610    5.4390 C.3   328  CYS328      0.0956
    125  SG        25.8090    4.8620    6.3460 S.3   328  CYS328     -0.0801
    126  N         17.9800   18.7640    9.6040 N.3   365  ARG365     -0.1231
    127  CA        18.9990   17.7540    9.8880 C.3   365  ARG365      0.1694
    128  C         18.5750   16.3700    9.3030 C.2   365  ARG365      0.2592
    129  O         19.4180   15.5690    8.8870 O.2   365  ARG365     -0.2718
    130  CB        19.2780   17.7260   11.3660 C.3   365  ARG365      0.0321
    131  CG        20.2230   16.5960   11.8700 C.3   365  ARG365      0.0489
    132  CD        20.1610   16.4060   13.4150 C.3   365  ARG365      0.2205
    133  NE        20.4690   17.6890   14.0180 N.pl3 365  ARG365     -0.0865
    134  CZ        20.3210   17.9490   15.3150 C.cat 365  ARG365      0.5346
    135  NH1       19.8750   17.0050   16.1340 N.pl3 365  ARG365      0.1354
    136  NH2       20.6240   19.1310   15.7890 N.pl3 365  ARG365      0.1354
    137  N         17.2660   16.1090    9.3170 N.am  366  HIS366     -0.1976
    138  CA        16.6700   14.9300    8.7190 C.3   366  HIS366      0.1656
    139  C         15.7020   15.3620    7.6490 C.2   366  HIS366      0.2291
    140  O         14.9910   16.3060    7.8860 O.2   366  HIS366     -0.2864
    141  CB        15.8250   14.1670    9.7500 C.3   366  HIS366      0.0771
    142  CG        16.5960   13.5320   10.8480 C.ar  366  HIS366      0.0820
    143  ND1       17.0480   12.2470   10.7590 N.ar  366  HIS366     -0.2267
    144  CD2       16.9370   13.9760   12.0920 C.ar  366  HIS366      0.1154
    145  CE1       17.6690   11.9160   11.8900 C.ar  366  HIS366      0.1986
    146  NE2       17.6340   12.9580   12.7070 N.ar  366  HIS366     -0.2212
@<TRIPOS>BOND
     1   102   101    2
     2   101   100    1
     3   105   106    1
     4    99   100    1
     5   124   121    1
     6   124   125    1
     7   123   122    2
     8   120   121    1
     9   106   109    1
    10   106   107    1
    11   100   103    1
    12   119   118    1
    13   121   122    1
    14   109   110    1
    15    95    94    2
    16   103   104    1
    17   111   107   am
    18   111   112    1
    19   107   108    2
    20   115   116    1
    21   115   112    1
    22   114   113    2
    23   118   117    1
    24   116   117    1
    25   112   113    1
    26    94    93    1
    27   139   140    2
    28   139   138    1
    29    96    93    1
    30    96    98    1
    31    96    97    1
    32    93    92    1
    33   138   137    1
    34   138   141    1
    35   129   128    2
    36   128   137   am
    37   128   127    1
    38   126   127    1
    39   141   142    1
    40   127   130    1
    41    91    90    2
    42   143   142   ar
    43   143   145   ar
    44   142   144   ar
    45     4     3    2
    46   130   131    1
    47    86    85    2
    48    90    89    1
    49   131   132    1
    50   145   146   ar
    51    89    88    1
    52   144   146   ar
    53     5     7    1
    54     5     2    1
    55     5     6    1
    56     3     2    1
    57     3     8   am
    58    85    88   am
    59    85    84    1
    60     2     1    1
    61    40    39    2
    62    41    38    1
    63    41    42    1
    64     9    10    1
    65     9     8    1
    66     9    12    1
    67   132   133    1
    68    10    11    2
    69    38    39    1
    70    38    37    1
    71    84    87    1
    72    84    83    1
    73    13    12    1
    74    39    45   am
    75    44    42   am
    76   133   134    2
    77    12    14    1
    78    42    43    2
    79    83    79   am
    80    80    79    2
    81    45    46    1
    82    72    71    2
    83   134   136    1
    84   134   135    1
    85    79    78    1
    86    46    47    1
    87    46    49    1
    88    74    75    1
    89    74    76    1
    90    74    73    1
    91    68    66    1
    92    67    66    1
    93    50    49    1
    94    50    51    1
    95    64    63    2
    96    47    48    2
    97    70    71    1
    98    70    73    1
    99    70    69    1
   100    66    65    1
   101    52    51    1
   102    78    77    1
   103    78    81    1
   104    63    69   am
   105    63    62    1
   106    33    32    2
   107    65    62    1
   108    82    81    1
   109    32    31    1
   110    62    61    1
   111    35    34    1
   112    36    34    1
   113    21    20    1
   114    34    31    1
   115    31    30    1
   116    20    19    1
   117    20    22    1
   118    15    16    1
   119    19    16    1
   120    29    27    1
   121    26    25    2
   122    16    17    1
   123    18    17    2
   124    56    55    2
   125    25    24    1
   126    55    54    1
   127    27    24    1
   128    27    28    1
   129    24    23    1
   130    57    54    1
   131    57    58    1
   132    54    53    1
   133    59    58    1
   134    58    60    1
