@<TRIPOS>MOLECULE
tmp/5li7A01.pdb
 146 135 0 0 0
SMALL
GASTEIGER

@<TRIPOS>ATOM
      1  N        -13.1260   11.6160  -14.0590 N.3    77  THR77      -0.1203
      2  CA       -13.2490   11.1940  -12.6970 C.3    77  THR77       0.1994
      3  C        -12.8500    9.7240  -12.4960 C.2    77  THR77       0.2617
      4  O        -13.1060    9.1910  -11.4330 O.2    77  THR77      -0.2717
      5  CB       -14.6420   11.4740  -12.1910 C.3    77  THR77       0.1784
      6  OG1      -15.5860   10.6840  -12.9450 O.3    77  THR77      -0.2211
      7  CG2      -14.9190   12.9500  -12.1550 C.3    77  THR77       0.0376
      8  N        -12.1400    9.1730  -13.4900 N.am   78  VAL78      -0.1979
      9  CA       -11.3650    7.9320  -13.2740 C.3    78  VAL78       0.1595
     10  C         -9.9020    8.1640  -13.3970 C.2    78  VAL78       0.2287
     11  O         -9.4590    9.1880  -13.8240 O.2    78  VAL78      -0.2864
     12  CB       -11.8600    6.7180  -14.0200 C.3    78  VAL78       0.0276
     13  CG1      -13.3890    6.4120  -13.6810 C.3    78  VAL78       0.0022
     14  CG2      -11.6510    6.9260  -15.4670 C.3    78  VAL78       0.0022
     15  N         -9.6880   10.5570  -19.7270 N.3    82  LEU82      -0.1245
     16  CA       -10.6430   10.1680  -20.7520 C.3    82  LEU82       0.1561
     17  C        -11.1590   11.3560  -21.5400 C.2    82  LEU82       0.2260
     18  O        -11.5250   12.3880  -20.9450 O.2    82  LEU82      -0.2867
     19  CB       -11.8600    9.4750  -20.1150 C.3    82  LEU82       0.0270
     20  CG       -11.6660    8.1710  -19.3740 C.3    82  LEU82       0.0019
     21  CD1      -13.0880    7.8490  -18.7480 C.3    82  LEU82       0.0001
     22  CD2      -11.1060    7.0800  -20.3300 C.3    82  LEU82       0.0001
     23  N        -13.9510   11.8560  -22.7930 N.3    84  VAL84      -0.1245
     24  CA       -15.3380   12.1950  -22.4490 C.3    84  VAL84       0.1561
     25  C        -15.3760   13.2250  -21.3190 C.2    84  VAL84       0.2260
     26  O        -16.4650   13.7680  -20.9870 O.2    84  VAL84      -0.2867
     27  CB       -16.1880   10.9720  -22.1420 C.3    84  VAL84       0.0252
     28  CG1      -16.3150   10.1460  -23.4610 C.3    84  VAL84       0.0019
     29  CG2      -15.7640   10.2110  -20.9480 C.3    84  VAL84       0.0019
     30  N        -20.0680   14.4710  -19.9570 N.3    88  VAL88      -0.1245
     31  CA       -21.0380   13.6780  -19.2000 C.3    88  VAL88       0.1561
     32  C        -21.1080   14.2650  -17.8010 C.2    88  VAL88       0.2260
     33  O        -20.1100   14.8420  -17.2980 O.2    88  VAL88      -0.2867
     34  CB       -20.6360   12.2050  -19.1950 C.3    88  VAL88       0.0252
     35  CG1      -19.2880   12.0170  -18.5610 C.3    88  VAL88       0.0019
     36  CG2      -21.7700   11.3480  -18.5500 C.3    88  VAL88       0.0019
     37  N        -21.1960   13.7240  -14.5810 N.3    90  ASN90      -0.1225
     38  CA       -20.2770   13.4670  -13.4790 C.3    90  ASN90       0.1785
     39  C        -18.8770   13.9490  -13.7660 C.2    90  ASN90       0.2597
     40  O        -18.0740   14.0980  -12.8530 O.2    90  ASN90      -0.2718
     41  CB       -20.3390   12.0010  -12.9900 C.3    90  ASN90       0.1169
     42  CG       -20.0020   10.9870  -14.0680 C.2    90  ASN90       0.2627
     43  OD1      -20.4430   11.1360  -15.2110 O.2    90  ASN90      -0.2716
     44  ND2      -19.2930    9.9390  -13.6960 N.am   90  ASN90      -0.0877
     45  N        -18.5650   14.1720  -15.0500 N.am   91  MET91      -0.1979
     46  CA       -17.2280   14.6730  -15.4410 C.3    91  MET91       0.1605
     47  C        -17.3750   16.0870  -16.0210 C.2    91  MET91       0.2287
     48  O        -16.8950   16.4240  -17.1130 O.2    91  MET91      -0.2864
     49  CB       -16.5650   13.6880  -16.4080 C.3    91  MET91       0.0413
     50  CG       -16.5560   12.3030  -15.8670 C.3    91  MET91       0.0598
     51  SD       -15.4030   11.2400  -16.8150 S.3    91  MET91      -0.1393
     52  CE       -15.9500    9.6840  -16.2670 C.3    91  MET91       0.0692
     53  N        -23.6720    8.9780  -23.6290 N.3   206  LEU206     -0.1245
     54  CA       -22.8720    8.9580  -22.4010 C.3   206  LEU206      0.1561
     55  C        -23.8090    9.0680  -21.1870 C.2   206  LEU206      0.2260
     56  O        -23.6290    8.3220  -20.2090 O.2   206  LEU206     -0.2867
     57  CB       -21.8490   10.0390  -22.3440 C.3   206  LEU206      0.0270
     58  CG       -20.6870    9.8900  -23.2770 C.3   206  LEU206      0.0019
     59  CD1      -19.9330   11.2440  -23.4140 C.3   206  LEU206      0.0001
     60  CD2      -19.7330    8.6740  -22.9780 C.3   206  LEU206      0.0001
     61  N        -25.5450    5.6500  -20.7430 N.3   209  HIS209     -0.1226
     62  CA       -24.6160    4.7110  -20.1050 C.3   209  HIS209      0.1752
     63  C        -24.4000    5.0490  -18.6330 C.2   209  HIS209      0.2596
     64  O        -24.3320    4.1320  -17.8300 O.2   209  HIS209     -0.2718
     65  CB       -23.3090    4.4860  -20.8970 C.3   209  HIS209      0.0759
     66  CG       -23.4020    3.3350  -21.8480 C.ar  209  HIS209      0.0818
     67  ND1      -23.7400    3.4710  -23.1740 N.ar  209  HIS209     -0.2268
     68  CD2      -23.3470    2.0170  -21.6150 C.ar  209  HIS209      0.1154
     69  CE1      -23.7760    2.2710  -23.7420 C.ar  209  HIS209      0.1986
     70  NE2      -23.5720    1.3730  -22.8010 N.ar  209  HIS209     -0.2212
     71  N        -24.2750    6.3210  -18.2760 N.am  210  LEU210     -0.1966
     72  CA       -24.1780    6.7310  -16.8580 C.3   210  LEU210      0.1728
     73  C        -25.3040    6.0560  -16.0630 C.2   210  LEU210      0.2616
     74  O        -25.0450    5.4900  -15.0010 O.2   210  LEU210     -0.2715
     75  CB       -24.2010    8.2230  -16.7110 C.3   210  LEU210      0.0311
     76  CG       -24.0770    8.7940  -15.3300 C.3   210  LEU210      0.0022
     77  CD1      -22.6980    8.4570  -14.7280 C.3   210  LEU210      0.0001
     78  CD2      -24.2620   10.3230  -15.2550 C.3   210  LEU210      0.0001
     79  N        -26.5460    6.2400  -16.4950 N.am  211  LEU211     -0.1977
     80  CA       -27.6700    5.6680  -15.7520 C.3   211  LEU211      0.1596
     81  C        -27.6850    4.1860  -15.8410 C.2   211  LEU211      0.2287
     82  O        -27.9930    3.4910  -14.8760 O.2   211  LEU211     -0.2864
     83  CB       -28.9960    6.2630  -16.2510 C.3   211  LEU211      0.0297
     84  CG       -29.4300    7.5170  -15.4770 C.3   211  LEU211      0.0022
     85  CD1      -28.4810    8.5380  -15.1430 C.3   211  LEU211      0.0001
     86  CD2      -30.7670    8.0750  -15.9580 C.3   211  LEU211      0.0001
     87  N        -25.1120    2.2890  -15.9760 N.3   213  SER213     -0.1202
     88  CA       -24.0510    1.9070  -15.0200 C.3   213  SER213      0.2020
     89  C        -24.6740    1.9100  -13.5900 C.2   213  SER213      0.2618
     90  O        -24.6200    0.9410  -12.8340 O.2   213  SER213     -0.2717
     91  CB       -22.7640    2.8140  -15.1480 C.3   213  SER213      0.2103
     92  OG       -22.7460    4.1610  -14.5750 O.3   213  SER213     -0.2182
     93  N        -25.3860    2.9830  -13.3060 N.am  214  ALA214     -0.1979
     94  CA       -25.9320    3.2190  -12.0180 C.3   214  ALA214      0.1597
     95  C        -26.8210    2.0960  -11.6070 C.2   214  ALA214      0.2287
     96  O        -26.7930    1.7120  -10.4380 O.2   214  ALA214     -0.2864
     97  CB       -26.6380    4.5470  -11.9430 C.3   214  ALA214      0.0319
     98  N        -23.8890   -0.3150  -10.0530 N.3   218  THR218     -0.1218
     99  CA       -23.7580    0.1860   -8.7250 C.3   218  THR218      0.1862
    100  C        -24.8850   -0.2720   -7.7590 C.2   218  THR218      0.2287
    101  O        -24.6350   -0.7460   -6.6440 O.2   218  THR218     -0.2866
    102  CB       -23.6170    1.7270   -8.8570 C.3   218  THR218      0.1770
    103  OG1      -22.7940    1.9530  -10.0150 O.3   218  THR218     -0.2211
    104  CG2      -22.8730    2.2490   -7.7400 C.3   218  THR218      0.0375
    105  N        -19.1850    2.2090   -5.1530 N.3   261  SER261     -0.1217
    106  CA       -18.3630    3.0670   -5.9540 C.3   261  SER261      0.1889
    107  C        -17.2250    3.6640   -5.1050 C.2   261  SER261      0.2288
    108  O        -17.3570    4.7850   -4.5850 O.2   261  SER261     -0.2866
    109  CB       -19.2760    4.1810   -6.5480 C.3   261  SER261      0.2089
    110  OG       -18.5770    5.0260   -7.4610 O.3   261  SER261     -0.2183
    111  N        -12.7970    7.7480   -6.5310 N.3   264  LYS264     -0.1241
    112  CA       -13.0080    8.7820   -7.5320 C.3   264  LYS264      0.1604
    113  C        -11.6970    9.4750   -7.8090 C.2   264  LYS264      0.2264
    114  O        -10.8400    9.6030   -6.9430 O.2   264  LYS264     -0.2867
    115  CB       -13.9550    9.9040   -7.1090 C.3   264  LYS264      0.0527
    116  CG       -15.2960    9.4990   -6.6910 C.2   264  LYS264     -0.0273
    117  CD       -16.1940    9.0650   -7.7750 C.2   264  LYS264     -0.0103
    118  CE       -17.3800    8.2360   -7.3450 C.3   264  LYS264      0.1350
    119  NZ       -16.9360    7.0680   -6.4080 N.3   264  LYS264     -0.1262
    120  N        -24.8000   11.9490   -5.4580 N.3   324  CYS324     -0.1235
    121  CA       -25.6360   11.0830   -6.2680 C.3   324  CYS324      0.1677
    122  C        -27.0890   11.5460   -6.4030 C.2   324  CYS324      0.2270
    123  O        -27.8540   11.6140   -5.3910 O.2   324  CYS324     -0.2867
    124  CB       -25.5750    9.7390   -5.5900 C.3   324  CYS324      0.0956
    125  SG       -26.5290    8.5080   -6.5610 S.3   324  CYS324     -0.0801
    126  N        -12.5510    0.5220   -9.2640 N.3   361  ARG361     -0.1231
    127  CA       -13.5760    1.6120   -9.5100 C.3   361  ARG361      0.1694
    128  C        -14.9440    1.2130   -9.0060 C.2   361  ARG361      0.2592
    129  O        -15.8330    2.0580   -8.8020 O.2   361  ARG361     -0.2718
    130  CB       -13.6580    1.8980  -10.9900 C.3   361  ARG361      0.0321
    131  CG       -12.4460    2.5520  -11.5020 C.3   361  ARG361      0.0489
    132  CD       -12.2730    2.7720  -13.0140 C.3   361  ARG361      0.2205
    133  NE       -10.9140    3.3500  -13.2630 N.pl3 361  ARG361     -0.0865
    134  CZ       -10.2020    3.2230  -14.3950 C.cat 361  ARG361      0.5346
    135  NH1      -10.7340    2.5570  -15.4310 N.pl3 361  ARG361      0.1354
    136  NH2       -8.9800    3.8250  -14.5340 N.pl3 361  ARG361      0.1354
    137  N        -15.1990   -0.0900   -8.9410 N.am  362  HIS362     -0.1976
    138  CA       -16.4640   -0.6860   -8.5050 C.3   362  HIS362      0.1656
    139  C        -16.1500   -1.8300   -7.5680 C.2   362  HIS362      0.2291
    140  O        -15.1620   -2.5710   -7.7790 O.2   362  HIS362     -0.2864
    141  CB       -17.1880   -1.3810   -9.6420 C.3   362  HIS362      0.0771
    142  CG       -17.5580   -0.5010  -10.7360 C.ar  362  HIS362      0.0820
    143  ND1      -16.7960   -0.3610  -11.8810 N.ar  362  HIS362     -0.2267
    144  CD2      -18.6020    0.3380  -10.8570 C.ar  362  HIS362      0.1154
    145  CE1      -17.3710    0.5430  -12.6610 C.ar  362  HIS362      0.1986
    146  NE2      -18.4710    0.9750  -12.0690 N.ar  362  HIS362     -0.2212
@<TRIPOS>BOND
     1    69    67   ar
     2    69    70   ar
     3    53    54    1
     4    28    27    1
     5    59    58    1
     6    58    60    1
     7    58    57    1
     8    67    66   ar
     9    70    68   ar
    10    23    24    1
    11    24    27    1
    12    24    25    1
    13    54    57    1
    14    54    55    1
    15    27    29    1
    16    66    68   ar
    17    66    65    1
    18    17    18    2
    19    17    16    1
    20    25    26    2
    21    55    56    2
    22    65    62    1
    23    16    19    1
    24    16    15    1
    25    61    62    1
    26    22    20    1
    27    19    20    1
    28    62    63    1
    29    30    31    1
    30    20    21    1
    31    31    34    1
    32    31    32    1
    33    34    35    1
    34    34    36    1
    35    63    71   am
    36    63    64    2
    37    71    72    1
    38    32    33    2
    39    48    47    2
    40    72    75    1
    41    72    73    1
    42    51    52    1
    43    51    50    1
    44    75    76    1
    45    79    73   am
    46    79    80    1
    47    49    50    1
    48    49    46    1
    49    83    80    1
    50    83    84    1
    51    73    74    2
    52    47    46    1
    53    87    88    1
    54    86    84    1
    55    81    80    1
    56    81    82    2
    57    84    85    1
    58    14    12    1
    59    46    45    1
    60   135   134    1
    61    76    78    1
    62    76    77    1
    63    43    42    2
    64    91    88    1
    65    91    92    1
    66    45    39   am
    67    88    89    1
    68    37    38    1
    69   136   134    1
    70   134   133    2
    71    42    44   am
    72    42    41    1
    73     1     2    1
    74    12    13    1
    75    12     9    1
    76    11    10    2
    77    39    38    1
    78    39    40    2
    79    89    93   am
    80    89    90    2
    81     8     9    1
    82     8     3   am
    83    38    41    1
    84    10     9    1
    85    93    94    1
    86   133   132    1
    87   132   131    1
    88     6     5    1
    89     2     3    1
    90     2     5    1
    91   145   146   ar
    92   145   143   ar
    93     3     4    2
    94     5     7    1
    95   146   144   ar
    96    94    97    1
    97    94    95    1
    98   143   142   ar
    99    95    96    2
   100   131   130    1
   101   130   127    1
   102   144   142   ar
   103   142   141    1
   104    98    99    1
   105   103   102    1
   106   141   138    1
   107   127   126    1
   108   127   128    1
   109   128   137   am
   110   128   129    2
   111   137   138    1
   112   102    99    1
   113   102   104    1
   114    99   100    1
   115   138   139    1
   116   113   112    1
   117   113   114    2
   118   140   139    2
   119   117   118    1
   120   117   116    2
   121   100   101    2
   122   112   115    1
   123   112   111    1
   124   110   109    1
   125   118   119    1
   126   115   116    1
   127   125   124    1
   128   109   106    1
   129   122   121    1
   130   122   123    2
   131   121   124    1
   132   121   120    1
   133   106   105    1
   134   106   107    1
   135   107   108    2
