@<TRIPOS>MOLECULE
tmp/5li8A01.pdb
 194 186 0 0 0
SMALL
GASTEIGER

@<TRIPOS>ATOM
      1  N        -23.6750   -0.0360   17.8430 N.3     7  LEU7       -0.1231
      2  CA       -23.7240   -1.5260   17.6550 C.3     7  LEU7        0.1693
      3  C        -22.3440   -2.1670   17.7100 C.2     7  LEU7        0.2592
      4  O        -22.2190   -3.3860   17.7010 O.2     7  LEU7       -0.2718
      5  CB       -24.4350   -1.8220   16.3270 C.3     7  LEU7        0.0284
      6  CG       -25.8860   -1.3110   16.1910 C.3     7  LEU7        0.0019
      7  CD1      -26.5440   -1.6480   14.7540 C.3     7  LEU7        0.0001
      8  CD2      -26.7680   -1.8190   17.2910 C.3     7  LEU7        0.0001
      9  N        -21.2960   -1.3440   17.7570 N.am    8  THR8       -0.1953
     10  CA       -19.9370   -1.8200   17.9670 C.3     8  THR8        0.1897
     11  C        -19.5200   -1.7750   19.4710 C.2     8  THR8        0.2313
     12  O        -18.4780   -2.2710   19.8380 O.2     8  THR8       -0.2863
     13  CB       -18.8940   -1.0900   17.1260 C.3     8  THR8        0.1794
     14  OG1      -18.6540    0.2570   17.6050 O.3     8  THR8       -0.2208
     15  CG2      -19.2960   -1.0670   15.6020 C.3     8  THR8        0.0378
     16  N        -15.3670    0.9430   17.3240 N.3    40  THR40      -0.1204
     17  CA       -15.6100    0.3930   15.9800 C.3    40  THR40       0.1979
     18  C        -14.3110   -0.1560   15.3480 C.2    40  THR40       0.2457
     19  O        -13.2760    0.5550   15.3450 O.2    40  THR40      -0.2732
     20  CB       -16.2060    1.5030   15.0650 C.3    40  THR40       0.1783
     21  OG1      -17.4620    1.9870   15.6210 O.3    40  THR40      -0.2211
     22  CG2      -16.3880    0.9510   13.6120 C.3    40  THR40       0.0376
     23  N        -14.3570   -1.4170   14.8040 N.am   41  PRO41      -0.2773
     24  CA       -13.1780   -1.9600   14.0590 C.3    41  PRO41       0.1083
     25  C        -12.6370   -1.0380   12.9450 C.3    41  PRO41       0.2017
     26  O        -13.3700   -0.6330   11.9700 O.3    41  PRO41      -0.2186
     27  CB       -13.6830   -3.3060   13.4640 C.3    41  PRO41       0.0243
     28  CG       -14.8280   -3.6770   14.2390 C.3    41  PRO41       0.0233
     29  CD       -15.4660   -2.4000   14.8220 C.3    41  PRO41       0.0935
     30  N        -19.8760    1.6780    8.4940 N.3    46  PHE46      -0.1241
     31  CA       -20.5020    0.6210    7.7050 C.3    46  PHE46       0.1605
     32  C        -22.0140    0.7820    7.6180 C.2    46  PHE46       0.2264
     33  O        -22.6310    1.4260    8.4820 O.2    46  PHE46      -0.2867
     34  CB       -20.2380   -0.7280    8.3760 C.3    46  PHE46       0.0534
     35  CG       -20.6760   -0.8310    9.7840 C.ar   46  PHE46      -0.0203
     36  CD1      -21.8830   -1.4410   10.1110 C.ar   46  PHE46      -0.0042
     37  CD2      -19.8840   -0.3190   10.8200 C.ar   46  PHE46      -0.0042
     38  CE1      -22.3080   -1.5570   11.4480 C.ar   46  PHE46      -0.0003
     39  CE2      -20.3120   -0.4330   12.1600 C.ar   46  PHE46      -0.0003
     40  CZ       -21.5200   -1.0540   12.4530 C.ar   46  PHE46      -0.0000
     41  N        -10.0860  -18.0890    4.5380 N.3    84  VAL84      -0.1231
     42  CA       -10.9230  -19.1540    5.0640 C.3    84  VAL84       0.1692
     43  C        -12.1730  -19.1050    4.1970 C.2    84  VAL84       0.2592
     44  O        -12.5680  -18.0280    3.6930 O.2    84  VAL84      -0.2718
     45  CB       -11.1720  -18.9400    6.5800 C.3    84  VAL84       0.0266
     46  CG1      -11.7580  -17.5630    6.8370 C.3    84  VAL84       0.0020
     47  CG2      -12.1430  -19.9410    7.1280 C.3    84  VAL84       0.0020
     48  N        -12.8110  -20.2660    4.0050 N.am   85  LEU85      -0.1966
     49  CA       -13.8830  -20.4570    3.0600 C.3    85  LEU85       0.1728
     50  C        -14.9600  -19.3910    3.1190 C.2    85  LEU85       0.2616
     51  O        -15.4500  -18.9620    2.0840 O.2    85  LEU85      -0.2715
     52  CB       -14.5800  -21.8140    3.3200 C.3    85  LEU85       0.0311
     53  CG       -15.7390  -22.1920    2.4300 C.3    85  LEU85       0.0022
     54  CD1      -15.2720  -22.3890    1.0160 C.3    85  LEU85       0.0001
     55  CD2      -16.3380  -23.5060    2.9540 C.3    85  LEU85       0.0001
     56  N        -15.3130  -18.9790    4.2750 N.am   86  ASN86      -0.1972
     57  CA       -16.4410  -17.9950    4.4040 C.3    86  ASN86       0.1688
     58  C        -15.9740  -16.5980    4.0340 C.2    86  ASN86       0.2292
     59  O        -16.8090  -15.6820    3.9470 O.2    86  ASN86      -0.2864
     60  CB       -17.0110  -17.9290    5.8020 C.3    86  ASN86       0.1181
     61  CG       -15.9790  -17.4650    6.8170 C.2    86  ASN86       0.2629
     62  OD1      -14.9930  -18.1770    7.0890 O.2    86  ASN86      -0.2716
     63  ND2      -16.1900  -16.2690    7.3760 N.am   86  ASN86      -0.0877
     64  N         -8.4530  -22.9160    9.0460 N.3   222  PHE222     -0.1241
     65  CA        -9.6980  -23.6520    8.9150 C.3   222  PHE222      0.1605
     66  C         -9.9310  -24.5320   10.1100 C.2   222  PHE222      0.2264
     67  O        -11.0410  -24.5200   10.7030 O.2   222  PHE222     -0.2867
     68  CB        -9.6630  -24.4790    7.6440 C.3   222  PHE222      0.0534
     69  CG       -10.9380  -25.2020    7.3090 C.ar  222  PHE222     -0.0203
     70  CD1      -12.1200  -24.5500    7.1910 C.ar  222  PHE222     -0.0042
     71  CD2      -10.9220  -26.5740    7.1040 C.ar  222  PHE222     -0.0042
     72  CE1      -13.2950  -25.2800    6.8660 C.ar  222  PHE222     -0.0003
     73  CE2      -12.1070  -27.2910    6.7830 C.ar  222  PHE222     -0.0003
     74  CZ       -13.2500  -26.6350    6.6640 C.ar  222  PHE222     -0.0000
     75  N        -10.3590  -22.1780   13.3620 N.3   225  LEU225     -0.1231
     76  CA       -11.5710  -21.4040   13.3360 C.3   225  LEU225      0.1693
     77  C        -12.8300  -22.3100   13.4400 C.2   225  LEU225      0.2591
     78  O        -13.7970  -21.9930   14.1410 O.2   225  LEU225     -0.2718
     79  CB       -11.6230  -20.4610   12.1250 C.3   225  LEU225      0.0284
     80  CG       -10.6600  -19.2690   12.1830 C.3   225  LEU225      0.0019
     81  CD1      -10.7650  -18.4860   10.8490 C.3   225  LEU225      0.0001
     82  CD2      -11.0890  -18.3750   13.3410 C.3   225  LEU225      0.0001
     83  N        -12.8070  -23.4360   12.7540 N.am  226  LEU226     -0.1980
     84  CA       -14.0000  -24.2510   12.7440 C.3   226  LEU226      0.1596
     85  C        -14.1290  -24.9590   14.0680 C.2   226  LEU226      0.2287
     86  O        -15.2260  -25.0540   14.6600 O.2   226  LEU226     -0.2864
     87  CB       -14.0100  -25.1770   11.5170 C.3   226  LEU226      0.0297
     88  CG       -15.2420  -26.0580   11.3790 C.3   226  LEU226      0.0022
     89  CD1      -16.5740  -25.2050   11.2010 C.3   226  LEU226      0.0001
     90  CD2      -15.0490  -27.0500   10.2340 C.3   226  LEU226      0.0001
     91  N        -15.3430  -21.9620   16.5190 N.3   229  ALA229     -0.1231
     92  CA       -16.6610  -21.3960   16.2000 C.3   229  ALA229      0.1694
     93  C        -17.7460  -22.3950   15.8820 C.2   229  ALA229      0.2592
     94  O        -18.8630  -22.1160   16.1910 O.2   229  ALA229     -0.2718
     95  CB       -16.5390  -20.3260   15.0440 C.3   229  ALA229      0.0304
     96  N        -17.4560  -23.5580   15.2550 N.am  230  GLY230     -0.1957
     97  CA       -18.4970  -24.5780   15.0240 C.3   230  GLY230      0.1869
     98  C        -18.9310  -25.2060   16.3670 C.2   230  GLY230      0.2309
     99  O        -20.1050  -25.5280   16.5560 O.2   230  GLY230     -0.2863
    100  N        -21.0360  -21.9800   18.2600 N.3   233  THR233     -0.1218
    101  CA       -22.3850  -21.7930   17.7630 C.3   233  THR233      0.1862
    102  C        -23.2930  -22.9450   18.2090 C.2   233  THR233      0.2287
    103  O        -24.3920  -22.7250   18.7150 O.2   233  THR233     -0.2866
    104  CB       -22.4190  -21.6940   16.2090 C.3   233  THR233      0.1770
    105  OG1      -21.8200  -22.8720   15.6060 O.3   233  THR233     -0.2211
    106  CG2      -21.7630  -20.3700   15.6840 C.3   233  THR233      0.0375
    107  N        -25.2210  -17.1270   15.5180 N.3   276  SER276     -0.1217
    108  CA       -24.2990  -16.3880   14.6400 C.3   276  SER276      0.1889
    109  C        -25.1230  -15.2340   14.0450 C.2   276  SER276      0.2288
    110  O        -25.5930  -15.2720   12.9230 O.2   276  SER276     -0.2866
    111  CB       -23.7550  -17.3520   13.5550 C.3   276  SER276      0.2089
    112  OG       -22.7750  -16.7570   12.7890 O.3   276  SER276     -0.2183
    113  N        -24.6980  -11.9870   13.1130 N.3   278  SER278     -0.1202
    114  CA       -24.2280  -10.9100   12.2300 C.3   278  SER278      0.2020
    115  C        -23.2430  -11.4440   11.1890 C.2   278  SER278      0.2619
    116  O        -22.5340  -12.4460   11.5140 O.2   278  SER278     -0.2717
    117  CB       -23.5170   -9.8280   13.0860 C.3   278  SER278      0.2103
    118  OG       -22.4060  -10.3550   13.7890 O.3   278  SER278     -0.2182
    119  N        -23.1750  -10.8190    9.9870 N.am  279  LYS279     -0.1965
    120  CA       -22.0900  -11.0730    9.0090 C.3   279  LYS279      0.1728
    121  C        -21.5320   -9.7870    8.3610 C.2   279  LYS279      0.2616
    122  O        -22.2170   -8.7730    8.2750 O.2   279  LYS279     -0.2715
    123  CB       -22.5530  -11.9570    7.8840 C.3   279  LYS279      0.0311
    124  CG       -23.1840  -13.2670    8.3650 C.3   279  LYS279      0.0038
    125  CD       -22.0860  -14.1900    8.8490 C.3   279  LYS279      0.0206
    126  CE       -22.7660  -15.4070    9.5000 C.3   279  LYS279      0.1093
    127  NZ       -23.5130  -15.0310   10.6750 N.3   279  LYS279     -0.1314
    128  N        -20.3030   -9.8590    7.9170 N.am  280  ARG280     -0.1977
    129  CA       -19.6920   -8.7780    7.1100 C.3   280  ARG280      0.1597
    130  C        -19.7150   -9.1090    5.6460 C.2   280  ARG280      0.2287
    131  O        -19.4880  -10.2930    5.2510 O.2   280  ARG280     -0.2864
    132  CB       -18.2280   -8.6420    7.5040 C.3   280  ARG280      0.0334
    133  CG       -17.9180   -8.5080    8.9550 C.3   280  ARG280      0.0492
    134  CD       -16.3860   -8.2070    9.0870 C.3   280  ARG280      0.2205
    135  NE       -15.5390   -9.4210    9.0140 N.pl3 280  ARG280     -0.0865
    136  CZ       -14.4480   -9.6010    9.7730 C.cat 280  ARG280      0.5346
    137  NH1      -14.0920   -8.6570   10.6410 N.pl3 280  ARG280      0.1354
    138  NH2      -13.7060  -10.7110    9.6850 N.pl3 280  ARG280      0.1354
    139  N        -22.7560   -4.6630    7.1970 N.3   301  VAL301     -0.1245
    140  CA       -23.0030   -5.6850    8.2820 C.3   301  VAL301      0.1561
    141  C        -24.4930   -5.9820    8.2170 C.2   301  VAL301      0.2260
    142  O        -25.3580   -5.1080    8.3750 O.2   301  VAL301     -0.2867
    143  CB       -22.5710   -5.2050    9.6470 C.3   301  VAL301      0.0252
    144  CG1      -23.0040   -6.2680   10.7990 C.3   301  VAL301      0.0019
    145  CG2      -21.0190   -4.8240    9.7020 C.3   301  VAL301      0.0019
    146  N        -27.6120   -8.3430   10.0080 N.3   303  TRP303     -0.1241
    147  CA       -27.8950   -8.8670   11.3050 C.3   303  TRP303      0.1605
    148  C        -28.9910   -9.9130   11.2600 C.2   303  TRP303      0.2264
    149  O        -30.1780   -9.6270   11.4350 O.2   303  TRP303     -0.2867
    150  CB       -28.3160   -7.7330   12.2660 C.3   303  TRP303      0.0550
    151  CG       -27.3030   -6.6790   12.4950 C.ar  303  TRP303      0.0003
    152  CD1      -27.1340   -5.5430   11.7920 C.ar  303  TRP303      0.0946
    153  CD2      -26.2980   -6.6750   13.5110 C.ar  303  TRP303      0.0152
    154  NE1      -26.1220   -4.8260   12.2830 N.ar  303  TRP303     -0.2442
    155  CE2      -25.5630   -5.4770   13.3530 C.ar  303  TRP303      0.0810
    156  CE3      -25.9560   -7.5550   14.5590 C.ar  303  TRP303      0.0012
    157  CZ2      -24.4920   -5.1240   14.1790 C.ar  303  TRP303      0.0191
    158  CZ3      -24.8850   -7.2110   15.3940 C.ar  303  TRP303      0.0001
    159  CH2      -24.1570   -6.0010   15.2120 C.ar  303  TRP303      0.0015
    160  N        -24.6720  -22.4360    5.7710 N.3   339  CYS339     -0.1235
    161  CA       -23.9340  -23.2740    6.7320 C.3   339  CYS339      0.1677
    162  C        -23.7870  -24.7480    6.2790 C.2   339  CYS339      0.2270
    163  O        -24.7660  -25.4150    6.1130 O.2   339  CYS339     -0.2867
    164  CB       -24.6450  -23.3200    8.0060 C.3   339  CYS339      0.0956
    165  SG       -23.7390  -24.1790    9.3200 S.3   339  CYS339     -0.0801
    166  N        -20.8360   -9.3390   19.7600 N.3   375  ASN375     -0.1225
    167  CA       -21.8060   -9.1370   18.7130 C.3   375  ASN375      0.1785
    168  C        -21.5760  -10.0320   17.4800 C.2   375  ASN375      0.2597
    169  O        -22.2020   -9.8550   16.5330 O.2   375  ASN375     -0.2718
    170  CB       -21.8990   -7.6540   18.2650 C.3   375  ASN375      0.1169
    171  CG       -20.6160   -7.1120   17.6750 C.2   375  ASN375      0.2627
    172  OD1      -19.6740   -7.8420   17.3790 O.2   375  ASN375     -0.2716
    173  ND2      -20.5800   -5.7740   17.4900 N.am  375  ASN375     -0.0877
    174  N        -20.6480  -10.9790   17.5500 N.am  376  ARG376     -0.1966
    175  CA       -20.4360  -12.0060   16.5350 C.3   376  ARG376      0.1729
    176  C        -21.0330  -13.3420   16.9020 C.2   376  ARG376      0.2616
    177  O        -21.3600  -14.1250   16.0260 O.2   376  ARG376     -0.2715
    178  CB       -18.9080  -12.2650   16.3970 C.3   376  ARG376      0.0348
    179  CG       -18.1350  -11.0960   15.9040 C.3   376  ARG376      0.0492
    180  CD       -16.6410  -11.4090   15.8520 C.3   376  ARG376      0.2205
    181  NE       -15.8930  -10.1990   15.5200 N.pl3 376  ARG376     -0.0865
    182  CZ       -14.7300  -10.1990   14.8390 C.cat 376  ARG376      0.5346
    183  NH1      -14.1720  -11.3450   14.4040 N.pl3 376  ARG376      0.1354
    184  NH2      -14.1190   -9.0460   14.5800 N.pl3 376  ARG376      0.1354
    185  N        -21.1350  -13.5770   18.1850 N.am  377  HIS377     -0.1973
    186  CA       -21.7910  -14.7770   18.7500 C.3   377  HIS377      0.1656
    187  C        -22.7970  -14.3490   19.7980 C.2   377  HIS377      0.2291
    188  O        -22.4900  -13.4750   20.6060 O.2   377  HIS377     -0.2864
    189  CB       -20.7210  -15.6010   19.5020 C.3   377  HIS377      0.0771
    190  CG       -19.7710  -16.3690   18.6360 C.ar  377  HIS377      0.0820
    191  ND1      -20.1180  -17.5720   18.0630 N.ar  377  HIS377     -0.2267
    192  CD2      -18.4770  -16.1280   18.2590 C.ar  377  HIS377      0.1154
    193  CE1      -19.1000  -18.0400   17.3620 C.ar  377  HIS377      0.1986
    194  NE2      -18.0860  -17.1840   17.4590 N.ar  377  HIS377     -0.2212
@<TRIPOS>BOND
     1    54    53    1
     2    51    50    2
     3    53    55    1
     4    53    52    1
     5    49    50    1
     6    49    52    1
     7    49    48    1
     8    50    56   am
     9    44    43    2
    10    59    58    2
    11    48    43   am
    12    58    57    1
    13    43    42    1
    14    56    57    1
    15    57    60    1
    16    41    42    1
    17    42    45    1
    18   131   130    2
    19   130   129    1
    20   160   161    1
    21    60    61    1
    22   163   162    2
    23   162   161    1
    24    45    46    1
    25    45    47    1
    26    74    73   ar
    27    74    72   ar
    28   161   164    1
    29    73    71   ar
    30    61    62    2
    31    61    63   am
    32    72    70   ar
    33    71    69   ar
    34   129   132    1
    35   129   128    1
    36    70    69   ar
    37   139   140    1
    38    69    68    1
    39   132   133    1
    40    32    31    1
    41    32    33    2
    42    68    65    1
    43    31    34    1
    44    31    30    1
    45   123   124    1
    46   123   120    1
    47   128   121   am
    48   164   165    1
    49   141   140    1
    50   141   142    2
    51   122   121    2
    52   140   143    1
    53   121   120    1
    54   124   125    1
    55    34    35    1
    56   125   126    1
    57    65    64    1
    58    65    66    1
    59   133   134    1
    60   120   119    1
    61   135   134    1
    62   135   136    2
    63   126   127    1
    64   143   145    1
    65   143   144    1
    66   138   136    1
    67   136   137    1
    68    35    36   ar
    69    35    37   ar
    70   119   115   am
    71   146   147    1
    72    66    67    2
    73    36    38   ar
    74    90    88    1
    75    37    39   ar
    76    81    80    1
    77   115   116    2
    78   115   114    1
    79    89    88    1
    80   148   147    1
    81   148   149    2
    82   147   150    1
    83    88    87    1
    84    38    40   ar
    85    87    84    1
    86   152   154   ar
    87   152   151   ar
    88    26    25    1
    89    79    80    1
    90    79    76    1
    91    39    40   ar
    92    80    82    1
    93   114   117    1
    94   114   113    1
    95   150   151    1
    96   154   155   ar
    97   151   153   ar
    98    84    83    1
    99    84    85    1
   100    83    77   am
   101   112   111    1
   102   110   109    2
   103    25    24    1
   104   117   118    1
   105    76    75    1
   106    76    77    1
   107   155   153   ar
   108   155   157   ar
   109    77    78    2
   110    27    24    1
   111    27    28    1
   112   153   156   ar
   113   111   108    1
   114    22    20    1
   115   109   108    1
   116    24    23    1
   117    85    86    2
   118   157   159   ar
   119    28    29    1
   120   183   182    1
   121   156   158   ar
   122   184   182    1
   123   108   107    1
   124     7     6    1
   125    23    29    1
   126    23    18   am
   127   182   181    2
   128    97    96    1
   129    97    98    1
   130    95    92    1
   131    20    21    1
   132    20    17    1
   133   159   158   ar
   134    96    93   am
   135    19    18    2
   136    18    17    1
   137   181   180    1
   138    15    13    1
   139   105   104    1
   140   106   104    1
   141   180   179    1
   142    93    94    2
   143    93    92    1
   144   179   178    1
   145    17    16    1
   146   177   176    2
   147     6     5    1
   148     6     8    1
   149    92    91    1
   150   104   101    1
   151     5     2    1
   152    98    99    2
   153   178   175    1
   154   169   168    2
   155   175   176    1
   156   175   174    1
   157   176   185   am
   158    13    14    1
   159    13    10    1
   160   193   194   ar
   161   193   191   ar
   162   172   171    2
   163   194   192   ar
   164   168   174   am
   165   168   167    1
   166   173   171   am
   167     2     3    1
   168     2     1    1
   169   171   170    1
   170     4     3    2
   171     3     9   am
   172     9    10    1
   173   101   102    1
   174   101   100    1
   175    10    11    1
   176   191   190   ar
   177   185   186    1
   178   102   103    2
   179   192   190   ar
   180   170   167    1
   181   190   189    1
   182   167   166    1
   183   186   189    1
   184   186   187    1
   185    11    12    2
   186   187   188    2
