@<TRIPOS>MOLECULE
tmp/5li9A00.pdb
 223 213 0 0 0
SMALL
GASTEIGER

@<TRIPOS>ATOM
      1  N         -1.0440   13.3590   -2.9180 N.3    14  ILE14      -0.1231
      2  CA        -1.9800   13.7420   -3.9700 C.3    14  ILE14       0.1692
      3  C         -3.2210   12.8530   -3.9880 C.2    14  ILE14       0.2593
      4  O         -4.1860   13.1620   -4.6950 O.2    14  ILE14      -0.2718
      5  CB        -1.2990   13.7420   -5.3560 C.3    14  ILE14       0.0266
      6  CG1       -0.7720   12.3520   -5.7200 C.3    14  ILE14       0.0019
      7  CG2       -0.1690   14.7790   -5.4080 C.3    14  ILE14       0.0020
      8  CD1       -0.1840   12.2820   -7.1190 C.3    14  ILE14       0.0001
      9  N         -3.2230   11.7630   -3.2230 N.am   15  GLY15      -0.1942
     10  CA        -4.3730   10.8750   -3.2200 C.3    15  GLY15       0.2014
     11  C         -4.2460    9.7560   -2.2060 C.2    15  GLY15       0.2639
     12  O         -3.1620    9.4700   -1.6870 O.2    15  GLY15      -0.2714
     13  N         -5.3920    9.1280   -1.9320 N.am   16  ARG16      -0.1963
     14  CA        -5.4740    7.9780   -1.0420 C.3    16  ARG16       0.1729
     15  C         -6.6120    7.0700   -1.4860 C.2    16  ARG16       0.2617
     16  O         -7.6710    7.5510   -1.9010 O.2    16  ARG16      -0.2715
     17  CB        -5.7170    8.3860    0.4120 C.3    16  ARG16       0.0348
     18  CG        -4.5520    9.0020    1.1390 C.3    16  ARG16       0.0492
     19  CD        -4.9420    9.1770    2.6020 C.3    16  ARG16       0.2205
     20  NE        -3.8860    9.7920    3.3950 N.pl3  16  ARG16      -0.0865
     21  CZ        -2.9150    9.1130    3.9970 C.cat  16  ARG16       0.5346
     22  NH1       -2.8610    7.7910    3.8900 N.pl3  16  ARG16       0.1354
     23  NH2       -1.9950    9.7570    4.7030 N.pl3  16  ARG16       0.1354
     24  N         -6.3870    5.7610   -1.3820 N.am   17  GLY17      -0.1940
     25  CA        -7.4270    4.7730   -1.6190 C.3    17  GLY17       0.2014
     26  C         -7.4740    3.7890   -0.4680 C.2    17  GLY17       0.2640
     27  O         -6.9080    4.0660    0.5910 O.2    17  GLY17      -0.2714
     28  N         -8.1150    2.6330   -0.6560 N.am   18  SER18      -0.1935
     29  CA        -8.2050    1.6480    0.4170 C.3    18  SER18       0.2055
     30  C         -6.8880    0.9110    0.6470 C.2    18  SER18       0.2643
     31  O         -6.6400    0.4350    1.7610 O.2    18  SER18      -0.2714
     32  CB        -9.3230    0.6470    0.1230 C.3    18  SER18       0.2130
     33  OG       -10.5930    1.2500    0.2780 O.3    18  SER18      -0.2179
     34  N         -6.0390    0.7970   -0.3770 N.am   19  TYR19      -0.1959
     35  CA        -4.7310    0.1720   -0.2140 C.3    19  TYR19       0.1771
     36  C         -3.5830    1.1660   -0.1680 C.2    19  TYR19       0.2619
     37  O         -2.5970    0.9120    0.5250 O.2    19  TYR19      -0.2715
     38  CB        -4.4380   -0.8210   -1.3550 C.3    19  TYR19       0.0574
     39  CG        -5.0970   -2.1830   -1.2480 C.ar   19  TYR19      -0.0198
     40  CD1       -6.1630   -2.5230   -2.0770 C.ar   19  TYR19      -0.0009
     41  CD2       -4.6400   -3.1400   -0.3390 C.ar   19  TYR19      -0.0009
     42  CE1       -6.7730   -3.7720   -1.9950 C.ar   19  TYR19       0.0417
     43  CE2       -5.2470   -4.4030   -0.2530 C.ar   19  TYR19       0.0417
     44  CZ        -6.3150   -4.7020   -1.0860 C.ar   19  TYR19       0.1957
     45  OH        -6.9290   -5.9340   -1.0220 O.3    19  TYR19      -0.2866
     46  N         -3.6700    2.2740   -0.9060 N.am   20  ALA20      -0.1977
     47  CA        -2.5030    3.0850   -1.2150 C.3    20  ALA20       0.1597
     48  C         -2.6310    4.5100   -0.6960 C.2    20  ALA20       0.2287
     49  O         -3.7280    5.0740   -0.6150 O.2    20  ALA20      -0.2864
     50  CB        -2.2530    3.1300   -2.7300 C.3    20  ALA20       0.0319
     51  N         -0.8460    7.9480   -2.1470 N.3    22  VAL22      -0.1245
     52  CA        -0.2250    8.3070   -3.4170 C.3    22  VAL22       0.1561
     53  C          0.4400    9.6640   -3.2720 C.2    22  VAL22       0.2260
     54  O         -0.1840   10.6220   -2.8010 O.2    22  VAL22      -0.2867
     55  CB        -1.2360    8.3170   -4.5760 C.3    22  VAL22       0.0252
     56  CG1       -0.5050    8.5440   -5.9040 C.3    22  VAL22       0.0019
     57  CG2       -2.0010    7.0020   -4.6250 C.3    22  VAL22       0.0019
     58  N          4.1370    9.7900  -10.0230 N.3    35  ALA35      -0.1245
     59  CA         3.2920    9.4130   -8.9030 C.3    35  ALA35       0.1562
     60  C          3.8790    8.1640   -8.2560 C.2    35  ALA35       0.2260
     61  O          4.4650    7.3160   -8.9290 O.2    35  ALA35      -0.2867
     62  CB         1.8460    9.1630   -9.3520 C.3    35  ALA35       0.0290
     63  N          2.6800    5.1480   -5.6130 N.3    37  LYS37      -0.1245
     64  CA         1.6550    4.4880   -4.8160 C.3    37  LYS37       0.1561
     65  C          2.3530    3.6920   -3.7240 C.2    37  LYS37       0.2260
     66  O          3.2040    2.8460   -4.0200 O.2    37  LYS37      -0.2867
     67  CB         0.7780    3.5730   -5.6710 C.3    37  LYS37       0.0271
     68  CG         0.0330    4.2730   -6.7970 C.3    37  LYS37       0.0035
     69  CD        -0.9600    3.3280   -7.4750 C.3    37  LYS37       0.0206
     70  CE        -2.0600    2.9020   -6.5130 C.3    37  LYS37       0.1093
     71  NZ        -3.1590    2.1490   -7.1860 N.3    37  LYS37      -0.1314
     72  N         -4.5480   -8.9340   -5.6940 N.3    52  TRP52      -0.1241
     73  CA        -4.7240   -7.5310   -6.0490 C.3    52  TRP52       0.1605
     74  C         -3.3850   -6.8910   -6.3960 C.2    52  TRP52       0.2264
     75  O         -3.2240   -6.2770   -7.4600 O.2    52  TRP52      -0.2867
     76  CB        -5.3930   -6.7800   -4.8960 C.3    52  TRP52       0.0550
     77  CG        -5.6650   -5.3360   -5.2060 C.ar   52  TRP52       0.0003
     78  CD1       -4.7880   -4.2970   -5.1060 C.ar   52  TRP52       0.0946
     79  CD2       -6.8990   -4.7760   -5.6750 C.ar   52  TRP52       0.0152
     80  NE1       -5.3980   -3.1240   -5.4840 N.ar   52  TRP52      -0.2442
     81  CE2       -6.6940   -3.3890   -5.8360 C.ar   52  TRP52       0.0810
     82  CE3       -8.1580   -5.3110   -5.9720 C.ar   52  TRP52       0.0012
     83  CZ2       -7.7020   -2.5280   -6.2820 C.ar   52  TRP52       0.0191
     84  CZ3       -9.1560   -4.4580   -6.4150 C.ar   52  TRP52       0.0001
     85  CH2       -8.9220   -3.0810   -6.5670 C.ar   52  TRP52       0.0015
     86  N         -2.1710   -5.7740  -10.0950 N.3    56  GLU56      -0.1245
     87  CA        -1.8510   -4.3800  -10.3740 C.3    56  GLU56       0.1567
     88  C         -0.4590   -4.2540  -10.9820 C.2    56  GLU56       0.2260
     89  O         -0.2590   -3.5280  -11.9620 O.2    56  GLU56      -0.2867
     90  CB        -1.9610   -3.5430   -9.1000 C.3    56  GLU56       0.0388
     91  CG        -1.6510   -2.0740   -9.3330 C.3    56  GLU56       0.1160
     92  CD        -2.0110   -1.1930   -8.1540 C.2    56  GLU56       0.3649
     93  OE1       -2.0790   -1.7060   -7.0140 O.co2  56  GLU56      -0.2457
     94  OE2       -2.2250    0.0170   -8.3760 O.co2  56  GLU56      -0.2457
     95  N         -1.7250    3.9700  -17.6560 N.3    70  VAL70      -0.1245
     96  CA        -0.7160    4.5660  -16.7810 C.3    70  VAL70       0.1561
     97  C          0.5390    3.6960  -16.7860 C.2    70  VAL70       0.2260
     98  O          0.4960    2.5290  -16.3800 O.2    70  VAL70      -0.2867
     99  CB        -1.2660    4.7410  -15.3560 C.3    70  VAL70       0.0252
    100  CG1       -0.1860    5.2630  -14.4240 C.3    70  VAL70       0.0019
    101  CG2       -2.4690    5.6790  -15.3710 C.3    70  VAL70       0.0019
    102  N          5.0000    5.4630  -10.8590 N.3    86  ILE86      -0.1231
    103  CA         4.1920    5.3960  -12.0710 C.3    86  ILE86       0.1692
    104  C          4.0650    6.7830  -12.6890 C.2    86  ILE86       0.2592
    105  O          4.4720    7.7940  -12.1150 O.2    86  ILE86      -0.2718
    106  CB         2.8000    4.7890  -11.7950 C.3    86  ILE86       0.0266
    107  CG1        2.0000    5.6860  -10.8420 C.3    86  ILE86       0.0019
    108  CG2        2.9460    3.3940  -11.1940 C.3    86  ILE86       0.0020
    109  CD1        0.6850    5.0930  -10.3940 C.3    86  ILE86       0.0001
    110  N          3.5090    6.8080  -13.8950 N.am   87  GLU87      -0.1966
    111  CA         3.3130    8.0540  -14.6130 C.3    87  GLU87       0.1733
    112  C          2.4810    9.0160  -13.7810 C.2    87  GLU87       0.2616
    113  O          1.4560    8.6350  -13.2220 O.2    87  GLU87      -0.2715
    114  CB         2.6260    7.7660  -15.9470 C.3    87  GLU87       0.0429
    115  CG         2.5150    8.9430  -16.8730 C.3    87  GLU87       0.1163
    116  CD         1.9720    8.5350  -18.2300 C.2    87  GLU87       0.3649
    117  OE1        1.6470    7.3330  -18.4060 O.co2  87  GLU87      -0.2457
    118  OE2        1.8710    9.4150  -19.1100 O.co2  87  GLU87      -0.2457
    119  N          2.9200   10.2640  -13.7010 N.am   88  TYR88      -0.1960
    120  CA         2.1770   11.2990  -12.9840 C.3    88  TYR88       0.1771
    121  C          1.0890   11.8750  -13.8930 C.2    88  TYR88       0.2619
    122  O          1.3950   12.4160  -14.9610 O.2    88  TYR88      -0.2715
    123  CB         3.1560   12.3810  -12.5300 C.3    88  TYR88       0.0574
    124  CG         2.5570   13.5970  -11.8660 C.ar   88  TYR88      -0.0198
    125  CD1        1.7170   13.4800  -10.7610 C.ar   88  TYR88      -0.0009
    126  CD2        2.8660   14.8670  -12.3230 C.ar   88  TYR88      -0.0009
    127  CE1        1.1970   14.6000  -10.1440 C.ar   88  TYR88       0.0417
    128  CE2        2.3550   15.9880  -11.7230 C.ar   88  TYR88       0.0417
    129  CZ         1.5230   15.8530  -10.6330 C.ar   88  TYR88       0.1957
    130  OH         1.0230   16.9820  -10.0440 O.3    88  TYR88      -0.2866
    131  N         -0.1740   11.7540  -13.4770 N.am   89  VAL89      -0.1977
    132  CA        -1.3340   12.1350  -14.2920 C.3    89  VAL89       0.1596
    133  C         -2.1210   13.1760  -13.5040 C.2    89  VAL89       0.2287
    134  O         -2.7040   12.8580  -12.4610 O.2    89  VAL89      -0.2864
    135  CB        -2.2130   10.9220  -14.6380 C.3    89  VAL89       0.0276
    136  CG1       -3.3210   11.3170  -15.6070 C.3    89  VAL89       0.0022
    137  CG2       -1.3600    9.7990  -15.2190 C.3    89  VAL89       0.0022
    138  N         -9.8450   13.9360  -12.8570 N.3    93  ASP93      -0.1239
    139  CA       -10.4990   12.7010  -13.2660 C.3    93  ASP93       0.1674
    140  C        -11.9210   13.0570  -13.6700 C.2    93  ASP93       0.2266
    141  O        -12.3870   14.1750  -13.4380 O.2    93  ASP93      -0.2867
    142  CB       -10.4660   11.6360  -12.1560 C.3    93  ASP93       0.1410
    143  CG       -11.2200   12.0580  -10.8920 C.2    93  ASP93       0.3668
    144  OD1      -10.5740   12.2390   -9.8410 O.co2  93  ASP93      -0.2456
    145  OD2      -12.4570   12.2050  -10.9340 O.co2  93  ASP93      -0.2456
    146  N        -13.0910   -2.4180  -13.4810 N.3   132  ASP132     -0.1239
    147  CA       -13.1580   -1.3290  -12.5110 C.3   132  ASP132      0.1674
    148  C        -13.4780    0.0140  -13.1660 C.2   132  ASP132      0.2266
    149  O        -13.1790    1.0700  -12.5940 O.2   132  ASP132     -0.2867
    150  CB       -11.8470   -1.2430  -11.7180 C.3   132  ASP132      0.1410
    151  CG       -12.0470   -0.7240  -10.3030 C.2   132  ASP132      0.3668
    152  OD1      -13.2130   -0.5560   -9.8790 O.co2 132  ASP132     -0.2456
    153  OD2      -11.0250   -0.5010   -9.6110 O.co2 132  ASP132     -0.2456
    154  N        -15.1440    3.3010  -13.8980 N.3   134  LYS134     -0.1245
    155  CA       -16.0560    4.2340  -13.2540 C.3   134  LYS134      0.1561
    156  C        -15.4810    5.6320  -13.4340 C.2   134  LYS134      0.2260
    157  O        -14.3060    5.7940  -13.7660 O.2   134  LYS134     -0.2867
    158  CB       -16.2640    3.8920  -11.7660 C.3   134  LYS134      0.0271
    159  CG       -14.9810    3.7720  -10.9400 C.3   134  LYS134      0.0035
    160  CD       -15.2870    3.3160   -9.5130 C.3   134  LYS134      0.0206
    161  CE       -14.0220    3.2080   -8.6750 C.3   134  LYS134      0.1093
    162  NZ       -14.3120    3.0120   -7.2220 N.3   134  LYS134     -0.1314
    163  N        -14.4240    7.9740  -11.4950 N.3   136  ASP136     -0.1225
    164  CA       -13.2030    8.4140  -10.8290 C.3   136  ASP136      0.1805
    165  C        -12.0030    7.5160  -11.1180 C.2   136  ASP136      0.2597
    166  O        -10.9020    7.8180  -10.6450 O.2   136  ASP136     -0.2718
    167  CB       -13.4150    8.5800   -9.3150 C.3   136  ASP136      0.1424
    168  CG       -13.8280    7.3100   -8.6200 C.2   136  ASP136      0.3668
    169  OD1      -14.7710    7.3800   -7.8040 O.co2 136  ASP136     -0.2456
    170  OD2      -13.2030    6.2570   -8.8540 O.co2 136  ASP136     -0.2456
    171  N        -12.1640    6.4590  -11.9180 N.am  137  ASN137     -0.1974
    172  CA       -11.0280    5.6860  -12.4080 C.3   137  ASN137      0.1688
    173  C        -10.6280    6.0730  -13.8260 C.2   137  ASN137      0.2292
    174  O         -9.7800    5.4060  -14.4270 O.2   137  ASN137     -0.2864
    175  CB       -11.3210    4.1870  -12.3430 C.3   137  ASN137      0.1181
    176  CG       -11.1010    3.6150  -10.9610 C.2   137  ASN137      0.2629
    177  OD1      -10.5470    4.2780  -10.0810 O.2   137  ASN137     -0.2716
    178  ND2      -11.5160    2.3730  -10.7650 N.am  137  ASN137     -0.0877
    179  N         -8.8100    8.9980  -15.3250 N.3   139  LEU139     -0.1245
    180  CA        -8.0600   10.2170  -15.0910 C.3   139  LEU139      0.1561
    181  C         -7.9860   11.0240  -16.3760 C.2   139  LEU139      0.2260
    182  O         -8.1480   10.4970  -17.4770 O.2   139  LEU139     -0.2867
    183  CB        -6.6440    9.9060  -14.6100 C.3   139  LEU139      0.0270
    184  CG        -6.5090    9.0420  -13.3620 C.3   139  LEU139      0.0019
    185  CD1       -5.0360    8.8500  -13.0300 C.3   139  LEU139      0.0001
    186  CD2       -7.2560    9.6860  -12.2180 C.3   139  LEU139      0.0001
    187  N         -7.0820    3.9190  -14.8360 N.3   149  THR149     -0.1203
    188  CA        -6.2280    3.7030  -13.6810 C.3   149  THR149      0.1994
    189  C         -6.8700    2.6640  -12.7680 C.2   149  THR149      0.2617
    190  O         -8.0040    2.2310  -12.9880 O.2   149  THR149     -0.2717
    191  CB        -5.9810    5.0270  -12.9410 C.3   149  THR149      0.1784
    192  OG1       -4.9290    4.8570  -11.9920 O.3   149  THR149     -0.2211
    193  CG2       -7.2380    5.4760  -12.2130 C.3   149  THR149      0.0376
    194  N         -6.1190    2.2480  -11.7420 N.am  150  ASP150     -0.1973
    195  CA        -6.6370    1.3460  -10.7170 C.3   150  ASP150      0.1709
    196  C         -6.8000   -0.0630  -11.2790 C.2   150  ASP150      0.2293
    197  O         -7.9180   -0.4810  -11.5970 O.2   150  ASP150     -0.2864
    198  CB        -7.9710    1.8740  -10.1740 C.3   150  ASP150      0.1436
    199  CG        -8.3090    1.3290   -8.8030 C.2   150  ASP150      0.3671
    200  OD1       -7.6550    0.3620   -8.3490 O.co2 150  ASP150     -0.2456
    201  OD2       -9.2410    1.8780   -8.1760 O.co2 150  ASP150     -0.2456
    202  N         -5.9960   18.1040   -7.7420 N.3   293  PHE293     -0.1241
    203  CA        -6.1110   17.1570   -6.6430 C.3   293  PHE293      0.1605
    204  C         -6.8290   17.8140   -5.4700 C.2   293  PHE293      0.2264
    205  O         -6.6950   19.0160   -5.2320 O.2   293  PHE293     -0.2867
    206  CB        -4.7360   16.6570   -6.1960 C.3   293  PHE293      0.0534
    207  CG        -3.9550   15.9840   -7.2870 C.ar  293  PHE293     -0.0203
    208  CD1       -4.3020   14.7080   -7.7200 C.ar  293  PHE293     -0.0042
    209  CD2       -2.8800   16.6230   -7.8770 C.ar  293  PHE293     -0.0042
    210  CE1       -3.5930   14.0870   -8.7250 C.ar  293  PHE293     -0.0003
    211  CE2       -2.1550   16.0050   -8.8850 C.ar  293  PHE293     -0.0003
    212  CZ        -2.5120   14.7350   -9.3120 C.ar  293  PHE293     -0.0000
    213  N         -5.7790   16.1240    0.3670 N.3   297  PHE297     -0.1241
    214  CA        -4.5080   15.4150    0.2970 C.3   297  PHE297      0.1605
    215  C         -3.3240   16.3590    0.1440 C.2   297  PHE297      0.2264
    216  O         -2.3010   16.1690    0.8070 O.2   297  PHE297     -0.2867
    217  CB        -4.5310   14.4170   -0.8600 C.3   297  PHE297      0.0534
    218  CG        -5.7390   13.5340   -0.8630 C.ar  297  PHE297     -0.0203
    219  CD1       -5.9460   12.6280    0.1590 C.ar  297  PHE297     -0.0042
    220  CD2       -6.6660   13.6120   -1.8880 C.ar  297  PHE297     -0.0042
    221  CE1       -7.0580   11.8180    0.1660 C.ar  297  PHE297     -0.0003
    222  CE2       -7.7760   12.7990   -1.8960 C.ar  297  PHE297     -0.0003
    223  CZ        -7.9770   11.9010   -0.8680 C.ar  297  PHE297     -0.0000
@<TRIPOS>BOND
     1   118   116   ar
     2   117   116   ar
     3   116   115    1
     4    95    96    1
     5   182   181    2
     6   115   114    1
     7    97    96    1
     8    97    98    2
     9    96    99    1
    10   181   180    1
    11   114   111    1
    12   136   135    1
    13   101    99    1
    14    99   100    1
    15   179   180    1
    16   137   135    1
    17   180   183    1
    18   122   121    2
    19   187   188    1
    20   135   132    1
    21   111   110    1
    22   111   112    1
    23   183   184    1
    24   174   173    2
    25   132   133    1
    26   132   131    1
    27   154   155    1
    28   110   104   am
    29   121   131   am
    30   121   120    1
    31   173   172    1
    32   112   119   am
    33   112   113    2
    34   157   156    2
    35   119   120    1
    36   188   191    1
    37   188   189    1
    38   140   141    2
    39   140   139    1
    40   133   134    2
    41   146   147    1
    42   156   155    1
    43   184   185    1
    44   184   186    1
    45   139   138    1
    46   139   142    1
    47   155   158    1
    48   148   149    2
    49   148   147    1
    50   190   189    2
    51   120   123    1
    52   191   193    1
    53   191   192    1
    54   189   194   am
    55   104   105    2
    56   104   103    1
    57   123   124    1
    58   147   150    1
    59   172   175    1
    60   172   171    1
    61   175   176    1
    62   126   124   ar
    63   126   128   ar
    64   142   143    1
    65   103   106    1
    66   103   102    1
    67    89    88    2
    68   171   165   am
    69   124   125   ar
    70   106   108    1
    71   106   107    1
    72   158   159    1
    73   194   195    1
    74   128   129   ar
    75   150   151    1
    76   197   196    2
    77   163   164    1
    78   196   195    1
    79   165   164    1
    80   165   166    2
    81    88    87    1
    82   176   178   am
    83   176   177    2
    84   159   160    1
    85   145   143   ar
    86   143   144   ar
    87   107   109    1
    88   164   167    1
    89   125   127   ar
    90   195   198    1
    91   129   127   ar
    92   129   130    1
    93    87    86    1
    94    87    90    1
    95   151   152   ar
    96   151   153   ar
    97   198   199    1
    98    58    59    1
    99   160   161    1
   100    62    59    1
   101    91    90    1
   102    91    92    1
   103   167   168    1
   104   212   211   ar
   105   212   210   ar
   106    61    60    2
   107    59    60    1
   108   211   209   ar
   109   170   168   ar
   110   199   200   ar
   111   199   201   ar
   112   210   208   ar
   113   161   162    1
   114   168   169   ar
   115    94    92   ar
   116    92    93   ar
   117   209   207   ar
   118   202   203    1
   119   208   207   ar
   120    69    68    1
   121    69    70    1
   122    75    74    2
   123   207   206    1
   124    71    70    1
   125     8     6    1
   126    68    67    1
   127   203   206    1
   128   203   204    1
   129    85    84   ar
   130    85    83   ar
   131    84    82   ar
   132    74    73    1
   133    83    81   ar
   134    73    72    1
   135    73    76    1
   136    82    79   ar
   137    56    55    1
   138    81    79   ar
   139    81    80   ar
   140     6     5    1
   141    79    77   ar
   142    67    64    1
   143    63    64    1
   144    80    78   ar
   145   204   205    2
   146     7     5    1
   147     5     2    1
   148    77    78   ar
   149    77    76    1
   150    64    65    1
   151     4     3    2
   152    57    55    1
   153    55    52    1
   154    66    65    2
   155     3     2    1
   156     3     9   am
   157     2     1    1
   158    52    53    1
   159    52    51    1
   160    53    54    2
   161     9    10    1
   162    10    11    1
   163    50    47    1
   164    11    13   am
   165    11    12    2
   166    40    42   ar
   167    40    39   ar
   168    42    44   ar
   169    13    14    1
   170    16    15    2
   171   222   220   ar
   172   222   223   ar
   173   220   218   ar
   174    25    24    1
   175    25    26    1
   176    15    24   am
   177    15    14    1
   178    38    39    1
   179    38    35    1
   180    39    41   ar
   181    47    46    1
   182    47    48    1
   183    44    45    1
   184    44    43   ar
   185    14    17    1
   186    46    36   am
   187   223   221   ar
   188   218   217    1
   189   218   219   ar
   190   217   214    1
   191    48    49    2
   192    28    26   am
   193    28    29    1
   194    26    27    2
   195    34    35    1
   196    34    30   am
   197    41    43   ar
   198    35    36    1
   199    36    37    2
   200    32    33    1
   201    32    29    1
   202   215   214    1
   203   215   216    2
   204   219   221   ar
   205   214   213    1
   206    17    18    1
   207    29    30    1
   208    30    31    2
   209    18    19    1
   210    19    20    1
   211    20    21    2
   212    22    21    1
   213    21    23    1
