@<TRIPOS>MOLECULE
tmp/5liaA03.pdb
 106 108 0 0 0
SMALL
GASTEIGER

@<TRIPOS>ATOM
      1  N        -35.4620   26.7230  -24.7890 N.3   173  GLU173     -0.1231
      2  CA       -36.2930   26.9770  -25.9600 C.3   173  GLU173      0.1699
      3  C        -36.9390   25.7040  -26.5690 C.2   173  GLU173      0.2593
      4  O        -37.9900   25.7950  -27.2690 O.2   173  GLU173     -0.2718
      5  CB       -35.4830   27.7440  -27.0310 C.3   173  GLU173      0.0402
      6  CG       -34.4420   26.9210  -27.7510 C.3   173  GLU173      0.1161
      7  CD       -33.6290   27.6440  -28.8380 C.2   173  GLU173      0.3649
      8  OE1      -33.8320   28.8850  -29.1100 O.co2 173  GLU173     -0.2457
      9  OE2      -32.7280   26.9620  -29.4400 O.co2 173  GLU173     -0.2457
     10  N        -36.2700   24.5700  -26.3800 N.am  174  SER174     -0.1938
     11  CA       -36.7520   23.3070  -26.8400 C.3   174  SER174      0.2055
     12  C        -37.6540   22.5660  -25.8130 C.2   174  SER174      0.2643
     13  O        -38.6330   21.9580  -26.2200 O.2   174  SER174     -0.2714
     14  CB       -35.5810   22.4140  -27.2670 C.3   174  SER174      0.2130
     15  OG       -35.0600   22.9080  -28.5150 O.3   174  SER174     -0.2179
     16  N        -37.2740   22.5250  -24.5400 N.am  175  HIS175     -0.1959
     17  CA       -38.1490   21.8570  -23.5960 C.3   175  HIS175      0.1787
     18  C        -39.3720   22.6720  -23.1710 C.2   175  HIS175      0.2620
     19  O        -40.2980   22.1160  -22.6850 O.2   175  HIS175     -0.2715
     20  CB       -37.3710   21.2460  -22.4100 C.3   175  HIS175      0.0785
     21  CG       -36.6240   22.2090  -21.5690 C.ar  175  HIS175      0.0821
     22  ND1      -37.2370   23.2550  -20.9070 N.ar  175  HIS175     -0.2267
     23  CD2      -35.3610   22.1900  -21.1390 C.ar  175  HIS175      0.1154
     24  CE1      -36.3660   23.8220  -20.1150 C.ar  175  HIS175      0.1986
     25  NE2      -35.2150   23.2270  -20.2690 N.ar  175  HIS175     -0.2212
     26  N        -39.3370   24.0000  -23.3500 N.am  176  GLY176     -0.1954
     27  CA       -40.4810   24.8270  -23.1210 C.3   176  GLY176      0.1869
     28  C        -40.5250   25.5480  -21.7960 C.2   176  GLY176      0.2309
     29  O        -41.3250   26.4650  -21.6220 O.2   176  GLY176     -0.2863
     30  N        -49.1390   20.1910  -20.0870 N.3   202  ARG202     -0.1231
     31  CA       -48.9900   20.9140  -21.3470 C.3   202  ARG202      0.1694
     32  C        -47.7700   21.8000  -21.4660 C.2   202  ARG202      0.2592
     33  O        -47.2990   22.0330  -22.5780 O.2   202  ARG202     -0.2718
     34  CB       -50.2630   21.7000  -21.6270 C.3   202  ARG202      0.0321
     35  CG       -50.4400   22.8720  -20.6940 C.3   202  ARG202      0.0489
     36  CD       -51.7000   23.5550  -21.0730 C.3   202  ARG202      0.2205
     37  NE       -51.9660   24.6160  -20.1190 N.pl3 202  ARG202     -0.0865
     38  CZ       -52.9790   25.4430  -20.2040 C.cat 202  ARG202      0.5346
     39  NH1      -53.8280   25.3110  -21.1820 N.pl3 202  ARG202      0.1354
     40  NH2      -53.1340   26.4130  -19.3080 N.pl3 202  ARG202      0.1354
     41  N        -47.1870   22.2500  -20.3400 N.am  203  TRP203     -0.1962
     42  CA       -46.0390   23.1300  -20.4190 C.3   203  TRP203      0.1771
     43  C        -44.7070   22.4310  -20.7040 C.2   203  TRP203      0.2620
     44  O        -43.7900   23.0770  -21.2290 O.2   203  TRP203     -0.2715
     45  CB       -45.8480   23.8650  -19.0710 C.3   203  TRP203      0.0590
     46  CG       -47.0080   24.7340  -18.7620 C.ar  203  TRP203      0.0006
     47  CD1      -48.0670   24.4340  -18.0070 C.ar  203  TRP203      0.0946
     48  CD2      -47.1890   26.0950  -19.1720 C.ar  203  TRP203      0.0152
     49  NE1      -48.9120   25.5200  -17.9130 N.ar  203  TRP203     -0.2442
     50  CE2      -48.3930   26.5460  -18.6290 C.ar  203  TRP203      0.0810
     51  CE3      -46.4270   26.9750  -19.8960 C.ar  203  TRP203      0.0012
     52  CZ2      -48.8580   27.8690  -18.7940 C.ar  203  TRP203      0.0191
     53  CZ3      -46.8900   28.2870  -20.0360 C.ar  203  TRP203      0.0001
     54  CH2      -48.0790   28.6940  -19.5100 C.ar  203  TRP203      0.0015
     55  N        -44.6540   21.1040  -20.4340 N.am  204  TRP204     -0.1960
     56  CA       -43.4140   20.4020  -20.2500 C.3   204  TRP204      0.1771
     57  C        -43.0810   19.5640  -21.4890 C.2   204  TRP204      0.2620
     58  O        -43.6350   18.4950  -21.6930 O.2   204  TRP204     -0.2715
     59  CB       -43.4860   19.4770  -19.0370 C.3   204  TRP204      0.0590
     60  CG       -43.8870   20.2170  -17.7620 C.ar  204  TRP204      0.0006
     61  CD1      -45.1410   20.5710  -17.3920 C.ar  204  TRP204      0.0946
     62  CD2      -43.0110   20.7250  -16.7770 C.ar  204  TRP204      0.0152
     63  NE1      -45.0890   21.2920  -16.1930 N.ar  204  TRP204     -0.2442
     64  CE2      -43.7880   21.4080  -15.8170 C.ar  204  TRP204      0.0810
     65  CE3      -41.6320   20.6980  -16.6060 C.ar  204  TRP204      0.0012
     66  CZ2      -43.2390   21.9890  -14.6950 C.ar  204  TRP204      0.0191
     67  CZ3      -41.0680   21.3450  -15.4700 C.ar  204  TRP204      0.0001
     68  CH2      -41.8690   22.0020  -14.5610 C.ar  204  TRP204      0.0015
     69  N        -42.1780   20.0360  -22.2980 N.am  205  GLY205     -0.1940
     70  CA       -41.7980   19.3040  -23.5360 C.3   205  GLY205      0.2014
     71  C        -40.6050   18.3550  -23.3820 C.2   205  GLY205      0.2639
     72  O        -40.1220   18.1170  -22.3200 O.2   205  GLY205     -0.2714
     73  N        -40.1410   17.7470  -24.4660 N.am  206  GLY206     -0.1954
     74  CA       -38.9760   16.8870  -24.3450 C.3   206  GLY206      0.1869
     75  C        -39.3130   15.5800  -23.6330 C.2   206  GLY206      0.2309
     76  O        -40.4760   15.2170  -23.4470 O.2   206  GLY206     -0.2863
     77  N        -38.9980   29.8660  -29.2800 N.3   387  ASN387     -0.1225
     78  CA       -40.1650   29.4250  -28.5510 C.3   387  ASN387      0.1785
     79  C        -41.1080   30.5430  -28.4600 C.2   387  ASN387      0.2597
     80  O        -40.7190   31.6880  -28.1870 O.2   387  ASN387     -0.2718
     81  CB       -39.7420   28.9530  -27.1460 C.3   387  ASN387      0.1169
     82  CG       -40.8080   28.1450  -26.4700 C.2   387  ASN387      0.2627
     83  OD1      -41.8470   28.7010  -26.0640 O.2   387  ASN387     -0.2716
     84  ND2      -40.5850   26.7980  -26.3810 N.am  387  ASN387     -0.0877
     85  N        -42.3870   30.2350  -28.6380 N.am  388  ARG388     -0.1966
     86  CA       -43.4260   31.2430  -28.5800 C.3   388  ARG388      0.1729
     87  C        -43.5810   31.8810  -27.2000 C.2   388  ARG388      0.2616
     88  O        -44.2320   32.9210  -27.0690 O.2   388  ARG388     -0.2715
     89  CB       -44.7630   30.6880  -29.0330 C.3   388  ARG388      0.0348
     90  CG       -45.3190   29.6620  -28.0790 C.3   388  ARG388      0.0492
     91  CD       -46.4720   28.9050  -28.7520 C.3   388  ARG388      0.2205
     92  NE       -47.1450   28.0870  -27.7590 N.pl3 388  ARG388     -0.0865
     93  CZ       -47.7280   26.9190  -27.9790 C.cat 388  ARG388      0.5346
     94  NH1      -47.8020   26.3710  -29.2240 N.pl3 388  ARG388      0.1354
     95  NH2      -48.2880   26.3130  -26.9390 N.pl3 388  ARG388      0.1354
     96  N        -43.0790   31.2480  -26.1720 N.am  389  ARG389     -0.1977
     97  CA       -43.1750   31.8240  -24.8520 C.3   389  ARG389      0.1597
     98  C        -42.0600   32.8390  -24.5590 C.2   389  ARG389      0.2287
     99  O        -42.0260   33.3710  -23.4740 O.2   389  ARG389     -0.2864
    100  CB       -43.0670   30.7010  -23.7930 C.3   389  ARG389      0.0334
    101  CG       -44.2350   29.7130  -23.9080 C.3   389  ARG389      0.0492
    102  CD       -43.8480   28.3660  -23.2590 C.3   389  ARG389      0.2205
    103  NE       -44.9010   27.3850  -23.4280 N.pl3 389  ARG389     -0.0865
    104  CZ       -44.8420   26.0980  -23.1450 C.cat 389  ARG389      0.5346
    105  NH1      -43.8680   25.5610  -22.5730 N.pl3 389  ARG389      0.1354
    106  NH2      -45.8900   25.3640  -23.3300 N.pl3 389  ARG389      0.1354
@<TRIPOS>BOND
     1     9     7   ar
     2    77    78    1
     3    94    93    1
     4     8     7   ar
     5    89    86    1
     6    89    90    1
     7     7     6    1
     8    91    90    1
     9    91    92    1
    10    85    86    1
    11    85    79   am
    12    86    87    1
    13    78    79    1
    14    78    81    1
    15    15    14    1
    16    79    80    2
    17    93    92    2
    18    93    95    1
    19     6     5    1
    20     4     3    2
    21    14    11    1
    22    87    88    2
    23    87    96   am
    24    81    82    1
    25     5     2    1
    26    11    10    1
    27    11    12    1
    28     3    10   am
    29     3     2    1
    30    82    84   am
    31    82    83    2
    32    13    12    2
    33    96    97    1
    34     2     1    1
    35    12    16   am
    36    97    98    1
    37    97   100    1
    38    98    99    2
    39    16    17    1
    40    73    74    1
    41    73    71   am
    42    74    75    1
    43   101   100    1
    44   101   102    1
    45    75    76    2
    46    17    18    1
    47    17    20    1
    48    70    71    1
    49    70    69    1
    50   103   102    1
    51   103   104    2
    52    71    72    2
    53    26    18   am
    54    26    27    1
    55   106   104    1
    56    18    19    2
    57   104   105    1
    58    27    28    1
    59    33    32    2
    60    20    21    1
    61    69    57   am
    62    28    29    2
    63    58    57    2
    64    34    31    1
    65    34    35    1
    66    21    23   ar
    67    21    22   ar
    68    57    56    1
    69    32    31    1
    70    32    41   am
    71    31    30    1
    72    44    43    2
    73    39    38    1
    74    23    25   ar
    75    36    35    1
    76    36    37    1
    77    22    24   ar
    78    43    55   am
    79    43    42    1
    80    55    56    1
    81    42    41    1
    82    42    45    1
    83    25    24   ar
    84    56    59    1
    85    38    37    2
    86    38    40    1
    87    53    51   ar
    88    53    54   ar
    89    51    48   ar
    90    54    52   ar
    91    48    46   ar
    92    48    50   ar
    93    45    46    1
    94    59    60    1
    95    52    50   ar
    96    46    47   ar
    97    50    49   ar
    98    47    49   ar
    99    60    61   ar
   100    60    62   ar
   101    61    63   ar
   102    62    65   ar
   103    62    64   ar
   104    65    67   ar
   105    63    64   ar
   106    64    66   ar
   107    67    68   ar
   108    66    68   ar
