@<TRIPOS>MOLECULE
tmp/5liaA05.pdb
 246 243 0 0 0
SMALL
GASTEIGER

@<TRIPOS>ATOM
      1  N        -46.2770   13.3080   -3.7540 N.3    28  LEU28      -0.1245
      2  CA       -46.9570   14.4490   -4.2380 C.3    28  LEU28       0.1561
      3  C        -48.4070   14.5140   -3.7910 C.2    28  LEU28       0.2260
      4  O        -49.0830   15.4180   -4.1850 O.2    28  LEU28      -0.2867
      5  CB       -46.8520   14.5240   -5.7530 C.3    28  LEU28       0.0270
      6  CG       -45.5350   15.1290   -6.3010 C.3    28  LEU28       0.0019
      7  CD1      -45.7240   15.4650   -7.7840 C.3    28  LEU28       0.0001
      8  CD2      -45.0280   16.3830   -5.5710 C.3    28  LEU28       0.0001
      9  N        -49.5350   18.1030   -2.4720 N.3    31  SER31      -0.1217
     10  CA       -49.7850   19.0100   -3.6000 C.3    31  SER31       0.1889
     11  C        -51.1900   18.8950   -4.1340 C.2    31  SER31       0.2288
     12  O        -51.8270   19.9010   -4.4290 O.2    31  SER31      -0.2866
     13  CB       -48.8110   18.7320   -4.7280 C.3    31  SER31       0.2089
     14  OG       -47.4630   18.8020   -4.2830 O.3    31  SER31      -0.2183
     15  N        -29.1160   10.8780   -7.8200 N.3   117  ILE117     -0.1245
     16  CA       -28.7660   12.2740   -8.0540 C.3   117  ILE117      0.1561
     17  C        -29.1000   13.1400   -6.8320 C.2   117  ILE117      0.2260
     18  O        -30.2320   13.2020   -6.4110 O.2   117  ILE117     -0.2867
     19  CB       -29.4770   12.8060   -9.2650 C.3   117  ILE117      0.0252
     20  CG1      -29.1270   11.9840  -10.4770 C.3   117  ILE117      0.0019
     21  CG2      -29.1190   14.2260   -9.5430 C.3   117  ILE117      0.0019
     22  CD1      -30.2660   11.5400  -11.2530 C.3   117  ILE117      0.0001
     23  N        -29.3390   16.7770   -6.0080 N.3   119  SER119     -0.1217
     24  CA       -29.3470   18.0610   -6.6260 C.3   119  SER119      0.1889
     25  C        -29.5480   19.1280   -5.5180 C.2   119  SER119      0.2288
     26  O        -30.3730   18.9500   -4.6000 O.2   119  SER119     -0.2866
     27  CB       -30.3930   18.1780   -7.7320 C.3   119  SER119      0.2089
     28  OG       -31.6820   18.0180   -7.1810 O.3   119  SER119     -0.2183
     29  N        -33.9820   28.3600  -11.6200 N.3   159  THR159     -0.1203
     30  CA       -34.0960   26.9700  -11.2220 C.3   159  THR159      0.1994
     31  C        -34.9760   26.1310  -12.1800 C.2   159  THR159      0.2617
     32  O        -34.5430   25.0420  -12.5990 O.2   159  THR159     -0.2717
     33  CB       -34.4100   26.9090   -9.7100 C.3   159  THR159      0.1784
     34  OG1      -33.0810   26.9860   -9.0330 O.3   159  THR159     -0.2211
     35  CG2      -35.0860   25.5980   -9.4370 C.3   159  THR159      0.0376
     36  N        -36.1080   26.6320  -12.6460 N.am  160  PHE160     -0.1975
     37  CA       -36.9950   25.7590  -13.4160 C.3   160  PHE160      0.1639
     38  C        -36.3720   25.3790  -14.7680 C.2   160  PHE160      0.2290
     39  O        -36.3810   24.2000  -15.1450 O.2   160  PHE160     -0.2864
     40  CB       -38.4220   26.3110  -13.5300 C.3   160  PHE160      0.0560
     41  CG       -39.3540   25.8160  -12.4390 C.ar  160  PHE160     -0.0200
     42  CD1      -38.9870   25.9200  -11.0820 C.ar  160  PHE160     -0.0042
     43  CD2      -40.5820   25.2450  -12.7600 C.ar  160  PHE160     -0.0042
     44  CE1      -39.8120   25.4720  -10.1050 C.ar  160  PHE160     -0.0003
     45  CE2      -41.4150   24.7870  -11.7460 C.ar  160  PHE160     -0.0003
     46  CZ       -41.0390   24.8960  -10.4410 C.ar  160  PHE160     -0.0000
     47  N        -33.2270   22.8830  -13.8760 N.3   163  LEU163     -0.1231
     48  CA       -33.5520   21.4870  -13.5040 C.3   163  LEU163      0.1693
     49  C        -34.1750   20.6980  -14.6650 C.2   163  LEU163      0.2592
     50  O        -33.8820   19.5210  -14.8090 O.2   163  LEU163     -0.2718
     51  CB       -34.4640   21.4280  -12.3000 C.3   163  LEU163      0.0284
     52  CG       -33.9130   21.9170  -10.9530 C.3   163  LEU163      0.0019
     53  CD1      -35.0160   21.8880   -9.8870 C.3   163  LEU163      0.0001
     54  CD2      -32.6790   21.1610  -10.4800 C.3   163  LEU163      0.0001
     55  N        -35.0110   21.3270  -15.4780 N.am  164  TYR164     -0.1976
     56  CA       -35.6390   20.6560  -16.5490 C.3   164  TYR164      0.1639
     57  C        -34.6110   20.3820  -17.6650 C.2   164  TYR164      0.2290
     58  O        -34.6680   19.2920  -18.2450 O.2   164  TYR164     -0.2864
     59  CB       -36.8860   21.3100  -17.0760 C.3   164  TYR164      0.0560
     60  CG       -37.8560   20.3420  -17.7460 C.ar  164  TYR164     -0.0198
     61  CD1      -38.2040   19.1350  -17.1150 C.ar  164  TYR164     -0.0009
     62  CD2      -38.3940   20.5940  -19.0100 C.ar  164  TYR164     -0.0009
     63  CE1      -39.0440   18.1940  -17.7340 C.ar  164  TYR164      0.0417
     64  CE2      -39.2320   19.6800  -19.6300 C.ar  164  TYR164      0.0417
     65  CZ       -39.5710   18.5040  -18.9860 C.ar  164  TYR164      0.1957
     66  OH       -40.4220   17.6260  -19.6040 O.3   164  TYR164     -0.2866
     67  N        -31.3950   19.8300  -16.9660 N.3   166  LEU166     -0.1231
     68  CA       -30.6570   18.6680  -16.4140 C.3   166  LEU166      0.1693
     69  C        -31.3810   17.3810  -16.7580 C.2   166  LEU166      0.2591
     70  O        -30.7640   16.4120  -17.1150 O.2   166  LEU166     -0.2718
     71  CB       -30.4340   18.7730  -14.9050 C.3   166  LEU166      0.0284
     72  CG       -29.3690   19.8110  -14.4880 C.3   166  LEU166      0.0019
     73  CD1      -29.3630   20.2190  -13.0350 C.3   166  LEU166      0.0001
     74  CD2      -28.0040   19.2340  -14.8020 C.3   166  LEU166      0.0001
     75  N        -32.7100   17.3830  -16.6220 N.am  167  ALA167     -0.1980
     76  CA       -33.4830   16.2100  -16.8070 C.3   167  ALA167      0.1597
     77  C        -33.6600   15.7530  -18.2630 C.2   167  ALA167      0.2287
     78  O        -33.9860   14.5650  -18.4430 O.2   167  ALA167     -0.2864
     79  CB       -34.8450   16.4200  -16.1940 C.3   167  ALA167      0.0319
     80  N        -48.4710   25.0690  -12.9620 N.3   198  LYS198     -0.1231
     81  CA       -47.2620   24.3080  -13.2680 C.3   198  LYS198      0.1693
     82  C        -47.4490   22.8080  -13.3040 C.2   198  LYS198      0.2592
     83  O        -46.6820   22.1030  -13.9360 O.2   198  LYS198     -0.2718
     84  CB       -46.1110   24.7180  -12.3220 C.3   198  LYS198      0.0285
     85  CG       -46.2760   24.3350  -10.8930 C.3   198  LYS198      0.0035
     86  CD       -45.0090   24.4370  -10.0870 C.3   198  LYS198      0.0206
     87  CE       -45.2830   24.1040   -8.6100 C.3   198  LYS198      0.1093
     88  NZ       -46.1440   25.1240   -7.9970 N.3   198  LYS198     -0.1314
     89  N        -48.5100   22.3200  -12.6580 N.am  199  PHE199     -0.1976
     90  CA       -48.7460   20.9130  -12.5880 C.3   199  PHE199      0.1639
     91  C        -49.3390   20.4220  -13.9040 C.2   199  PHE199      0.2290
     92  O        -49.3550   19.2310  -14.1120 O.2   199  PHE199     -0.2864
     93  CB       -49.6990   20.5600  -11.4200 C.3   199  PHE199      0.0560
     94  CG       -49.0430   20.6100  -10.0730 C.ar  199  PHE199     -0.0200
     95  CD1      -48.9780   21.7920   -9.3630 C.ar  199  PHE199     -0.0042
     96  CD2      -48.4730   19.4720   -9.5190 C.ar  199  PHE199     -0.0042
     97  CE1      -48.3680   21.8340   -8.1190 C.ar  199  PHE199     -0.0003
     98  CE2      -47.8640   19.4990   -8.2790 C.ar  199  PHE199     -0.0003
     99  CZ       -47.7980   20.6930   -7.5890 C.ar  199  PHE199     -0.0000
    100  N        -44.6540   21.1040  -20.4340 N.3   204  TRP204     -0.1241
    101  CA       -43.4140   20.4020  -20.2500 C.3   204  TRP204      0.1605
    102  C        -43.0810   19.5640  -21.4890 C.2   204  TRP204      0.2264
    103  O        -43.6350   18.4950  -21.6930 O.2   204  TRP204     -0.2867
    104  CB       -43.4860   19.4770  -19.0370 C.3   204  TRP204      0.0550
    105  CG       -43.8870   20.2170  -17.7620 C.ar  204  TRP204      0.0003
    106  CD1      -45.1410   20.5710  -17.3920 C.ar  204  TRP204      0.0946
    107  CD2      -43.0110   20.7250  -16.7770 C.ar  204  TRP204      0.0152
    108  NE1      -45.0890   21.2920  -16.1930 N.ar  204  TRP204     -0.2442
    109  CE2      -43.7880   21.4080  -15.8170 C.ar  204  TRP204      0.0810
    110  CE3      -41.6320   20.6980  -16.6060 C.ar  204  TRP204      0.0012
    111  CZ2      -43.2390   21.9890  -14.6950 C.ar  204  TRP204      0.0191
    112  CZ3      -41.0680   21.3450  -15.4700 C.ar  204  TRP204      0.0001
    113  CH2      -41.8690   22.0020  -14.5610 C.ar  204  TRP204      0.0015
    114  N        -35.5870   12.2390  -17.8970 N.3   209  LEU209     -0.1231
    115  CA       -34.9290   11.0410  -17.5840 C.3   209  LEU209      0.1693
    116  C        -35.8580    9.9860  -16.9990 C.2   209  LEU209      0.2592
    117  O        -35.7320    8.7710  -17.3440 O.2   209  LEU209     -0.2718
    118  CB       -33.7430   11.3620  -16.6770 C.3   209  LEU209      0.0284
    119  CG       -32.8730   10.1440  -16.2630 C.3   209  LEU209      0.0019
    120  CD1      -32.1980    9.5970  -17.5340 C.3   209  LEU209      0.0001
    121  CD2      -31.8180   10.4270  -15.2310 C.3   209  LEU209      0.0001
    122  N        -36.7920   10.3960  -16.1120 N.am  210  TRP210     -0.1976
    123  CA       -37.6610    9.4590  -15.4890 C.3   210  TRP210      0.1640
    124  C        -38.6180    8.8660  -16.4980 C.2   210  TRP210      0.2290
    125  O        -39.0120    7.7130  -16.4090 O.2   210  TRP210     -0.2864
    126  CB       -38.4230   10.0630  -14.2880 C.3   210  TRP210      0.0576
    127  CG       -39.1840   11.3170  -14.6190 C.ar  210  TRP210      0.0006
    128  CD1      -40.4300   11.4380  -15.0210 C.ar  210  TRP210      0.0946
    129  CD2      -38.6580   12.6240  -14.4860 C.ar  210  TRP210      0.0152
    130  NE1      -40.7310   12.8160  -15.2010 N.ar  210  TRP210     -0.2442
    131  CE2      -39.6610   13.5390  -14.8590 C.ar  210  TRP210      0.0810
    132  CE3      -37.4290   13.1060  -14.0430 C.ar  210  TRP210      0.0012
    133  CZ2      -39.4730   14.9480  -14.8350 C.ar  210  TRP210      0.0191
    134  CZ3      -37.2000   14.5040  -14.0410 C.ar  210  TRP210      0.0001
    135  CH2      -38.2420   15.3920  -14.4450 C.ar  210  TRP210      0.0015
    136  N        -38.8460   12.0880   -8.9560 N.3   223  PHE223     -0.1227
    137  CA       -37.9180   13.2090   -8.9320 C.3   223  PHE223      0.1736
    138  C        -38.5310   14.4430   -8.2280 C.2   223  PHE223      0.2595
    139  O        -37.8150   15.2830   -7.7830 O.2   223  PHE223     -0.2718
    140  CB       -37.5150   13.5560  -10.3370 C.3   223  PHE223      0.0547
    141  CG       -36.3930   12.6990  -10.8640 C.ar  223  PHE223     -0.0202
    142  CD1      -36.4930   11.3350  -10.8250 C.ar  223  PHE223     -0.0042
    143  CD2      -35.2880   13.2740  -11.4200 C.ar  223  PHE223     -0.0042
    144  CE1      -35.4700   10.5320  -11.3520 C.ar  223  PHE223     -0.0003
    145  CE2      -34.2390   12.5150  -11.9140 C.ar  223  PHE223     -0.0003
    146  CZ       -34.3460   11.1310  -11.8830 C.ar  223  PHE223     -0.0000
    147  N        -39.8490   14.4880   -8.0970 N.am  224  PHE224     -0.1962
    148  CA       -40.5620   15.6290   -7.4430 C.3   224  PHE224      0.1771
    149  C        -40.9590   15.2670   -5.9870 C.2   224  PHE224      0.2620
    150  O        -41.3000   14.1170   -5.6830 O.2   224  PHE224     -0.2715
    151  CB       -41.7730   16.0300   -8.2380 C.3   224  PHE224      0.0574
    152  CG       -41.4680   16.4720   -9.5940 C.ar  224  PHE224     -0.0200
    153  CD1      -41.4340   15.5370  -10.6340 C.ar  224  PHE224     -0.0042
    154  CD2      -41.2790   17.8140   -9.8810 C.ar  224  PHE224     -0.0042
    155  CE1      -41.1000   15.9550  -11.8920 C.ar  224  PHE224     -0.0003
    156  CE2      -41.0080   18.2100  -11.1460 C.ar  224  PHE224     -0.0003
    157  CZ       -40.8960   17.2750  -12.1600 C.ar  224  PHE224     -0.0000
    158  N        -40.8850   16.2910   -5.1100 N.am  225  TRP225     -0.1960
    159  CA       -41.0270   16.1400   -3.6920 C.3   225  TRP225      0.1771
    160  C        -41.9260   17.3530   -3.2230 C.2   225  TRP225      0.2620
    161  O        -41.5550   18.4820   -3.5370 O.2   225  TRP225     -0.2715
    162  CB       -39.6480   16.2550   -3.0720 C.3   225  TRP225      0.0590
    163  CG       -38.7470   15.0370   -3.2390 C.ar  225  TRP225      0.0006
    164  CD1      -37.7730   14.9110   -4.1390 C.ar  225  TRP225      0.0946
    165  CD2      -38.8090   13.7870   -2.5300 C.ar  225  TRP225      0.0152
    166  NE1      -37.1660   13.6730   -4.0240 N.ar  225  TRP225     -0.2442
    167  CE2      -37.8030   12.9590   -3.0570 C.ar  225  TRP225      0.0810
    168  CE3      -39.6120   13.2900   -1.5340 C.ar  225  TRP225      0.0012
    169  CZ2      -37.5820   11.6630   -2.5940 C.ar  225  TRP225      0.0191
    170  CZ3      -39.4040   12.0610   -1.0610 C.ar  225  TRP225      0.0001
    171  CH2      -38.3810   11.2340   -1.5890 C.ar  225  TRP225      0.0015
    172  N        -43.0730   17.0930   -2.5940 N.am  226  SER226     -0.1936
    173  CA       -43.8610   18.1800   -2.0070 C.3   226  SER226      0.2055
    174  C        -42.9370   18.9980   -1.0920 C.2   226  SER226      0.2642
    175  O        -42.0540   18.4570   -0.3970 O.2   226  SER226     -0.2714
    176  CB       -45.0450   17.7070   -1.1860 C.3   226  SER226      0.2130
    177  OG       -46.0210   17.1920   -2.0340 O.3   226  SER226     -0.2179
    178  N        -43.1640   20.2950   -1.0820 N.am  227  VAL227     -0.1977
    179  CA       -42.4200   21.1610   -0.1590 C.3   227  VAL227      0.1596
    180  C        -42.5570   20.7960    1.3120 C.2   227  VAL227      0.2287
    181  O        -41.6740   21.0410    2.0880 O.2   227  VAL227     -0.2864
    182  CB       -42.7590   22.6810   -0.3430 C.3   227  VAL227      0.0276
    183  CG1      -42.2130   23.1380   -1.6670 C.3   227  VAL227      0.0022
    184  CG2      -44.2580   22.9510   -0.2370 C.3   227  VAL227      0.0022
    185  N        -36.7140   12.7610    2.8790 N.3   234  ARG234     -0.1245
    186  CA       -36.4590   12.4570    1.5270 C.3   234  ARG234      0.1563
    187  C        -35.3220   11.4180    1.4650 C.2   234  ARG234      0.2260
    188  O        -35.4420   10.4010    0.7610 O.2   234  ARG234     -0.2867
    189  CB       -36.1010   13.6910    0.7480 C.3   234  ARG234      0.0307
    190  CG       -37.1290   14.7700    0.7650 C.3   234  ARG234      0.0489
    191  CD       -36.7620   15.9770   -0.0340 C.3   234  ARG234      0.2205
    192  NE       -37.7480   17.0080    0.2230 N.pl3 234  ARG234     -0.0865
    193  CZ       -37.9560   18.0750   -0.5320 C.cat 234  ARG234      0.5346
    194  NH1      -37.2060   18.3010   -1.5870 N.pl3 234  ARG234      0.1354
    195  NH2      -38.9180   18.9330   -0.2140 N.pl3 234  ARG234      0.1354
    196  N        -33.6760   10.5430   -7.0990 N.3   254  ALA254     -0.1231
    197  CA       -33.2280   11.9190   -6.9930 C.3   254  ALA254      0.1694
    198  C        -33.6850   12.5670   -5.7170 C.2   254  ALA254      0.2592
    199  O        -34.8510   12.4180   -5.2780 O.2   254  ALA254     -0.2718
    200  CB       -33.7520   12.6940   -8.1360 C.3   254  ALA254      0.0304
    201  N        -32.7630   13.3110   -5.1680 N.am  255  PHE255     -0.1962
    202  CA       -32.9670   14.1310   -3.9840 C.3   255  PHE255      0.1771
    203  C        -32.7930   15.5630   -4.4620 C.2   255  PHE255      0.2619
    204  O        -31.9630   15.8720   -5.3820 O.2   255  PHE255     -0.2715
    205  CB       -31.9250   13.8180   -2.9240 C.3   255  PHE255      0.0574
    206  CG       -31.8820   14.8320   -1.8090 C.ar  255  PHE255     -0.0200
    207  CD1      -32.7010   14.7120   -0.7180 C.ar  255  PHE255     -0.0042
    208  CD2      -31.0640   15.9290   -1.8950 C.ar  255  PHE255     -0.0042
    209  CE1      -32.6940   15.6460    0.2920 C.ar  255  PHE255     -0.0003
    210  CE2      -31.0460   16.8850   -0.8940 C.ar  255  PHE255     -0.0003
    211  CZ       -31.8850   16.7450    0.1920 C.ar  255  PHE255     -0.0000
    212  N        -33.6110   16.4610   -3.9130 N.am  256  TYR256     -0.1974
    213  CA       -33.4960   17.8470   -4.2570 C.3   256  TYR256      0.1639
    214  C        -33.5060   18.6290   -2.9380 C.2   256  TYR256      0.2290
    215  O        -34.3420   18.3300   -2.0500 O.2   256  TYR256     -0.2864
    216  CB       -34.6310   18.2880   -5.1100 C.3   256  TYR256      0.0560
    217  CG       -34.7690   19.8260   -5.2500 C.ar  256  TYR256     -0.0198
    218  CD1      -33.9540   20.5830   -6.0970 C.ar  256  TYR256     -0.0009
    219  CD2      -35.7000   20.5100   -4.4840 C.ar  256  TYR256     -0.0009
    220  CE1      -34.0840   21.9740   -6.1890 C.ar  256  TYR256      0.0417
    221  CE2      -35.8110   21.8880   -4.5470 C.ar  256  TYR256      0.0417
    222  CZ       -35.0250   22.6120   -5.4340 C.ar  256  TYR256      0.1957
    223  OH       -35.1820   23.9970   -5.5010 O.3   256  TYR256     -0.2866
    224  N        -24.9840   17.6650   -7.9330 N.3   306  VAL306     -0.1245
    225  CA       -25.0750   18.6530   -8.9430 C.3   306  VAL306      0.1561
    226  C        -25.9560   19.8570   -8.5130 C.2   306  VAL306      0.2260
    227  O        -26.8810   19.7070   -7.7060 O.2   306  VAL306     -0.2867
    228  CB       -25.5820   17.9610  -10.2290 C.3   306  VAL306      0.0252
    229  CG1      -27.0150   17.3930  -10.0780 C.3   306  VAL306      0.0019
    230  CG2      -25.4460   18.8640  -11.3910 C.3   306  VAL306      0.0019
    231  N        -25.3990   16.3960  -19.4580 N.3   458  LEU458     -0.1245
    232  CA       -25.5390   15.3440  -18.4140 C.3   458  LEU458      0.1561
    233  C        -26.5370   14.2790  -18.7020 C.2   458  LEU458      0.2260
    234  O        -26.3700   13.1540  -18.2960 O.2   458  LEU458     -0.2867
    235  CB       -25.8610   15.9120  -17.0180 C.3   458  LEU458      0.0270
    236  CG       -24.5920   16.2640  -16.2580 C.3   458  LEU458      0.0019
    237  CD1      -25.0000   16.6760  -14.8200 C.3   458  LEU458      0.0001
    238  CD2      -23.5600   15.0770  -16.2560 C.3   458  LEU458      0.0001
    239  N        -26.2380   10.2750  -17.7710 N.3   462  MET462     -0.1245
    240  CA       -27.1560    9.5720  -16.8700 C.3   462  MET462      0.1570
    241  C        -27.8180    8.4030  -17.5660 C.2   462  MET462      0.2261
    242  O        -27.9570    7.3130  -17.0080 O.2   462  MET462     -0.2867
    243  CB       -28.1360   10.5800  -16.2640 C.3   462  MET462      0.0387
    244  CG       -27.4460   11.5650  -15.3160 C.3   462  MET462      0.0595
    245  SD       -28.6200   12.7000  -14.4540 S.3   462  MET462     -0.1393
    246  CE       -29.1550   13.7180  -15.8360 C.3   462  MET462      0.0692
@<TRIPOS>BOND
     1   103   102    2
     2   102   101    1
     3   100   101    1
     4   101   104    1
     5    64    62   ar
     6    64    65   ar
     7    66    65    1
     8   231   232    1
     9   104   105    1
    10    62    60   ar
    11    65    63   ar
    12   233   232    1
    13   233   234    2
    14    78    77    2
    15   232   235    1
    16    77    76    1
    17    58    57    2
    18   114   115    1
    19   239   240    1
    20   105   106   ar
    21   105   107   ar
    22    60    61   ar
    23    60    59    1
    24    63    61   ar
    25    57    56    1
    26   115   116    1
    27   115   118    1
    28   241   242    2
    29   241   240    1
    30   120   119    1
    31   106   108   ar
    32   117   116    2
    33    70    69    2
    34    59    56    1
    35   235   236    1
    36   116   122   am
    37    67    68    1
    38   240   243    1
    39    76    75    1
    40    76    79    1
    41   107   110   ar
    42   107   109   ar
    43    69    75   am
    44    69    68    1
    45   118   119    1
    46   110   112   ar
    47    56    55    1
    48   124   125    2
    49   124   123    1
    50    68    71    1
    51   243   244    1
    52   119   121    1
    53   236   238    1
    54   236   237    1
    55   108   109   ar
    56   122   123    1
    57   246   245    1
    58   109   111   ar
    59   123   126    1
    60    55    49   am
    61   112   113   ar
    62   244   245    1
    63   130   128   ar
    64   130   131   ar
    65    39    38    2
    66   128   127   ar
    67    71    72    1
    68   131   133   ar
    69   131   129   ar
    70   133   135   ar
    71    50    49    2
    72    74    72    1
    73    38    37    1
    74   111   113   ar
    75    49    48    1
    76   127   129   ar
    77   127   126    1
    78    72    73    1
    79   129   132   ar
    80   135   134   ar
    81    92    91    2
    82   132   134   ar
    83    83    82    2
    84    91    90    1
    85    47    48    1
    86    40    37    1
    87    40    41    1
    88    48    51    1
    89    37    36    1
    90    82    81    1
    91    82    89   am
    92    81    80    1
    93    81    84    1
    94    43    41   ar
    95    43    45   ar
    96    89    90    1
    97    36    31   am
    98    32    31    2
    99    90    93    1
   100    41    42   ar
   101    84    85    1
   102    51    52    1
   103    31    30    1
   104   157   155   ar
   105   157   156   ar
   106   145   146   ar
   107   145   143   ar
   108   155   153   ar
   109   146   144   ar
   110    45    46   ar
   111    29    30    1
   112   143   141   ar
   113    93    94    1
   114   230   228    1
   115   144   142   ar
   116    22    20    1
   117    30    33    1
   118   156   154   ar
   119    42    44   ar
   120    52    54    1
   121    52    53    1
   122    85    86    1
   123   141   142   ar
   124   141   140    1
   125   153   152   ar
   126    20    19    1
   127    46    44   ar
   128   140   137    1
   129   228   229    1
   130   228   225    1
   131    86    87    1
   132    94    96   ar
   133    94    95   ar
   134   154   152   ar
   135    33    35    1
   136    33    34    1
   137   152   151    1
   138    21    19    1
   139    96    98   ar
   140    95    97   ar
   141    19    16    1
   142   136   137    1
   143   225   226    1
   144   225   224    1
   145   137   138    1
   146    87    88    1
   147   226   227    2
   148    98    99   ar
   149   151   148    1
   150   138   147   am
   151   138   139    2
   152   200   197    1
   153    97    99   ar
   154   147   148    1
   155    16    15    1
   156    16    17    1
   157     7     6    1
   158    27    28    1
   159    27    24    1
   160   148   149    1
   161   196   197    1
   162   197   198    1
   163    17    18    2
   164    24    23    1
   165    24    25    1
   166     6     5    1
   167     6     8    1
   168   220   218   ar
   169   220   222   ar
   170   218   217   ar
   171   149   150    2
   172   149   158   am
   173     5     2    1
   174   198   199    2
   175   198   201   am
   176    25    26    2
   177   223   222    1
   178   222   221   ar
   179   204   203    2
   180   217   216    1
   181   217   219   ar
   182   201   202    1
   183   158   159    1
   184   216   213    1
   185    13    14    1
   186    13    10    1
   187   221   219   ar
   188   203   202    1
   189   203   212   am
   190    12    11    2
   191   213   212    1
   192   213   214    1
   193     2     3    1
   194     2     1    1
   195     4     3    2
   196   164   166   ar
   197   164   163   ar
   198    11    10    1
   199   166   167   ar
   200   202   205    1
   201   159   160    1
   202   159   162    1
   203    10     9    1
   204   161   160    2
   205   163   162    1
   206   163   165   ar
   207   160   172   am
   208   167   169   ar
   209   167   165   ar
   210   214   215    2
   211   205   206    1
   212   169   171   ar
   213   172   173    1
   214   165   168   ar
   215   177   176    1
   216   173   176    1
   217   173   174    1
   218   208   206   ar
   219   208   210   ar
   220   206   207   ar
   221   183   182    1
   222   171   170   ar
   223   194   193    1
   224   168   170   ar
   225   174   178   am
   226   174   175    2
   227   178   179    1
   228   210   211   ar
   229   207   209   ar
   230   193   195    1
   231   193   192    2
   232   182   184    1
   233   182   179    1
   234   179   180    1
   235   191   192    1
   236   191   190    1
   237   211   209   ar
   238   189   190    1
   239   189   186    1
   240   188   187    2
   241   180   181    2
   242   187   186    1
   243   186   185    1
