@<TRIPOS>MOLECULE
tmp/5lilA01.pdb
 89 83 0 0 0
SMALL
GASTEIGER

@<TRIPOS>ATOM
      1  N         22.2710   61.8090   63.8190 N.3   136  LYS136     -0.1245
      2  CA        22.9370   60.9190   62.8730 C.3   136  LYS136      0.1561
      3  C         23.6660   61.6720   61.7620 C.2   136  LYS136      0.2260
      4  O         23.8210   61.1450   60.6580 O.2   136  LYS136     -0.2867
      5  CB        21.9200   59.9650   62.2470 C.3   136  LYS136      0.0271
      6  CG        20.8150   59.4970   63.1740 C.3   136  LYS136      0.0035
      7  CD        21.3170   58.4570   64.1600 C.3   136  LYS136      0.0206
      8  CE        20.9510   57.0560   63.6970 C.3   136  LYS136      0.1093
      9  NZ        21.1700   56.0210   64.7470 N.3   136  LYS136     -0.1314
     10  N         26.3410   59.6700   60.0270 N.3   139  ASN139     -0.1240
     11  CA        26.0370   58.3700   59.4460 C.3   139  ASN139      0.1653
     12  C         26.0400   58.4460   57.9250 C.2   139  ASN139      0.2266
     13  O         25.5260   59.4000   57.3340 O.2   139  ASN139     -0.2867
     14  CB        24.6730   57.8800   59.9260 C.3   139  ASN139      0.1155
     15  CG        24.6730   57.4710   61.3840 C.2   139  ASN139      0.2627
     16  OD1       25.1950   58.1820   62.2430 O.2   139  ASN139     -0.2716
     17  ND2       24.0870   56.3140   61.6710 N.am  139  ASN139     -0.0877
     18  N         24.0570   53.9960   54.1450 N.3   142  ASN142     -0.1225
     19  CA        23.8930   52.5950   54.5140 C.3   142  ASN142      0.1785
     20  C         24.1120   52.3460   56.0020 C.2   142  ASN142      0.2597
     21  O         24.2120   51.1850   56.4130 O.2   142  ASN142     -0.2718
     22  CB        24.8370   51.7150   53.6920 C.3   142  ASN142      0.1169
     23  CG        26.2910   52.0720   53.8980 C.2   142  ASN142      0.2627
     24  OD1       26.6880   53.2270   53.7370 O.2   142  ASN142     -0.2716
     25  ND2       27.0950   51.0820   54.2640 N.am  142  ASN142     -0.0877
     26  N         24.1970   53.4030   56.8100 N.am  143  GLN143     -0.1965
     27  CA        24.1110   53.2990   58.2620 C.3   143  GLN143      0.1733
     28  C         22.8030   53.8850   58.7850 C.2   143  GLN143      0.2616
     29  O         22.6990   54.2160   59.9710 O.2   143  GLN143     -0.2715
     30  CB        25.2970   53.9990   58.9210 C.3   143  GLN143      0.0408
     31  CG        26.6490   53.5220   58.4410 C.3   143  GLN143      0.0908
     32  CD        27.7870   54.2900   59.0830 C.2   143  GLN143      0.2608
     33  OE1       28.1090   55.4090   58.6740 O.2   143  GLN143     -0.2717
     34  NE2       28.3980   53.6950   60.1010 N.am  143  GLN143     -0.0878
     35  N         21.8060   54.0240   57.9150 N.am  144  LEU144     -0.1963
     36  CA        20.5510   54.6710   58.2470 C.3   144  LEU144      0.1728
     37  C         19.3910   53.7820   57.8290 C.2   144  LEU144      0.2617
     38  O         19.5220   52.9180   56.9580 O.2   144  LEU144     -0.2715
     39  CB        20.4340   56.0380   57.5570 C.3   144  LEU144      0.0311
     40  CG        21.5160   57.0510   57.9360 C.3   144  LEU144      0.0022
     41  CD1       21.4360   58.2820   57.0510 C.3   144  LEU144      0.0001
     42  CD2       21.3840   57.4350   59.3990 C.3   144  LEU144      0.0001
     43  N         18.2500   53.9950   58.4750 N.am  145  SER145     -0.1936
     44  CA        17.0210   53.3790   58.0180 C.3   145  SER145      0.2055
     45  C         16.5730   54.0360   56.7140 C.2   145  SER145      0.2644
     46  O         17.0470   55.1090   56.3300 O.2   145  SER145     -0.2714
     47  CB        15.9310   53.5100   59.0810 C.3   145  SER145      0.2130
     48  OG        15.5750   54.8700   59.2770 O.3   145  SER145     -0.2179
     49  N         15.6500   53.3710   56.0190 N.am  146  GLY146     -0.1939
     50  CA        15.0550   53.9810   54.8420 C.3   146  GLY146      0.2014
     51  C         14.4520   55.3370   55.1500 C.2   146  GLY146      0.2639
     52  O         14.7520   56.3320   54.4870 O.2   146  GLY146     -0.2714
     53  N         13.6020   55.3960   56.1760 N.am  147  GLY147     -0.1939
     54  CA        12.9830   56.6570   56.5450 C.3   147  GLY147      0.2014
     55  C         13.9890   57.7270   56.9160 C.2   147  GLY147      0.2638
     56  O         13.7430   58.9150   56.6990 O.2   147  GLY147     -0.2714
     57  N         15.1300   57.3280   57.4810 N.am  148  GLN148     -0.1977
     58  CA        16.1830   58.2960   57.7660 C.3   148  GLN148      0.1601
     59  C         16.8410   58.7760   56.4780 C.2   148  GLN148      0.2287
     60  O         17.0160   59.9820   56.2700 O.2   148  GLN148     -0.2864
     61  CB        17.2030   57.6820   58.7200 C.3   148  GLN148      0.0394
     62  CG        16.6650   57.6200   60.1290 C.3   148  GLN148      0.0908
     63  CD        17.3070   56.5610   60.9890 C.2   148  GLN148      0.2608
     64  OE1       17.8870   55.5920   60.4980 O.2   148  GLN148     -0.2717
     65  NE2       17.1890   56.7370   62.2940 N.am  148  GLN148     -0.0878
     66  N         14.7320   61.4040   54.9650 N.3   151  ARG151     -0.1245
     67  CA        14.7990   62.7430   55.5380 C.3   151  ARG151      0.1563
     68  C         16.1150   63.4280   55.1900 C.2   151  ARG151      0.2260
     69  O         16.1590   64.6590   55.0790 O.2   151  ARG151     -0.2867
     70  CB        14.5720   62.6670   57.0520 C.3   151  ARG151      0.0307
     71  CG        13.1420   62.2080   57.4190 C.3   151  ARG151      0.0489
     72  CD        12.9010   62.0980   58.9260 C.3   151  ARG151      0.2205
     73  NE        13.3070   60.8100   59.4870 N.pl3 151  ARG151     -0.0865
     74  CZ        13.5350   60.5930   60.7820 C.cat 151  ARG151      0.5346
     75  NH1       13.4200   61.5830   61.6600 N.pl3 151  ARG151      0.1354
     76  NH2       13.9000   59.3880   61.2050 N.pl3 151  ARG151      0.1354
     77  N          8.1400   56.4990   53.4330 N.3   173  ALA173     -0.1245
     78  CA         8.7170   55.5810   54.4060 C.3   173  ALA173      0.1562
     79  C          8.6920   56.1540   55.8170 C.2   173  ALA173      0.2260
     80  O          9.4620   55.7140   56.6780 O.2   173  ALA173     -0.2867
     81  CB        10.1500   55.2200   54.0120 C.3   173  ALA173      0.0290
     82  N          6.6230   57.2870   59.3940 N.3   175  ASP175     -0.1239
     83  CA         5.4750   57.2560   60.2820 C.3   175  ASP175      0.1674
     84  C          4.7110   58.5690   60.1630 C.2   175  ASP175      0.2266
     85  O          5.1250   59.4720   59.4300 O.2   175  ASP175     -0.2867
     86  CB         5.9290   57.0130   61.7190 C.3   175  ASP175      0.1410
     87  CG         6.9620   58.0140   62.1690 C.2   175  ASP175      0.3668
     88  OD1        6.5630   59.0970   62.6450 O.co2 175  ASP175     -0.2456
     89  OD2        8.1680   57.7200   62.0360 O.co2 175  ASP175     -0.2456
@<TRIPOS>BOND
     1    77    78    1
     2    22    23    1
     3    22    19    1
     4    24    23    2
     5    23    25   am
     6    81    78    1
     7    18    19    1
     8    78    79    1
     9    52    51    2
    10    19    20    1
    11    50    51    1
    12    50    49    1
    13    66    67    1
    14    69    68    2
    15    51    53   am
    16    68    67    1
    17    67    70    1
    18    79    80    2
    19    20    21    2
    20    20    26   am
    21    49    45   am
    22    53    54    1
    23    60    59    2
    24    46    45    2
    25    59    58    1
    26    54    55    1
    27    56    55    2
    28    45    44    1
    29    26    27    1
    30    55    57   am
    31    38    37    2
    32    41    40    1
    33    70    71    1
    34    13    12    2
    35    71    72    1
    36    57    58    1
    37    39    40    1
    38    39    36    1
    39    58    61    1
    40    37    36    1
    41    37    43   am
    42    35    36    1
    43    35    28   am
    44    12    11    1
    45    40    42    1
    46    44    43    1
    47    44    47    1
    48    27    28    1
    49    27    30    1
    50    31    30    1
    51    31    32    1
    52    33    32    2
    53    61    62    1
    54    28    29    2
    55    72    73    1
    56    47    48    1
    57    32    34   am
    58    82    83    1
    59    85    84    2
    60    11    14    1
    61    11    10    1
    62    73    74    2
    63    14    15    1
    64    62    63    1
    65    84    83    1
    66    83    86    1
    67    64    63    2
    68     4     3    2
    69    74    76    1
    70    74    75    1
    71    63    65   am
    72    15    17   am
    73    15    16    2
    74    86    87    1
    75     3     2    1
    76    89    87   ar
    77    87    88   ar
    78     5     2    1
    79     5     6    1
    80     2     1    1
    81     6     7    1
    82     8     7    1
    83     8     9    1
