@<TRIPOS>MOLECULE
tmp/5lilA00.pdb
 133 126 0 0 0
SMALL
GASTEIGER

@<TRIPOS>ATOM
      1  N          8.6500   56.3340   25.8750 N.3    13  PHE13      -0.1227
      2  CA         9.8110   55.5260   26.2220 C.3    13  PHE13       0.1736
      3  C          9.8360   54.3030   25.3170 C.2    13  PHE13       0.2596
      4  O          8.7930   53.6880   25.0820 O.2    13  PHE13      -0.2718
      5  CB         9.7810   55.0510   27.6860 C.3    13  PHE13       0.0547
      6  CG         9.9940   56.1410   28.7070 C.ar   13  PHE13      -0.0202
      7  CD1       11.2340   56.7350   28.8660 C.ar   13  PHE13      -0.0042
      8  CD2        8.9600   56.5360   29.5440 C.ar   13  PHE13      -0.0042
      9  CE1       11.4310   57.7230   29.8200 C.ar   13  PHE13      -0.0003
     10  CE2        9.1530   57.5210   30.4970 C.ar   13  PHE13      -0.0003
     11  CZ        10.3910   58.1150   30.6340 C.ar   13  PHE13      -0.0000
     12  N         11.0150   53.9560   24.8090 N.am   14  GLY14      -0.1957
     13  CA        11.2280   52.6520   24.2040 C.3    14  GLY14       0.1869
     14  C         11.2150   52.6460   22.6860 C.2    14  GLY14       0.2309
     15  O         11.2300   53.6800   22.0100 O.2    14  GLY14      -0.2863
     16  N          8.5060   47.7620   21.8320 N.3    18  ASN18      -0.1240
     17  CA         8.8960   48.0430   23.2110 C.3    18  ASN18       0.1653
     18  C          8.5660   49.4690   23.6540 C.2    18  ASN18       0.2266
     19  O          9.0000   49.8770   24.7400 O.2    18  ASN18      -0.2867
     20  CB        10.3980   47.7860   23.4000 C.3    18  ASN18       0.1155
     21  CG        10.7240   46.3150   23.5510 C.2    18  ASN18       0.2627
     22  OD1        9.9590   45.5540   24.1460 O.2    18  ASN18      -0.2716
     23  ND2       11.8680   45.9050   23.0140 N.am   18  ASN18      -0.0877
     24  N          6.2690   52.8630   24.7130 N.3    20  VAL20      -0.1245
     25  CA         5.1050   53.1610   25.5370 C.3    20  VAL20       0.1561
     26  C          4.8450   54.6620   25.5260 C.2    20  VAL20       0.2260
     27  O          5.7800   55.4680   25.5910 O.2    20  VAL20      -0.2867
     28  CB         5.2930   52.6590   26.9850 C.3    20  VAL20       0.0252
     29  CG1        3.9560   52.6280   27.7080 C.3    20  VAL20       0.0019
     30  CG2        5.9410   51.2820   27.0010 C.3    20  VAL20       0.0019
     31  N          3.5730   57.5350   27.6830 N.3    22  VAL22      -0.1245
     32  CA         3.5610   57.6400   29.1360 C.3    22  VAL22       0.1561
     33  C          2.8880   58.9220   29.6230 C.2    22  VAL22       0.2260
     34  O          2.1670   58.8930   30.6220 O.2    22  VAL22      -0.2867
     35  CB         4.9900   57.5030   29.7110 C.3    22  VAL22       0.0252
     36  CG1        5.7620   58.8090   29.6440 C.3    22  VAL22       0.0019
     37  CG2        4.9250   56.9730   31.1280 C.3    22  VAL22       0.0019
     38  N         -0.2210   53.7150   40.6180 N.3    42  SER42      -0.1202
     39  CA         1.1940   53.4330   40.4340 C.3    42  SER42       0.2020
     40  C          1.5080   53.3010   38.9510 C.2    42  SER42       0.2619
     41  O          0.8410   52.5570   38.2260 O.2    42  SER42      -0.2717
     42  CB         1.5870   52.1560   41.1740 C.3    42  SER42       0.2103
     43  OG         2.9250   51.7880   40.8690 O.3    42  SER42      -0.2182
     44  N          2.5190   54.0380   38.5030 N.am   43  GLY43      -0.1942
     45  CA         2.9290   53.9900   37.1110 C.3    43  GLY43       0.2014
     46  C          1.9810   54.6880   36.1610 C.2    43  GLY43       0.2640
     47  O          1.7170   54.1720   35.0660 O.2    43  GLY43      -0.2714
     48  N          1.4550   55.8490   36.5510 N.am   44  SER44      -0.1935
     49  CA         0.5860   56.6320   35.6820 C.3    44  SER44       0.2055
     50  C          1.3100   57.8000   35.0270 C.2    44  SER44       0.2644
     51  O          0.7290   58.4610   34.1590 O.2    44  SER44      -0.2714
     52  CB        -0.6190   57.1610   36.4690 C.3    44  SER44       0.2130
     53  OG        -0.2130   58.0950   37.4580 O.3    44  SER44      -0.2179
     54  N          2.5510   58.0730   35.4280 N.am   45  GLY45      -0.1939
     55  CA         3.3500   59.1030   34.7960 C.3    45  GLY45       0.2014
     56  C          3.6850   60.2480   35.7250 C.2    45  GLY45       0.2639
     57  O          4.1530   61.2990   35.2790 O.2    45  GLY45      -0.2714
     58  N          3.4600   60.0580   37.0250 N.am   46  LYS46      -0.1963
     59  CA         3.6380   61.1580   37.9670 C.3    46  LYS46       0.1728
     60  C          5.1100   61.5260   38.1090 C.2    46  LYS46       0.2617
     61  O          5.4910   62.6870   37.9150 O.2    46  LYS46      -0.2715
     62  CB         3.0260   60.7880   39.3180 C.3    46  LYS46       0.0311
     63  CG         1.5250   60.5180   39.2340 C.3    46  LYS46       0.0038
     64  CD         0.8900   60.2640   40.5970 C.3    46  LYS46       0.0206
     65  CE         1.4850   59.0550   41.3060 C.3    46  LYS46       0.1093
     66  NZ         1.3490   57.7990   40.5180 N.3    46  LYS46      -0.1314
     67  N          5.9590   60.5490   38.4390 N.am   47  SER47      -0.1936
     68  CA         7.3890   60.8290   38.5440 C.3    47  SER47       0.2055
     69  C          7.9480   61.3730   37.2340 C.2    47  SER47       0.2643
     70  O          8.8600   62.2100   37.2440 O.2    47  SER47      -0.2714
     71  CB         8.1460   59.5650   38.9500 C.3    47  SER47       0.2130
     72  OG         7.6120   59.0030   40.1330 O.3    47  SER47      -0.2179
     73  N          7.4180   60.9120   36.1020 N.am   48  THR48      -0.1950
     74  CA         7.9090   61.3730   34.8090 C.3    48  THR48       0.1897
     75  C          7.6470   62.8620   34.6270 C.2    48  THR48       0.2313
     76  O          8.5380   63.6170   34.2220 O.2    48  THR48      -0.2863
     77  CB         7.2530   60.5670   33.6870 C.3    48  THR48       0.1794
     78  OG1        7.3590   59.1660   33.9790 O.3    48  THR48      -0.2208
     79  CG2        7.9300   60.8500   32.3570 C.3    48  THR48       0.0378
     80  N         12.0500   60.1070   44.7590 N.3    92  GLN92      -0.1231
     81  CA        11.2350   59.0010   45.2520 C.3    92  GLN92       0.1698
     82  C         12.1430   57.9750   45.9130 C.2    92  GLN92       0.2592
     83  O         12.0940   57.7860   47.1310 O.2    92  GLN92      -0.2718
     84  CB        10.4230   58.3650   44.1190 C.3    92  GLN92       0.0381
     85  CG         9.0970   57.8060   44.5790 C.3    92  GLN92       0.0905
     86  CD         8.4890   56.8290   43.5970 C.2    92  GLN92       0.2608
     87  OE1        8.6140   56.9890   42.3840 O.2    92  GLN92      -0.2717
     88  NE2        7.8260   55.8020   44.1220 N.am   92  GLN92      -0.0878
     89  N         12.9700   57.3060   45.1150 N.am   93  ARG93      -0.1980
     90  CA        14.1190   56.5830   45.6390 C.3    93  ARG93       0.1597
     91  C         15.2030   57.6130   45.9480 C.2    93  ARG93       0.2287
     92  O         15.6010   58.3810   45.0670 O.2    93  ARG93      -0.2864
     93  CB        14.5750   55.5310   44.6290 C.3    93  ARG93       0.0334
     94  CG        13.5640   54.3750   44.4430 C.3    93  ARG93       0.0492
     95  CD        13.3840   53.9630   42.9770 C.3    93  ARG93       0.2205
     96  NE        12.4110   54.8000   42.2700 N.pl3  93  ARG93      -0.0865
     97  CZ        12.2890   54.8650   40.9450 C.cat  93  ARG93       0.5346
     98  NH1       13.0910   54.1560   40.1560 N.pl3  93  ARG93       0.1354
     99  NH2       11.3670   55.6510   40.4010 N.pl3  93  ARG93       0.1354
    100  N          8.6330   64.1160   45.4660 N.3   168  ASP168     -0.1225
    101  CA         8.0770   62.8930   44.8900 C.3   168  ASP168      0.1805
    102  C          7.9070   61.8840   46.0200 C.2   168  ASP168      0.2597
    103  O          8.8690   61.2270   46.4310 O.2   168  ASP168     -0.2718
    104  CB         8.9840   62.3570   43.7860 C.3   168  ASP168      0.1424
    105  CG         8.2550   61.4410   42.8240 C.2   168  ASP168      0.3668
    106  OD1        7.0100   61.5190   42.7540 O.co2 168  ASP168     -0.2456
    107  OD2        8.9300   60.6510   42.1290 O.co2 168  ASP168     -0.2456
    108  N          6.6750   61.7660   46.5250 N.am  169  GLN169     -0.1979
    109  CA         6.3760   60.9000   47.6580 C.3   169  GLN169      0.1601
    110  C          7.3900   61.1480   48.7700 C.2   169  GLN169      0.2287
    111  O          8.2220   60.2770   49.0660 O.2   169  GLN169     -0.2864
    112  CB         6.3770   59.4300   47.2300 C.3   169  GLN169      0.0394
    113  CG         5.4140   59.1250   46.0840 C.3   169  GLN169      0.0908
    114  CD         5.0820   57.6430   45.9710 C.2   169  GLN169      0.2608
    115  OE1        5.4420   56.8460   46.8400 O.2   169  GLN169     -0.2717
    116  NE2        4.3900   57.2700   44.8950 N.am  169  GLN169     -0.0878
    117  N          3.9540   64.8480   44.9020 N.3   199  VAL199     -0.1245
    118  CA         3.3120   63.5920   44.5420 C.3   199  VAL199      0.1561
    119  C          3.1280   62.7830   45.8160 C.2   199  VAL199      0.2260
    120  O          4.0700   62.6280   46.6040 O.2   199  VAL199     -0.2867
    121  CB         4.1500   62.8150   43.5140 C.3   199  VAL199      0.0252
    122  CG1        3.3700   61.6240   42.9760 C.3   199  VAL199      0.0019
    123  CG2        4.5790   63.7190   42.3860 C.3   199  VAL199      0.0019
    124  N          0.3990   59.5120   47.8100 N.3   201  HIS201     -0.1241
    125  CA        -0.7530   58.6220   47.8590 C.3   201  HIS201      0.1621
    126  C         -1.5640   58.7780   49.1340 C.2   201  HIS201      0.2264
    127  O         -2.7770   58.5590   49.1140 O.2   201  HIS201     -0.2867
    128  CB        -0.2970   57.1630   47.7320 C.3   201  HIS201      0.0745
    129  CG         0.2180   56.8080   46.3710 C.ar  201  HIS201      0.0817
    130  ND1        1.3350   56.0240   46.1780 N.ar  201  HIS201     -0.2268
    131  CD2       -0.2380   57.1250   45.1360 C.ar  201  HIS201      0.1154
    132  CE1        1.5490   55.8770   44.8820 C.ar  201  HIS201      0.1986
    133  NE2        0.6080   56.5350   44.2280 N.ar  201  HIS201     -0.2212
@<TRIPOS>BOND
     1    16    17    1
     2    15    14    2
     3    14    13    1
     4    23    21   am
     5    17    20    1
     6    17    18    1
     7    20    21    1
     8    21    22    2
     9    18    19    2
    10    13    12    1
    11    24    25    1
    12    12     3   am
    13     4     3    2
    14     3     2    1
    15    26    25    1
    16    26    27    2
    17    25    28    1
    18     1     2    1
    19     2     5    1
    20    28    30    1
    21    28    29    1
    22    31    32    1
    23     5     6    1
    24     6     7   ar
    25     6     8   ar
    26     7     9   ar
    27    32    33    1
    28    32    35    1
    29     8    10   ar
    30    33    34    2
    31    36    35    1
    32    35    37    1
    33     9    11   ar
    34    10    11   ar
    35    79    77    1
    36    77    78    1
    37    77    74    1
    38    51    50    2
    39    76    75    2
    40    75    74    1
    41    55    54    1
    42    55    56    1
    43    74    73    1
    44    50    54   am
    45    50    49    1
    46    47    46    2
    47    57    56    2
    48    49    52    1
    49    49    48    1
    50    56    58   am
    51    73    69   am
    52    46    48   am
    53    46    45    1
    54    52    53    1
    55    58    59    1
    56    45    44    1
    57    69    70    2
    58    69    68    1
    59    61    60    2
    60    59    60    1
    61    59    62    1
    62    60    67   am
    63    41    40    2
    64    67    68    1
    65    44    40   am
    66    68    71    1
    67    71    72    1
    68    40    39    1
    69    63    62    1
    70    63    64    1
    71    98    97    1
    72    99    97    1
    73    39    38    1
    74    39    42    1
    75    66    65    1
    76    64    65    1
    77    43    42    1
    78    97    96    2
    79   107   105   ar
    80    96    95    1
    81    87    86    2
    82   123   121    1
    83   106   105   ar
    84   105   104    1
    85   122   121    1
    86    95    94    1
    87   121   118    1
    88    86    88   am
    89    86    85    1
    90   104   101    1
    91    84    85    1
    92    84    81    1
    93   133   132   ar
    94   133   131   ar
    95    94    93    1
    96   118   117    1
    97   118   119    1
    98    93    90    1
    99    80    81    1
   100   132   130   ar
   101   101   100    1
   102   101   102    1
   103   116   114   am
   104    92    91    2
   105    89    90    1
   106    89    82   am
   107   131   129   ar
   108    81    82    1
   109    90    91    1
   110   119   120    2
   111    82    83    2
   112   114   113    1
   113   114   115    2
   114   102   103    2
   115   102   108   am
   116   113   112    1
   117   130   129   ar
   118   129   128    1
   119   108   109    1
   120   112   109    1
   121   109   110    1
   122   128   125    1
   123   124   125    1
   124   125   126    1
   125   110   111    2
   126   127   126    2
