@<TRIPOS>MOLECULE
tmp/5lirA01.pdb
 84 80 0 0 0
SMALL
GASTEIGER

@<TRIPOS>ATOM
      1  N        -28.3240   98.9850   68.1440 N.3    45  LYS45      -0.1231
      2  CA       -29.3590   99.4690   67.2360 C.3    45  LYS45       0.1678
      3  C        -29.5340   98.4720   66.0890 C.2    45  LYS45       0.2434
      4  O        -28.6000   97.7040   65.8130 O.2    45  LYS45      -0.2733
      5  CB       -28.9380  100.8660   66.6950 C.3    45  LYS45       0.0284
      6  CG       -27.7770  100.8880   65.7350 C.3    45  LYS45       0.0035
      7  CD       -27.5330  102.3530   65.3120 C.3    45  LYS45       0.0206
      8  CE       -26.3630  102.5350   64.4770 C.3    45  LYS45       0.1093
      9  NZ       -26.2590  103.9610   63.9980 N.3    45  LYS45      -0.1314
     10  N        -30.6370   98.5080   65.3660 N.am   46  PRO46      -0.2729
     11  CA       -30.7980   97.5990   64.2310 C.3    46  PRO46       0.1401
     12  C        -29.8670   97.9240   63.0560 C.2    46  PRO46       0.2269
     13  O        -29.5090   99.0740   62.8560 O.2    46  PRO46      -0.2865
     14  CB       -32.2460   97.8340   63.7870 C.3    46  PRO46       0.0296
     15  CG       -32.8390   98.7920   64.7600 C.3    46  PRO46       0.0237
     16  CD       -31.7210   99.4950   65.4390 C.3    46  PRO46       0.0939
     17  N        -28.8960   98.4630   59.1160 N.3    48  ALA48      -0.1245
     18  CA       -29.6300   99.1380   58.0550 C.3    48  ALA48       0.1562
     19  C        -30.3400   98.1270   57.1610 C.2    48  ALA48       0.2260
     20  O        -31.3990   98.3960   56.6180 O.2    48  ALA48      -0.2867
     21  CB       -28.7040  100.0040   57.2310 C.3    48  ALA48       0.0290
     22  N        -23.0560  101.9900   56.3640 N.3   101  LYS101     -0.1231
     23  CA       -24.5090  101.8210   56.5760 C.3   101  LYS101      0.1693
     24  C        -24.9910  102.0020   58.0070 C.2   101  LYS101      0.2592
     25  O        -26.1410  102.4180   58.2330 O.2   101  LYS101     -0.2718
     26  CB       -24.9100  100.4170   56.0740 C.3   101  LYS101      0.0285
     27  CG       -24.8280  100.2770   54.5540 C.3   101  LYS101      0.0035
     28  CD       -25.2980   98.8180   54.2870 C.3   101  LYS101      0.0206
     29  CE       -25.2930   98.4070   52.8660 C.3   101  LYS101      0.1093
     30  NZ       -25.8290   97.0100   52.6840 N.3   101  LYS101     -0.1314
     31  N        -24.1520  101.5940   58.9640 N.am  102  ASN102     -0.1974
     32  CA       -24.4910  101.5060   60.3800 C.3   102  ASN102      0.1688
     33  C        -23.7120  102.4960   61.2600 C.2   102  ASN102      0.2292
     34  O        -24.3460  103.1370   62.1110 O.2   102  ASN102     -0.2864
     35  CB       -24.3690  100.0810   60.9620 C.3   102  ASN102      0.1181
     36  CG       -25.1410   99.0540   60.1490 C.2   102  ASN102      0.2629
     37  OD1      -26.2150   99.3590   59.6080 O.2   102  ASN102     -0.2716
     38  ND2      -24.6500   97.7940   60.1440 N.am  102  ASN102     -0.0877
     39  N        -22.3100  105.0420   59.9180 N.3   104  SER104     -0.1202
     40  CA       -22.6650  106.2560   59.1620 C.3   104  SER104      0.2020
     41  C        -23.6290  105.8550   58.0840 C.2   104  SER104      0.2618
     42  O        -23.9320  104.6530   57.9250 O.2   104  SER104     -0.2717
     43  CB       -21.3830  106.7840   58.4720 C.3   104  SER104      0.2103
     44  OG       -20.9600  106.0330   57.3130 O.3   104  SER104     -0.2182
     45  N        -24.0860  106.8300   57.2970 N.am  105  ASN105     -0.1974
     46  CA       -24.8620  106.5570   56.0990 C.3   105  ASN105      0.1688
     47  C        -24.1880  107.0130   54.8350 C.2   105  ASN105      0.2292
     48  O        -24.8600  107.4270   53.8460 O.2   105  ASN105     -0.2864
     49  CB       -26.3010  107.0780   56.2280 C.3   105  ASN105      0.1181
     50  CG       -26.3710  108.5850   56.4710 C.2   105  ASN105      0.2629
     51  OD1      -25.3640  109.2890   56.4050 O.2   105  ASN105     -0.2716
     52  ND2      -27.5530  109.0700   56.8230 N.am  105  ASN105     -0.0877
     53  N        -23.9800  111.5490   57.6420 N.3   114  ARG114     -0.1231
     54  CA       -23.9130  111.7970   59.0610 C.3   114  ARG114      0.1694
     55  C        -23.2910  110.5330   59.6740 C.2   114  ARG114      0.2592
     56  O        -23.4680  109.4210   59.1210 O.2   114  ARG114     -0.2718
     57  CB       -25.2940  112.0080   59.6020 C.3   114  ARG114      0.0321
     58  CG       -25.8240  113.3910   59.2350 C.3   114  ARG114      0.0489
     59  CD       -27.3290  113.3820   59.4120 C.3   114  ARG114      0.2205
     60  NE       -27.7170  112.7400   60.6880 N.pl3 114  ARG114     -0.0865
     61  CZ       -28.9670  112.3550   61.0110 C.cat 114  ARG114      0.5346
     62  NH1      -30.0020  112.5490   60.1870 N.pl3 114  ARG114      0.1354
     63  NH2      -29.1960  111.7920   62.1960 N.pl3 114  ARG114      0.1354
     64  N        -22.5940  110.7190   60.7830 N.am  115  VAL115     -0.1966
     65  CA       -21.9330  109.6480   61.4940 C.3   115  VAL115      0.1727
     66  C        -22.5970  109.4250   62.8470 C.2   115  VAL115      0.2616
     67  O        -23.0660  110.3540   63.4710 O.2   115  VAL115     -0.2715
     68  CB       -20.4450  109.9960   61.6990 C.3   115  VAL115      0.0290
     69  CG1      -19.7300  108.9370   62.5170 C.3   115  VAL115      0.0023
     70  CG2      -19.7720  110.2060   60.3610 C.3   115  VAL115      0.0023
     71  N        -22.6260  108.1780   63.2910 N.am  116  ASP116     -0.1957
     72  CA       -23.2070  107.8210   64.5740 C.3   116  ASP116      0.1840
     73  C        -22.6190  108.7370   65.6440 C.2   116  ASP116      0.2622
     74  O        -21.4090  108.8460   65.7540 O.2   116  ASP116     -0.2715
     75  CB       -22.9020  106.3510   64.8580 C.3   116  ASP116      0.1450
     76  CG       -23.4010  105.8890   66.1930 C.2   116  ASP116      0.3671
     77  OD1      -22.8010  106.2560   67.2130 O.co2 116  ASP116     -0.2456
     78  OD2      -24.3650  105.1050   66.2110 O.co2 116  ASP116     -0.2456
     79  N        -23.4770  109.4000   66.4180 N.am  117  SER117     -0.1950
     80  CA       -23.0350  110.3500   67.4450 C.3   117  SER117      0.1924
     81  C        -22.0460  109.8130   68.4820 C.2   117  SER117      0.2314
     82  O        -21.1450  110.5120   68.8880 O.2   117  SER117     -0.2863
     83  CB       -24.2200  111.0600   68.1110 C.3   117  SER117      0.2116
     84  OG       -24.8660  110.2260   69.0370 O.3   117  SER117     -0.2180
@<TRIPOS>BOND
     1    30    29    1
     2    29    28    1
     3    48    47    2
     4    28    27    1
     5    27    26    1
     6    47    46    1
     7    26    23    1
     8    46    49    1
     9    46    45    1
    10    49    50    1
    11    22    23    1
    12    51    50    2
    13    50    52   am
    14    23    24    1
    15    20    19    2
    16    19    18    1
    17    21    18    1
    18    45    41   am
    19    44    43    1
    20    53    54    1
    21    42    41    2
    22    24    25    2
    23    24    31   am
    24    18    17    1
    25    41    40    1
    26    43    40    1
    27    31    32    1
    28    54    57    1
    29    54    55    1
    30    56    55    2
    31    40    39    1
    32    58    59    1
    33    58    57    1
    34    59    60    1
    35    37    36    2
    36    55    64   am
    37    38    36   am
    38    36    35    1
    39    62    61    1
    40    70    68    1
    41    32    35    1
    42    32    33    1
    43    60    61    2
    44    64    65    1
    45    61    63    1
    46    33    34    2
    47    65    68    1
    48    65    66    1
    49    68    69    1
    50    66    71   am
    51    66    67    2
    52    13    12    2
    53    12    11    1
    54    71    72    1
    55    14    11    1
    56    14    15    1
    57     9     8    1
    58    11    10    1
    59     8     7    1
    60    72    75    1
    61    72    73    1
    62    15    16    1
    63    75    76    1
    64     7     6    1
    65    10    16    1
    66    10     3   am
    67    73    74    2
    68    73    79   am
    69     6     5    1
    70     4     3    2
    71     3     2    1
    72    76    78   ar
    73    76    77   ar
    74    79    80    1
    75     5     2    1
    76     2     1    1
    77    80    83    1
    78    80    81    1
    79    83    84    1
    80    81    82    2
