@<TRIPOS>MOLECULE
tmp/5liwA01.pdb
 193 195 0 0 0
SMALL
GASTEIGER

@<TRIPOS>ATOM
      1  N         -4.8510   32.2000    2.1140 N.3    21  TRP21      -0.1241
      2  CA        -3.6890   31.9470    1.2680 C.3    21  TRP21       0.1605
      3  C         -2.9980   33.2630    0.9050 C.2    21  TRP21       0.2264
      4  O         -3.6590   34.2180    0.4690 O.2    21  TRP21      -0.2867
      5  CB        -4.0430   31.1970   -0.0130 C.3    21  TRP21       0.0550
      6  CG        -2.8510   31.1930   -0.9300 C.ar   21  TRP21       0.0003
      7  CD1       -1.5830   30.7640   -0.6270 C.ar   21  TRP21       0.0946
      8  CD2       -2.7950   31.6830   -2.2770 C.ar   21  TRP21       0.0152
      9  NE1       -0.7510   30.9470   -1.7080 N.ar   21  TRP21      -0.2442
     10  CE2       -1.4710   31.5020   -2.7340 C.ar   21  TRP21       0.0810
     11  CE3       -3.7380   32.2250   -3.1500 C.ar   21  TRP21       0.0012
     12  CZ2       -1.0660   31.8700   -4.0200 C.ar   21  TRP21       0.0191
     13  CZ3       -3.3340   32.5920   -4.4270 C.ar   21  TRP21       0.0001
     14  CH2       -2.0110   32.4090   -4.8490 C.ar   21  TRP21       0.0015
     15  N         -0.0160   24.3340    4.0940 N.3    47  VAL47      -0.1231
     16  CA         0.8940   24.8180    3.0690 C.3    47  VAL47       0.1692
     17  C          0.9880   26.3530    3.0240 C.2    47  VAL47       0.2592
     18  O          1.9090   26.9120    2.4070 O.2    47  VAL47      -0.2718
     19  CB         0.5050   24.2190    1.6950 C.3    47  VAL47       0.0266
     20  CG1       -0.7660   24.8680    1.1520 C.3    47  VAL47       0.0020
     21  CG2        1.6460   24.3190    0.6950 C.3    47  VAL47       0.0020
     22  N          0.0630   27.0420    3.6890 N.am   48  TYR48      -0.1976
     23  CA         0.0990   28.5090    3.6870 C.3    48  TYR48       0.1639
     24  C          1.1460   29.0170    4.6750 C.2    48  TYR48       0.2290
     25  O          1.5590   30.1860    4.6030 O.2    48  TYR48      -0.2864
     26  CB        -1.2590   29.1600    4.0170 C.3    48  TYR48       0.0560
     27  CG        -2.4440   28.7300    3.1640 C.ar   48  TYR48      -0.0198
     28  CD1       -2.2650   28.0930    1.9490 C.ar   48  TYR48      -0.0009
     29  CD2       -3.7480   28.9640    3.5960 C.ar   48  TYR48      -0.0009
     30  CE1       -3.3520   27.6760    1.1900 C.ar   48  TYR48       0.0417
     31  CE2       -4.8400   28.5550    2.8390 C.ar   48  TYR48       0.0417
     32  CZ        -4.6320   27.9200    1.6380 C.ar   48  TYR48       0.1957
     33  OH        -5.7030   27.5090    0.8830 O.3    48  TYR48      -0.2866
     34  N         -1.8870   18.4910    3.2630 N.3    78  TRP78      -0.1241
     35  CA        -1.1090   18.6210    2.0350 C.3    78  TRP78       0.1605
     36  C         -0.6390   17.2340    1.5660 C.2    78  TRP78       0.2264
     37  O         -0.3480   16.3760    2.3980 O.2    78  TRP78      -0.2867
     38  CB         0.0560   19.5770    2.2880 C.3    78  TRP78       0.0550
     39  CG         0.8240   19.8840    1.0720 C.ar   78  TRP78       0.0003
     40  CD1        2.1080   19.5060    0.7980 C.ar   78  TRP78       0.0946
     41  CD2        0.3660   20.6250   -0.0680 C.ar   78  TRP78       0.0152
     42  NE1        2.4740   19.9640   -0.4410 N.ar   78  TRP78      -0.2442
     43  CE2        1.4250   20.6560   -0.9940 C.ar   78  TRP78       0.0810
     44  CE3       -0.8340   21.2710   -0.3910 C.ar   78  TRP78       0.0012
     45  CZ2        1.3210   21.3040   -2.2290 C.ar   78  TRP78       0.0191
     46  CZ3       -0.9470   21.8930   -1.6270 C.ar   78  TRP78       0.0001
     47  CH2        0.1340   21.9130   -2.5290 C.ar   78  TRP78       0.0015
     48  N         -6.3310   18.5150    0.5370 N.3   108  HIS108     -0.1226
     49  CA        -6.1030   19.7560   -0.2090 C.3   108  HIS108      0.1752
     50  C         -6.1480   19.5030   -1.7210 C.2   108  HIS108      0.2596
     51  O         -6.6160   20.3410   -2.4870 O.2   108  HIS108     -0.2718
     52  CB        -4.7730   20.3900    0.2290 C.3   108  HIS108      0.0759
     53  CG        -4.6490   21.8530   -0.0620 C.ar  108  HIS108      0.0818
     54  ND1       -4.0350   22.7340    0.8120 N.ar  108  HIS108     -0.2268
     55  CD2       -4.9880   22.5830   -1.1510 C.ar  108  HIS108      0.1154
     56  CE1       -4.0400   23.9460    0.2860 C.ar  108  HIS108      0.1986
     57  NE2       -4.6100   23.8830   -0.9040 N.ar  108  HIS108     -0.2212
     58  N         -5.6800   18.3320   -2.1500 N.am  109  TRP109     -0.1976
     59  CA        -5.5300   18.0240   -3.5700 C.3   109  TRP109      0.1640
     60  C         -5.5280   16.5080   -3.6560 C.2   109  TRP109      0.2290
     61  O         -4.9530   15.8790   -2.7860 O.2   109  TRP109     -0.2864
     62  CB        -4.1830   18.5740   -4.0620 C.3   109  TRP109      0.0576
     63  CG        -3.8550   18.2530   -5.5000 C.ar  109  TRP109      0.0006
     64  CD1       -2.9830   17.3140   -5.9470 C.ar  109  TRP109      0.0946
     65  CD2       -4.4010   18.8820   -6.6660 C.ar  109  TRP109      0.0152
     66  NE1       -2.9540   17.3090   -7.3220 N.ar  109  TRP109     -0.2442
     67  CE2       -3.8160   18.2680   -7.7880 C.ar  109  TRP109      0.0810
     68  CE3       -5.3340   19.9030   -6.8700 C.ar  109  TRP109      0.0012
     69  CZ2       -4.1230   18.6470   -9.0980 C.ar  109  TRP109      0.0191
     70  CZ3       -5.6440   20.2740   -8.1570 C.ar  109  TRP109      0.0001
     71  CH2       -5.0420   19.6440   -9.2610 C.ar  109  TRP109      0.0015
     72  N          1.8130   13.2410   -3.3640 N.3   113  PHE113     -0.1241
     73  CA         3.1330   13.6760   -3.8140 C.3   113  PHE113      0.1605
     74  C          4.1670   12.8910   -3.0140 C.2   113  PHE113      0.2264
     75  O          3.8120   12.2100   -2.0370 O.2   113  PHE113     -0.2867
     76  CB         3.3340   15.1830   -3.5850 C.3   113  PHE113      0.0534
     77  CG         2.3480   16.0530   -4.3230 C.ar  113  PHE113     -0.0203
     78  CD1        1.9790   15.7600   -5.6380 C.ar  113  PHE113     -0.0042
     79  CD2        1.7860   17.1670   -3.7010 C.ar  113  PHE113     -0.0042
     80  CE1        1.0710   16.5580   -6.3260 C.ar  113  PHE113     -0.0003
     81  CE2        0.8610   17.9770   -4.3780 C.ar  113  PHE113     -0.0003
     82  CZ         0.5030   17.6810   -5.6870 C.ar  113  PHE113     -0.0000
     83  N          9.5560   18.3670   -7.0510 N.3   122  ARG122     -0.1245
     84  CA         9.3890   18.5060   -8.4900 C.3   122  ARG122      0.1563
     85  C         10.6430   18.0520   -9.2150 C.2   122  ARG122      0.2260
     86  O         11.7370   18.0900   -8.6530 O.2   122  ARG122     -0.2867
     87  CB         9.1010   19.9670   -8.8530 C.3   122  ARG122      0.0307
     88  CG         7.7530   20.4660   -8.3640 C.3   122  ARG122      0.0489
     89  CD         7.6630   21.9820   -8.3540 C.3   122  ARG122      0.2205
     90  NE         6.3720   22.4210   -7.8250 N.pl3 122  ARG122     -0.0865
     91  CZ         5.9870   23.6900   -7.7360 C.cat 122  ARG122      0.5346
     92  NH1        6.7930   24.6610   -8.1370 N.pl3 122  ARG122      0.1354
     93  NH2        4.7930   23.9860   -7.2420 N.pl3 122  ARG122      0.1354
     94  N        -10.5860   20.2690   -4.6770 N.3   157  ASN157     -0.1240
     95  CA       -10.1380   19.9960   -6.0380 C.3   157  ASN157      0.1653
     96  C        -10.4120   18.5660   -6.4920 C.2   157  ASN157      0.2266
     97  O         -9.5930   17.9910   -7.2120 O.2   157  ASN157     -0.2867
     98  CB        -8.6480   20.2990   -6.2040 C.3   157  ASN157      0.1155
     99  CG        -8.3110   21.7280   -5.8770 C.2   157  ASN157      0.2627
    100  OD1       -8.6490   22.6430   -6.6350 O.2   157  ASN157     -0.2716
    101  ND2       -7.6050   21.9310   -4.7670 N.am  157  ASN157     -0.0877
    102  N        -13.6260   28.6110   -3.9450 N.3   204  TYR204     -0.1241
    103  CA       -12.3960   29.3580   -3.7560 C.3   204  TYR204      0.1605
    104  C        -12.0540   30.2540   -4.9450 C.2   204  TYR204      0.2264
    105  O        -12.6320   30.1060   -6.0290 O.2   204  TYR204     -0.2867
    106  CB       -11.2370   28.4520   -3.3120 C.3   204  TYR204      0.0534
    107  CG       -10.5060   27.6020   -4.3350 C.ar  204  TYR204     -0.0201
    108  CD1       -9.7700   28.1780   -5.3590 C.ar  204  TYR204     -0.0009
    109  CD2      -10.4440   26.2120   -4.1900 C.ar  204  TYR204     -0.0009
    110  CE1       -9.0390   27.3930   -6.2580 C.ar  204  TYR204      0.0417
    111  CE2       -9.7220   25.4350   -5.0750 C.ar  204  TYR204      0.0417
    112  CZ        -9.0170   26.0290   -6.1020 C.ar  204  TYR204      0.1957
    113  OH        -8.2790   25.2470   -6.9750 O.3   204  TYR204     -0.2866
    114  N          0.5700   35.0800   -8.1400 N.3   213  PRO213     -0.2102
    115  CA         1.8890   35.4870   -8.6550 C.3   213  PRO213      0.1504
    116  C          2.0970   35.1960  -10.1500 C.2   213  PRO213      0.2575
    117  O          2.9380   35.8320  -10.7970 O.2   213  PRO213     -0.2718
    118  CB         2.8740   34.6550   -7.8200 C.3   213  PRO213      0.0282
    119  CG         2.0980   34.1500   -6.6430 C.3   213  PRO213      0.0208
    120  CD         0.6670   34.0660   -7.0760 C.3   213  PRO213      0.0893
    121  N          1.3360   34.2480  -10.6860 N.am  214  TRP214     -0.1977
    122  CA         1.5030   33.8010  -12.0700 C.3   214  TRP214      0.1640
    123  C          0.5560   34.4920  -13.0480 C.2   214  TRP214      0.2290
    124  O          0.5460   34.1810  -14.2420 O.2   214  TRP214     -0.2864
    125  CB         1.3300   32.2790  -12.1580 C.3   214  TRP214      0.0576
    126  CG        -0.0250   31.8010  -11.7110 C.ar  214  TRP214      0.0006
    127  CD1       -1.1430   31.6680  -12.4880 C.ar  214  TRP214      0.0946
    128  CD2       -0.4050   31.3830  -10.3910 C.ar  214  TRP214      0.0152
    129  NE1       -2.1970   31.2070  -11.7300 N.ar  214  TRP214     -0.2442
    130  CE2       -1.7680   31.0180  -10.4400 C.ar  214  TRP214      0.0810
    131  CE3        0.2710   31.2900   -9.1690 C.ar  214  TRP214      0.0012
    132  CZ2       -2.4650   30.5580   -9.3170 C.ar  214  TRP214      0.0191
    133  CZ3       -0.4230   30.8310   -8.0500 C.ar  214  TRP214      0.0001
    134  CH2       -1.7730   30.4750   -8.1340 C.ar  214  TRP214      0.0015
    135  N         -6.4520   28.9150  -10.9460 N.3   290  CYS290     -0.1221
    136  CA        -5.5130   27.9570  -10.3690 C.3   290  CYS290      0.1808
    137  C         -5.4010   26.7120  -11.2610 C.2   290  CYS290      0.2601
    138  O         -6.1370   25.7360  -11.0930 O.2   290  CYS290     -0.2717
    139  CB        -5.9200   27.5990   -8.9320 C.3   290  CYS290      0.0970
    140  SG        -5.7280   28.9590   -7.7360 S.3   290  CYS290     -0.0800
    141  N         -4.4810   26.7660  -12.2240 N.am  291  ASN291     -0.1960
    142  CA        -4.3200   25.7150  -13.2230 C.3   291  ASN291      0.1819
    143  C         -2.8870   25.7020  -13.7390 C.2   291  ASN291      0.2621
    144  O         -2.5870   25.1360  -14.7910 O.2   291  ASN291     -0.2715
    145  CB        -5.2850   25.9490  -14.3870 C.3   291  ASN291      0.1195
    146  CG        -5.4080   24.7460  -15.2960 C.2   291  ASN291      0.2630
    147  OD1       -4.9410   23.6490  -14.9700 O.2   291  ASN291     -0.2716
    148  ND2       -6.0460   24.9400  -16.4440 N.am  291  ASN291     -0.0877
    149  N         -2.0040   26.3440  -12.9880 N.am  292  LEU292     -0.1963
    150  CA        -0.6230   26.5260  -13.4110 C.3   292  LEU292      0.1728
    151  C          0.2460   25.2840  -13.2160 C.2   292  LEU292      0.2616
    152  O          1.1430   25.0110  -14.0180 O.2   292  LEU292     -0.2715
    153  CB        -0.0210   27.7030  -12.6520 C.3   292  LEU292      0.0311
    154  CG         1.4490   28.0140  -12.9030 C.3   292  LEU292      0.0022
    155  CD1        1.6940   28.4110  -14.3510 C.3   292  LEU292      0.0001
    156  CD2        1.8670   29.1060  -11.9580 C.3   292  LEU292      0.0001
    157  N         -0.0250   24.5280  -12.1560 N.am  293  LEU293     -0.1977
    158  CA         0.8580   23.4280  -11.7670 C.3   293  LEU293      0.1596
    159  C          0.8450   22.2360  -12.7150 C.2   293  LEU293      0.2287
    160  O         -0.1780   21.9110  -13.3330 O.2   293  LEU293     -0.2864
    161  CB         0.5820   22.9730  -10.3340 C.3   293  LEU293      0.0297
    162  CG         0.8320   24.0600   -9.2900 C.3   293  LEU293      0.0022
    163  CD1        0.6160   23.5120   -7.8920 C.3   293  LEU293      0.0001
    164  CD2        2.2340   24.6450   -9.4340 C.3   293  LEU293      0.0001
    165  N          1.0130   18.5190  -13.1200 N.3   295  SER295     -0.1217
    166  CA         0.8100   17.2470  -12.4220 C.3   295  SER295      0.1889
    167  C         -0.1510   16.2630  -13.1040 C.2   295  SER295      0.2288
    168  O         -0.5520   15.2660  -12.4960 O.2   295  SER295     -0.2866
    169  CB         0.3540   17.4910  -10.9760 C.3   295  SER295      0.2089
    170  OG        -1.0040   17.8950  -10.9300 O.3   295  SER295     -0.2183
    171  N         -5.7420   12.9640  -11.5950 N.3   301  TYR301     -0.1241
    172  CA        -5.7790   14.3680  -11.9810 C.3   301  TYR301      0.1605
    173  C         -7.2320   14.7880  -12.1790 C.2   301  TYR301      0.2264
    174  O         -7.9470   14.1820  -12.9770 O.2   301  TYR301     -0.2867
    175  CB        -4.9890   14.6180  -13.2620 C.3   301  TYR301      0.0534
    176  CG        -4.8470   16.0930  -13.5550 C.ar  301  TYR301     -0.0201
    177  CD1       -4.0080   16.8860  -12.7890 C.ar  301  TYR301     -0.0009
    178  CD2       -5.5680   16.6930  -14.5820 C.ar  301  TYR301     -0.0009
    179  CE1       -3.8790   18.2330  -13.0370 C.ar  301  TYR301      0.0417
    180  CE2       -5.4420   18.0450  -14.8420 C.ar  301  TYR301      0.0417
    181  CZ        -4.5930   18.8070  -14.0640 C.ar  301  TYR301      0.1957
    182  OH        -4.4520   20.1490  -14.2960 O.3   301  TYR301     -0.2866
    183  N         -8.7460   17.7890  -13.2360 N.3   303  PHE303     -0.1241
    184  CA        -9.2090   18.9040  -14.0660 C.3   303  PHE303      0.1605
    185  C         -9.5050   18.5980  -15.5300 C.2   303  PHE303      0.2264
    186  O         -9.9560   19.4820  -16.2570 O.2   303  PHE303     -0.2867
    187  CB        -8.2340   20.0740  -13.9900 C.3   303  PHE303      0.0534
    188  CG        -8.1840   20.7360  -12.6410 C.ar  303  PHE303     -0.0203
    189  CD1       -7.1510   21.6000  -12.3270 C.ar  303  PHE303     -0.0042
    190  CD2       -9.1720   20.4970  -11.6930 C.ar  303  PHE303     -0.0042
    191  CE1       -7.0920   22.2260  -11.0950 C.ar  303  PHE303     -0.0003
    192  CE2       -9.1120   21.1140  -10.4420 C.ar  303  PHE303     -0.0003
    193  CZ        -8.0750   21.9740  -10.1490 C.ar  303  PHE303     -0.0000
@<TRIPOS>BOND
     1   148   146   am
     2   186   185    2
     3   185   184    1
     4   146   147    2
     5   146   145    1
     6   180   178   ar
     7   180   181   ar
     8   144   143    2
     9   178   176   ar
    10   145   142    1
    11   155   154    1
    12   182   181    1
    13   124   123    2
    14   184   187    1
    15   184   183    1
    16   181   179   ar
    17   152   151    2
    18   187   188    1
    19   143   142    1
    20   143   149   am
    21   176   175    1
    22   176   177   ar
    23   150   151    1
    24   150   149    1
    25   150   153    1
    26   160   159    2
    27   175   172    1
    28   142   141    1
    29   151   157   am
    30   165   166    1
    31   167   168    2
    32   167   166    1
    33   123   122    1
    34   179   177   ar
    35   174   173    2
    36   154   153    1
    37   154   156    1
    38   159   158    1
    39   188   189   ar
    40   188   190   ar
    41   127   129   ar
    42   127   126   ar
    43   166   169    1
    44   189   191   ar
    45   141   137   am
    46   173   172    1
    47   125   122    1
    48   125   126    1
    49   157   158    1
    50   122   121    1
    51   172   171    1
    52   158   161    1
    53   129   130   ar
    54   126   128   ar
    55   190   192   ar
    56   137   138    2
    57   137   136    1
    58   191   193   ar
    59   169   170    1
    60   135   136    1
    61   117   116    2
    62   121   116   am
    63   192   193   ar
    64   130   128   ar
    65   130   132   ar
    66   128   131   ar
    67   136   139    1
    68   161   162    1
    69   116   115    1
    70   164   162    1
    71   132   134   ar
    72   162   163    1
    73    71    69   ar
    74    71    70   ar
    75    85    86    2
    76    85    84    1
    77   131   133   ar
    78    69    67   ar
    79   139   140    1
    80    87    84    1
    81    87    88    1
    82   115   114    1
    83   115   118    1
    84    84    83    1
    85    88    89    1
    86    89    90    1
    87    70    68   ar
    88   114   120    1
    89    92    91    1
    90   134   133   ar
    91    90    91    2
    92   118   119    1
    93    67    66   ar
    94    67    65   ar
    95    91    93    1
    96    66    64   ar
    97    97    96    2
    98   120   119    1
    99   113   112    1
   100    68    65   ar
   101    65    63   ar
   102   100    99    2
   103    96    95    1
   104    80    82   ar
   105    80    78   ar
   106   110   112   ar
   107   110   108   ar
   108    98    95    1
   109    98    99    1
   110   112   111   ar
   111    95    94    1
   112   105   104    2
   113    64    63   ar
   114    99   101   am
   115    82    81   ar
   116    78    77   ar
   117    63    62    1
   118   108   107   ar
   119   111   109   ar
   120   104   103    1
   121    14    13   ar
   122    14    12   ar
   123    13    11   ar
   124    81    79   ar
   125   107   109   ar
   126   107   106    1
   127    77    79   ar
   128    77    76    1
   129    62    59    1
   130    12    10   ar
   131   102   103    1
   132    73    76    1
   133    73    72    1
   134    73    74    1
   135   103   106    1
   136    60    59    1
   137    60    61    2
   138    59    58    1
   139    11     8   ar
   140    74    75    2
   141    10     8   ar
   142    10     9   ar
   143    47    45   ar
   144    47    46   ar
   145    51    50    2
   146     8     6   ar
   147    45    43   ar
   148    58    50   am
   149    50    49    1
   150     9     7   ar
   151    46    44   ar
   152    55    57   ar
   153    55    53   ar
   154    43    42   ar
   155    43    41   ar
   156     6     7   ar
   157     6     5    1
   158    57    56   ar
   159    42    40   ar
   160    44    41   ar
   161    49    52    1
   162    49    48    1
   163    41    39   ar
   164    53    52    1
   165    53    54   ar
   166     5     2    1
   167    56    54   ar
   168     4     3    2
   169    21    19    1
   170    40    39   ar
   171    33    32    1
   172     3     2    1
   173    39    38    1
   174    20    19    1
   175    30    32   ar
   176    30    28   ar
   177     2     1    1
   178    36    35    1
   179    36    37    2
   180    32    31   ar
   181    19    16    1
   182    28    27   ar
   183    35    38    1
   184    35    34    1
   185    18    17    2
   186    31    29   ar
   187    17    16    1
   188    17    22   am
   189    16    15    1
   190    27    29   ar
   191    27    26    1
   192    23    22    1
   193    23    26    1
   194    23    24    1
   195    25    24    2
