@<TRIPOS>MOLECULE
tmp/5liwA02.pdb
 125 127 0 0 0
SMALL
GASTEIGER

@<TRIPOS>ATOM
      1  N         -4.8510   32.2000    2.1140 N.3    21  TRP21      -0.1227
      2  CA        -3.6890   31.9470    1.2680 C.3    21  TRP21       0.1737
      3  C         -2.9980   33.2630    0.9050 C.2    21  TRP21       0.2595
      4  O         -3.6590   34.2180    0.4690 O.2    21  TRP21      -0.2718
      5  CB        -4.0430   31.1970   -0.0130 C.3    21  TRP21       0.0564
      6  CG        -2.8510   31.1930   -0.9300 C.ar   21  TRP21       0.0003
      7  CD1       -1.5830   30.7640   -0.6270 C.ar   21  TRP21       0.0946
      8  CD2       -2.7950   31.6830   -2.2770 C.ar   21  TRP21       0.0152
      9  NE1       -0.7510   30.9470   -1.7080 N.ar   21  TRP21      -0.2442
     10  CE2       -1.4710   31.5020   -2.7340 C.ar   21  TRP21       0.0810
     11  CE3       -3.7380   32.2250   -3.1500 C.ar   21  TRP21       0.0012
     12  CZ2       -1.0660   31.8700   -4.0200 C.ar   21  TRP21       0.0191
     13  CZ3       -3.3340   32.5920   -4.4270 C.ar   21  TRP21       0.0001
     14  CH2       -2.0110   32.4090   -4.8490 C.ar   21  TRP21       0.0015
     15  N         -1.6780   33.3110    1.0990 N.am   22  LYS22      -0.1980
     16  CA        -0.8520   34.4710    0.7500 C.3    22  LYS22       0.1596
     17  C         -1.1040   35.6910    1.6340 C.2    22  LYS22       0.2287
     18  O         -0.6590   36.7980    1.3230 O.2    22  LYS22      -0.2864
     19  CB        -0.9870   34.8400   -0.7380 C.3    22  LYS22       0.0298
     20  CG         0.2880   34.6200   -1.5610 C.3    22  LYS22       0.0038
     21  CD         0.5130   35.7910   -2.5210 C.3    22  LYS22       0.0206
     22  CE         1.9440   35.8240   -3.0270 C.3    22  LYS22       0.1093
     23  NZ         2.2410   37.0720   -3.7710 N.3    22  LYS22      -0.1314
     24  N         -0.0160   24.3340    4.0940 N.3    47  VAL47      -0.1231
     25  CA         0.8940   24.8180    3.0690 C.3    47  VAL47       0.1692
     26  C          0.9880   26.3530    3.0240 C.2    47  VAL47       0.2592
     27  O          1.9090   26.9120    2.4070 O.2    47  VAL47      -0.2718
     28  CB         0.5050   24.2190    1.6950 C.3    47  VAL47       0.0266
     29  CG1       -0.7660   24.8680    1.1520 C.3    47  VAL47       0.0020
     30  CG2        1.6460   24.3190    0.6950 C.3    47  VAL47       0.0020
     31  N          0.0630   27.0420    3.6890 N.am   48  TYR48      -0.1976
     32  CA         0.0990   28.5090    3.6870 C.3    48  TYR48       0.1639
     33  C          1.1460   29.0170    4.6750 C.2    48  TYR48       0.2290
     34  O          1.5590   30.1860    4.6030 O.2    48  TYR48      -0.2864
     35  CB        -1.2590   29.1600    4.0170 C.3    48  TYR48       0.0560
     36  CG        -2.4440   28.7300    3.1640 C.ar   48  TYR48      -0.0198
     37  CD1       -2.2650   28.0930    1.9490 C.ar   48  TYR48      -0.0009
     38  CD2       -3.7480   28.9640    3.5960 C.ar   48  TYR48      -0.0009
     39  CE1       -3.3520   27.6760    1.1900 C.ar   48  TYR48       0.0417
     40  CE2       -4.8400   28.5550    2.8390 C.ar   48  TYR48       0.0417
     41  CZ        -4.6320   27.9200    1.6380 C.ar   48  TYR48       0.1957
     42  OH        -5.7030   27.5090    0.8830 O.3    48  TYR48      -0.2866
     43  N         -1.8870   18.4910    3.2630 N.3    78  TRP78      -0.1241
     44  CA        -1.1090   18.6210    2.0350 C.3    78  TRP78       0.1605
     45  C         -0.6390   17.2340    1.5660 C.2    78  TRP78       0.2264
     46  O         -0.3480   16.3760    2.3980 O.2    78  TRP78      -0.2867
     47  CB         0.0560   19.5770    2.2880 C.3    78  TRP78       0.0550
     48  CG         0.8240   19.8840    1.0720 C.ar   78  TRP78       0.0003
     49  CD1        2.1080   19.5060    0.7980 C.ar   78  TRP78       0.0946
     50  CD2        0.3660   20.6250   -0.0680 C.ar   78  TRP78       0.0152
     51  NE1        2.4740   19.9640   -0.4410 N.ar   78  TRP78      -0.2442
     52  CE2        1.4250   20.6560   -0.9940 C.ar   78  TRP78       0.0810
     53  CE3       -0.8340   21.2710   -0.3910 C.ar   78  TRP78       0.0012
     54  CZ2        1.3210   21.3040   -2.2290 C.ar   78  TRP78       0.0191
     55  CZ3       -0.9470   21.8930   -1.6270 C.ar   78  TRP78       0.0001
     56  CH2        0.1340   21.9130   -2.5290 C.ar   78  TRP78       0.0015
     57  N         -6.3310   18.5150    0.5370 N.3   108  HIS108     -0.1241
     58  CA        -6.1030   19.7560   -0.2090 C.3   108  HIS108      0.1621
     59  C         -6.1480   19.5030   -1.7210 C.2   108  HIS108      0.2264
     60  O         -6.6160   20.3410   -2.4870 O.2   108  HIS108     -0.2867
     61  CB        -4.7730   20.3900    0.2290 C.3   108  HIS108      0.0745
     62  CG        -4.6490   21.8530   -0.0620 C.ar  108  HIS108      0.0817
     63  ND1       -4.0350   22.7340    0.8120 N.ar  108  HIS108     -0.2268
     64  CD2       -4.9880   22.5830   -1.1510 C.ar  108  HIS108      0.1154
     65  CE1       -4.0400   23.9460    0.2860 C.ar  108  HIS108      0.1986
     66  NE2       -4.6100   23.8830   -0.9040 N.ar  108  HIS108     -0.2212
     67  N          7.0510   20.7910   -1.9730 N.3   120  PHE120     -0.1241
     68  CA         6.8720   20.8960   -3.4190 C.3   120  PHE120      0.1605
     69  C          7.9440   20.1360   -4.1690 C.2   120  PHE120      0.2264
     70  O          8.7880   20.7400   -4.8250 O.2   120  PHE120     -0.2867
     71  CB         6.8460   22.3670   -3.8480 C.3   120  PHE120      0.0534
     72  CG         6.0890   23.2440   -2.9000 C.ar  120  PHE120     -0.0203
     73  CD1        4.7110   23.1530   -2.8020 C.ar  120  PHE120     -0.0042
     74  CD2        6.7640   24.1430   -2.0860 C.ar  120  PHE120     -0.0042
     75  CE1        4.0140   23.9520   -1.9090 C.ar  120  PHE120     -0.0003
     76  CE2        6.0780   24.9520   -1.1950 C.ar  120  PHE120     -0.0003
     77  CZ         4.7010   24.8590   -1.1060 C.ar  120  PHE120     -0.0000
     78  N          9.5560   18.3670   -7.0510 N.3   122  ARG122     -0.1245
     79  CA         9.3890   18.5060   -8.4900 C.3   122  ARG122      0.1563
     80  C         10.6430   18.0520   -9.2150 C.2   122  ARG122      0.2260
     81  O         11.7370   18.0900   -8.6530 O.2   122  ARG122     -0.2867
     82  CB         9.1010   19.9670   -8.8530 C.3   122  ARG122      0.0307
     83  CG         7.7530   20.4660   -8.3640 C.3   122  ARG122      0.0489
     84  CD         7.6630   21.9820   -8.3540 C.3   122  ARG122      0.2205
     85  NE         6.3720   22.4210   -7.8250 N.pl3 122  ARG122     -0.0865
     86  CZ         5.9870   23.6900   -7.7360 C.cat 122  ARG122      0.5346
     87  NH1        6.7930   24.6610   -8.1370 N.pl3 122  ARG122      0.1354
     88  NH2        4.7930   23.9860   -7.2420 N.pl3 122  ARG122      0.1354
     89  N          0.5700   35.0800   -8.1400 N.3   213  PRO213     -0.2102
     90  CA         1.8890   35.4870   -8.6550 C.3   213  PRO213      0.1504
     91  C          2.0970   35.1960  -10.1500 C.2   213  PRO213      0.2575
     92  O          2.9380   35.8320  -10.7970 O.2   213  PRO213     -0.2718
     93  CB         2.8740   34.6550   -7.8200 C.3   213  PRO213      0.0282
     94  CG         2.0980   34.1500   -6.6430 C.3   213  PRO213      0.0208
     95  CD         0.6670   34.0660   -7.0760 C.3   213  PRO213      0.0893
     96  N          1.3360   34.2480  -10.6860 N.am  214  TRP214     -0.1977
     97  CA         1.5030   33.8010  -12.0700 C.3   214  TRP214      0.1640
     98  C          0.5560   34.4920  -13.0480 C.2   214  TRP214      0.2290
     99  O          0.5460   34.1810  -14.2420 O.2   214  TRP214     -0.2864
    100  CB         1.3300   32.2790  -12.1580 C.3   214  TRP214      0.0576
    101  CG        -0.0250   31.8010  -11.7110 C.ar  214  TRP214      0.0006
    102  CD1       -1.1430   31.6680  -12.4880 C.ar  214  TRP214      0.0946
    103  CD2       -0.4050   31.3830  -10.3910 C.ar  214  TRP214      0.0152
    104  NE1       -2.1970   31.2070  -11.7300 N.ar  214  TRP214     -0.2442
    105  CE2       -1.7680   31.0180  -10.4400 C.ar  214  TRP214      0.0810
    106  CE3        0.2710   31.2900   -9.1690 C.ar  214  TRP214      0.0012
    107  CZ2       -2.4650   30.5580   -9.3170 C.ar  214  TRP214      0.0191
    108  CZ3       -0.4230   30.8310   -8.0500 C.ar  214  TRP214      0.0001
    109  CH2       -1.7730   30.4750   -8.1340 C.ar  214  TRP214      0.0015
    110  N         -2.0040   26.3440  -12.9880 N.3   292  LEU292     -0.1231
    111  CA        -0.6230   26.5260  -13.4110 C.3   292  LEU292      0.1693
    112  C          0.2460   25.2840  -13.2160 C.2   292  LEU292      0.2591
    113  O          1.1430   25.0110  -14.0180 O.2   292  LEU292     -0.2718
    114  CB        -0.0210   27.7030  -12.6520 C.3   292  LEU292      0.0284
    115  CG         1.4490   28.0140  -12.9030 C.3   292  LEU292      0.0019
    116  CD1        1.6940   28.4110  -14.3510 C.3   292  LEU292      0.0001
    117  CD2        1.8670   29.1060  -11.9580 C.3   292  LEU292      0.0001
    118  N         -0.0250   24.5280  -12.1560 N.am  293  LEU293     -0.1980
    119  CA         0.8580   23.4280  -11.7670 C.3   293  LEU293      0.1596
    120  C          0.8450   22.2360  -12.7150 C.2   293  LEU293      0.2287
    121  O         -0.1780   21.9110  -13.3330 O.2   293  LEU293     -0.2864
    122  CB         0.5820   22.9730  -10.3340 C.3   293  LEU293      0.0297
    123  CG         0.8320   24.0600   -9.2900 C.3   293  LEU293      0.0022
    124  CD1        0.6160   23.5120   -7.8920 C.3   293  LEU293      0.0001
    125  CD2        2.2340   24.6450   -9.4340 C.3   293  LEU293      0.0001
@<TRIPOS>BOND
     1   116   115    1
     2    99    98    2
     3   113   112    2
     4   111   112    1
     5   111   110    1
     6   111   114    1
     7   121   120    2
     8   112   118   am
     9    98    97    1
    10   115   114    1
    11   115   117    1
    12   120   119    1
    13   102   104   ar
    14   102   101   ar
    15   100    97    1
    16   100   101    1
    17   118   119    1
    18    97    96    1
    19   119   122    1
    20   104   105   ar
    21   101   103   ar
    22    92    91    2
    23    96    91   am
    24   105   103   ar
    25   105   107   ar
    26   103   106   ar
    27   122   123    1
    28    91    90    1
    29   125   123    1
    30   107   109   ar
    31   123   124    1
    32    80    81    2
    33    80    79    1
    34   106   108   ar
    35    82    79    1
    36    82    83    1
    37    90    89    1
    38    90    93    1
    39    79    78    1
    40    83    84    1
    41    84    85    1
    42    89    95    1
    43    87    86    1
    44   109   108   ar
    45    85    86    2
    46    93    94    1
    47    86    88    1
    48    95    94    1
    49    14    13   ar
    50    14    12   ar
    51    70    69    2
    52    13    11   ar
    53    69    68    1
    54    12    10   ar
    55    71    68    1
    56    71    72    1
    57    23    22    1
    58    68    67    1
    59    11     8   ar
    60    22    21    1
    61    72    73   ar
    62    72    74   ar
    63    73    75   ar
    64    10     8   ar
    65    10     9   ar
    66    56    54   ar
    67    56    55   ar
    68    21    20    1
    69    60    59    2
    70     8     6   ar
    71    54    52   ar
    72    74    76   ar
    73    75    77   ar
    74    59    58    1
    75     9     7   ar
    76    55    53   ar
    77    20    19    1
    78    76    77   ar
    79    64    66   ar
    80    64    62   ar
    81    52    51   ar
    82    52    50   ar
    83     6     7   ar
    84     6     5    1
    85    66    65   ar
    86    19    16    1
    87    51    49   ar
    88    53    50   ar
    89    58    61    1
    90    58    57    1
    91    50    48   ar
    92    62    61    1
    93    62    63   ar
    94     5     2    1
    95    65    63   ar
    96     4     3    2
    97    30    28    1
    98    16    15    1
    99    16    17    1
   100    49    48   ar
   101    42    41    1
   102     3    15   am
   103     3     2    1
   104    48    47    1
   105    29    28    1
   106    39    41   ar
   107    39    37   ar
   108     2     1    1
   109    18    17    2
   110    45    44    1
   111    45    46    2
   112    41    40   ar
   113    28    25    1
   114    37    36   ar
   115    44    47    1
   116    44    43    1
   117    27    26    2
   118    40    38   ar
   119    26    25    1
   120    26    31   am
   121    25    24    1
   122    36    38   ar
   123    36    35    1
   124    32    31    1
   125    32    35    1
   126    32    33    1
   127    34    33    2
