@<TRIPOS>MOLECULE
tmp/5lixA01.pdb
 190 190 0 0 0
SMALL
GASTEIGER

@<TRIPOS>ATOM
      1  N          9.4030   11.1190   -2.4530 N.3    20  TRP20      -0.1227
      2  CA        10.2170   10.3100   -1.5430 C.3    20  TRP20       0.1737
      3  C          9.5000    9.0270   -1.1400 C.2    20  TRP20       0.2595
      4  O          8.3680    9.0650   -0.6600 O.2    20  TRP20      -0.2718
      5  CB        10.6020   11.0890   -0.2960 C.3    20  TRP20       0.0564
      6  CG        11.3250   10.2650    0.7040 C.ar   20  TRP20       0.0003
      7  CD1       12.2520    9.2900    0.4550 C.ar   20  TRP20       0.0946
      8  CD2       11.1590   10.3070    2.1240 C.ar   20  TRP20       0.0152
      9  NE1       12.6780    8.7320    1.6330 N.ar   20  TRP20      -0.2442
     10  CE2       12.0270    9.3420    2.6730 C.ar   20  TRP20       0.0810
     11  CE3       10.3690   11.0770    2.9870 C.ar   20  TRP20       0.0012
     12  CZ2       12.1250    9.1230    4.0450 C.ar   20  TRP20       0.0191
     13  CZ3       10.4680   10.8600    4.3440 C.ar   20  TRP20       0.0001
     14  CH2       11.3390    9.8920    4.8610 C.ar   20  TRP20       0.0015
     15  N         10.1760    7.8980   -1.3490 N.am   21  LYS21      -0.1980
     16  CA         9.6540    6.5650   -1.0420 C.3    21  LYS21       0.1596
     17  C          8.4970    6.1310   -1.9350 C.2    21  LYS21       0.2287
     18  O          7.8300    5.1230   -1.6650 O.2    21  LYS21      -0.2864
     19  CB         9.2420    6.4500    0.4370 C.3    21  LYS21       0.0298
     20  CG        10.3900    6.5670    1.4210 C.3    21  LYS21       0.0038
     21  CD        10.0700    5.8230    2.7100 C.3    21  LYS21       0.0206
     22  CE         9.6290    4.3960    2.4120 C.3    21  LYS21       0.1093
     23  NZ        10.2040    3.3950    3.3480 N.3    21  LYS21      -0.1314
     24  N         18.5980   10.9430   -4.5840 N.3    44  VAL44      -0.1231
     25  CA        18.6570    9.9420   -3.5360 C.3    44  VAL44       0.1692
     26  C         17.4090    9.0570   -3.4380 C.2    44  VAL44       0.2592
     27  O         17.4620    7.9900   -2.8210 O.2    44  VAL44      -0.2718
     28  CB        18.9800   10.5800   -2.1620 C.3    44  VAL44       0.0266
     29  CG1       17.7390   11.2260   -1.5570 C.3    44  VAL44       0.0020
     30  CG2       19.5710    9.5470   -1.2260 C.3    44  VAL44       0.0020
     31  N         16.2900    9.4880   -4.0260 N.am   45  TYR45      -0.1976
     32  CA        15.0710    8.6730   -4.0020 C.3    45  TYR45       0.1639
     33  C         15.1690    7.4820   -4.9630 C.2    45  TYR45       0.2290
     34  O         14.4170    6.5100   -4.8350 O.2    45  TYR45      -0.2864
     35  CB        13.8190    9.5090   -4.3220 C.3    45  TYR45       0.0560
     36  CG        13.6400   10.7490   -3.4590 C.ar   45  TYR45      -0.0198
     37  CD1       14.2490   10.8550   -2.2170 C.ar   45  TYR45      -0.0009
     38  CD2       12.8390   11.7990   -3.8890 C.ar   45  TYR45      -0.0009
     39  CE1       14.0850   11.9890   -1.4310 C.ar   45  TYR45       0.0417
     40  CE2       12.6540   12.9180   -3.1110 C.ar   45  TYR45       0.0417
     41  CZ        13.2780   13.0160   -1.8860 C.ar   45  TYR45       0.1957
     42  OH        13.1060   14.1590   -1.1260 O.3    45  TYR45      -0.2866
     43  N         17.5500   17.5920   -6.3910 N.3    72  LYS72      -0.1245
     44  CA        18.3780   17.9080   -5.2450 C.3    72  LYS72       0.1561
     45  C         19.7180   17.1970   -5.3500 C.2    72  LYS72       0.2260
     46  O         19.8050   16.0330   -5.7660 O.2    72  LYS72      -0.2867
     47  CB        17.6830   17.4790   -3.9340 C.3    72  LYS72       0.0271
     48  CG        16.1630   17.7640   -3.8500 C.3    72  LYS72       0.0035
     49  CD        15.6520   17.6460   -2.4040 C.3    72  LYS72       0.0206
     50  CE        14.1190   17.7680   -2.2980 C.3    72  LYS72       0.1093
     51  NZ        13.3690   16.6030   -2.8300 N.3    72  LYS72      -0.1314
     52  N         22.7170   15.4470   -3.6400 N.3    74  TRP74      -0.1241
     53  CA        23.0480   14.7000   -2.4360 C.3    74  TRP74       0.1605
     54  C         24.4750   15.0480   -1.9510 C.2    74  TRP74       0.2264
     55  O         25.3660   15.2800   -2.7670 O.2    74  TRP74      -0.2867
     56  CB        22.8910   13.1930   -2.7240 C.3    74  TRP74       0.0550
     57  CG        22.9990   12.3640   -1.4940 C.ar   74  TRP74       0.0003
     58  CD1       23.9950   11.4840   -1.1850 C.ar   74  TRP74       0.0946
     59  CD2       22.0940   12.3560   -0.3810 C.ar   74  TRP74       0.0152
     60  NE1       23.7660   10.9260    0.0510 N.ar   74  TRP74      -0.2442
     61  CE2       22.6130   11.4490    0.5700 C.ar   74  TRP74       0.0810
     62  CE3       20.9060   13.0330   -0.0920 C.ar   74  TRP74       0.0012
     63  CZ2       21.9750   11.1920    1.7880 C.ar   74  TRP74       0.0191
     64  CZ3       20.2790   12.7880    1.1270 C.ar   74  TRP74       0.0001
     65  CH2       20.8150   11.8690    2.0480 C.ar   74  TRP74       0.0015
     66  N         20.5620   19.2550   -0.9710 N.3   103  HIS103     -0.1226
     67  CA        19.6370   18.4020   -0.2050 C.3   103  HIS103      0.1752
     68  C         19.8650   18.5210    1.3130 C.2   103  HIS103      0.2596
     69  O         18.9110   18.5870    2.0930 O.2   103  HIS103     -0.2718
     70  CB        19.7450   16.9470   -0.6940 C.3   103  HIS103      0.0759
     71  CG        18.5270   16.1050   -0.4400 C.ar  103  HIS103      0.0818
     72  ND1       18.0940   15.1460   -1.3330 N.ar  103  HIS103     -0.2268
     73  CD2       17.6770   16.0500    0.6120 C.ar  103  HIS103      0.1154
     74  CE1       17.0210   14.5460   -0.8470 C.ar  103  HIS103      0.1986
     75  NE2       16.7470   15.0790    0.3340 N.ar  103  HIS103     -0.2212
     76  N         21.1270   18.6120    1.7200 N.am  104  TRP104     -0.1976
     77  CA        21.4990   18.6490    3.1420 C.3   104  TRP104      0.1640
     78  C         22.8000   19.4560    3.2400 C.2   104  TRP104      0.2290
     79  O         23.6450   19.3290    2.3720 O.2   104  TRP104     -0.2864
     80  CB        21.7240   17.2160    3.6340 C.3   104  TRP104      0.0576
     81  CG        22.0720   17.0910    5.0660 C.ar  104  TRP104      0.0006
     82  CD1       23.3080   16.8680    5.5920 C.ar  104  TRP104      0.0946
     83  CD2       21.1740   17.2020    6.1750 C.ar  104  TRP104      0.0152
     84  NE1       23.2360   16.8190    6.9640 N.ar  104  TRP104     -0.2442
     85  CE2       21.9350   17.0120    7.3470 C.ar  104  TRP104      0.0810
     86  CE3       19.7940   17.4130    6.2870 C.ar  104  TRP104      0.0012
     87  CZ2       21.3680   17.0550    8.6220 C.ar  104  TRP104      0.0191
     88  CZ3       19.2280   17.4590    7.5470 C.ar  104  TRP104      0.0001
     89  CH2       20.0140   17.2820    8.7020 C.ar  104  TRP104      0.0015
     90  N         29.2730   14.7720    3.0000 N.3   108  PHE108     -0.1241
     91  CA        29.5990   13.4020    3.4070 C.3   108  PHE108      0.1605
     92  C         30.7530   12.9000    2.5530 C.2   108  PHE108      0.2264
     93  O         31.1280   13.5550    1.5810 O.2   108  PHE108     -0.2867
     94  CB        28.3920   12.4720    3.2340 C.3   108  PHE108      0.0534
     95  CG        27.2180   12.8240    4.1090 C.ar  108  PHE108     -0.0203
     96  CD1       27.3980   13.5340    5.2860 C.ar  108  PHE108     -0.0042
     97  CD2       25.9340   12.4470    3.7520 C.ar  108  PHE108     -0.0042
     98  CE1       26.3250   13.8710    6.0880 C.ar  108  PHE108     -0.0003
     99  CE2       24.8550   12.7750    4.5580 C.ar  108  PHE108     -0.0003
    100  CZ        25.0550   13.4820    5.7270 C.ar  108  PHE108     -0.0000
    101  N         25.2550    6.5850    1.6400 N.3   115  PHE115     -0.1241
    102  CA        25.0940    6.6860    3.0890 C.3   115  PHE115      0.1605
    103  C         26.3180    6.1610    3.8180 C.2   115  PHE115      0.2264
    104  O         26.2350    5.1550    4.5190 O.2   115  PHE115     -0.2867
    105  CB        23.8440    5.9350    3.5560 C.3   115  PHE115      0.0534
    106  CG        22.6230    6.2560    2.7460 C.ar  115  PHE115     -0.0203
    107  CD1       21.8640    7.3830    3.0340 C.ar  115  PHE115     -0.0042
    108  CD2       22.2470    5.4410    1.6800 C.ar  115  PHE115     -0.0042
    109  CE1       20.7370    7.6870    2.2760 C.ar  115  PHE115     -0.0003
    110  CE2       21.1310    5.7410    0.9160 C.ar  115  PHE115     -0.0003
    111  CZ        20.3800    6.8640    1.2080 C.ar  115  PHE115     -0.0000
    112  N         16.9340   21.8890    4.3360 N.3   152  ASN152     -0.1240
    113  CA        17.3900   21.5940    5.6870 C.3   152  ASN152      0.1653
    114  C         18.4830   22.5410    6.1650 C.2   152  ASN152      0.2266
    115  O         19.3850   22.1310    6.8720 O.2   152  ASN152     -0.2867
    116  CB        17.8620   20.1350    5.8010 C.3   152  ASN152      0.1155
    117  CG        16.7850   19.1440    5.4060 C.2   152  ASN152      0.2627
    118  OD1       16.9070   18.4320    4.3930 O.2   152  ASN152     -0.2716
    119  ND2       15.7070   19.1010    6.1920 N.am  152  ASN152     -0.0877
    120  N          8.1380   20.3740    3.6290 N.3   199  TYR199     -0.1241
    121  CA         8.0610   18.9390    3.4090 C.3   199  TYR199      0.1605
    122  C          7.4750   18.2120    4.6210 C.2   199  TYR199      0.2264
    123  O          7.3560   18.7990    5.6960 O.2   199  TYR199     -0.2867
    124  CB         9.3910   18.3510    2.9230 C.3   199  TYR199      0.0534
    125  CG        10.5240   18.1680    3.9150 C.ar  199  TYR199     -0.0201
    126  CD1       10.4310   17.2480    4.9540 C.ar  199  TYR199     -0.0009
    127  CD2       11.7280   18.8550    3.7540 C.ar  199  TYR199     -0.0009
    128  CE1       11.4850   17.0450    5.8380 C.ar  199  TYR199      0.0417
    129  CE2       12.7850   18.6650    4.6320 C.ar  199  TYR199      0.0417
    130  CZ        12.6640   17.7500    5.6650 C.ar  199  TYR199      0.1957
    131  OH        13.7220   17.5170    6.5240 O.3   199  TYR199     -0.2866
    132  N         11.4110   13.9850   10.6020 N.3   284  CYS284     -0.1221
    133  CA        12.5140   13.5760    9.7560 C.3   284  CYS284      0.1808
    134  C         13.8150   14.0600   10.3600 C.2   284  CYS284      0.2601
    135  O         14.3670   15.0890    9.9680 O.2   284  CYS284     -0.2717
    136  CB        12.3270   14.0860    8.3290 C.3   284  CYS284      0.0970
    137  SG        10.7310   13.6090    7.6200 S.3   284  CYS284     -0.0800
    138  N         14.2680   13.3120   11.3590 N.am  285  ASN285     -0.1960
    139  CA        15.5600   13.5370   11.9690 C.3   285  ASN285      0.1819
    140  C         16.3680   12.2480   11.8200 C.2   285  ASN285      0.2621
    141  O         16.5930   11.5170   12.7820 O.2   285  ASN285     -0.2715
    142  CB        15.4030   13.9350   13.4360 C.3   285  ASN285      0.1195
    143  CG        16.6580   14.5610   14.0050 C.2   285  ASN285      0.2630
    144  OD1       17.7620   14.3250   13.5090 O.2   285  ASN285     -0.2716
    145  ND2       16.4970   15.3690   15.0500 N.am  285  ASN285     -0.0877
    146  N         16.8050   11.9670   10.5990 N.am  286  LEU286     -0.1963
    147  CA        17.5550   10.7480   10.3020 C.3   286  LEU286      0.1728
    148  C         18.9660   10.7500   10.9280 C.2   286  LEU286      0.2616
    149  O         19.8050    9.9040   10.5900 O.2   286  LEU286     -0.2715
    150  CB        17.6380   10.5830    8.7810 C.3   286  LEU286      0.0311
    151  CG        18.2110    9.2920    8.2010 C.3   286  LEU286      0.0022
    152  CD1       17.5110    8.9670    6.8930 C.3   286  LEU286      0.0001
    153  CD2       19.7040    9.4210    7.9820 C.3   286  LEU286      0.0001
    154  N         19.1660   11.6640   11.8840 N.am  287  LEU287     -0.1977
    155  CA        20.4700   12.1460   12.3880 C.3   287  LEU287      0.1596
    156  C         21.7480   11.3250   12.2340 C.2   287  LEU287      0.2287
    157  O         22.1290   10.9160   11.1340 O.2   287  LEU287     -0.2864
    158  CB        20.3660   12.6470   13.8440 C.3   287  LEU287      0.0297
    159  CG        19.9650   11.7670   15.0340 C.3   287  LEU287      0.0022
    160  CD1       21.1040   10.9170   15.5460 C.3   287  LEU287      0.0001
    161  CD2       19.4470   12.6590   16.1490 C.3   287  LEU287      0.0001
    162  N         24.5010   12.6620   12.3280 N.3   289  SER289     -0.1217
    163  CA        25.4750   13.5040   11.6380 C.3   289  SER289      0.1889
    164  C         25.7750   14.7590   12.4530 C.2   289  SER289      0.2288
    165  O         26.5460   15.6130   12.0240 O.2   289  SER289     -0.2866
    166  CB        24.9940   13.8670   10.2170 C.3   289  SER289      0.2089
    167  OG        23.8870   14.7630   10.2320 O.3   289  SER289     -0.2183
    168  N         25.7350   21.1980   11.1190 N.3   295  TYR295     -0.1241
    169  CA        24.5080   20.5110   11.5190 C.3   295  TYR295      0.1605
    170  C         23.4090   21.5320   11.7560 C.2   295  TYR295      0.2264
    171  O         23.5740   22.4550   12.5490 O.2   295  TYR295     -0.2867
    172  CB        24.7160   19.6630   12.7730 C.3   295  TYR295      0.0534
    173  CG        23.4940   18.8480   13.1290 C.ar  295  TYR295     -0.0201
    174  CD1       23.1760   17.7050   12.4070 C.ar  295  TYR295     -0.0009
    175  CD2       22.6530   19.2270   14.1690 C.ar  295  TYR295     -0.0009
    176  CE1       22.0590   16.9530   12.7080 C.ar  295  TYR295      0.0417
    177  CE2       21.5330   18.4800   14.4850 C.ar  295  TYR295      0.0417
    178  CZ        21.2400   17.3440   13.7460 C.ar  295  TYR295      0.1957
    179  OH        20.1330   16.5830   14.0340 O.3   295  TYR295     -0.2866
    180  N         20.1560   21.3180   12.8860 N.3   297  PHE297     -0.1241
    181  CA        19.0120   21.1850   13.7990 C.3   297  PHE297      0.1605
    182  C         19.3050   21.5310   15.2630 C.2   297  PHE297      0.2264
    183  O         18.4270   21.4250   16.1140 O.2   297  PHE297     -0.2867
    184  CB        18.3650   19.8030   13.6720 C.3   297  PHE297      0.0534
    185  CG        17.8340   19.5020   12.2850 C.ar  297  PHE297     -0.0203
    186  CD1       17.5300   20.5350   11.4080 C.ar  297  PHE297     -0.0042
    187  CD2       17.6390   18.1950   11.8690 C.ar  297  PHE297     -0.0042
    188  CE1       17.0560   20.2730   10.1460 C.ar  297  PHE297     -0.0003
    189  CE2       17.1540   17.9170   10.5980 C.ar  297  PHE297     -0.0003
    190  CZ        16.8590   18.9550    9.7350 C.ar  297  PHE297     -0.0000
@<TRIPOS>BOND
     1    43    44    1
     2    46    45    2
     3    45    44    1
     4    44    47    1
     5    33    34    2
     6    33    32    1
     7    24    25    1
     8    35    32    1
     9    35    36    1
    10    31    32    1
    11    31    26   am
    12    47    48    1
    13    38    36   ar
    14    38    40   ar
    15    48    49    1
    16    52    53    1
    17    25    26    1
    18    25    28    1
    19    36    37   ar
    20    26    27    2
    21    40    41   ar
    22    51    50    1
    23    55    54    2
    24    56    53    1
    25    56    57    1
    26     1     2    1
    27    53    54    1
    28    49    50    1
    29    37    39   ar
    30    28    29    1
    31    28    30    1
    32    17    18    2
    33    17    16    1
    34    41    39   ar
    35    41    42    1
    36     2     3    1
    37     2     5    1
    38    57    58   ar
    39    57    59   ar
    40    15     3   am
    41    15    16    1
    42    72    74   ar
    43    72    71   ar
    44    58    60   ar
    45     3     4    2
    46    16    19    1
    47    66    67    1
    48    74    75   ar
    49    70    71    1
    50    70    67    1
    51    71    73   ar
    52    59    62   ar
    53    59    61   ar
    54     5     6    1
    55    67    68    1
    56    62    64   ar
    57    60    61   ar
    58    75    73   ar
    59    19    20    1
    60     7     6   ar
    61     7     9   ar
    62    61    63   ar
    63     6     8   ar
    64   110   111   ar
    65   110   108   ar
    66    64    65   ar
    67   111   109   ar
    68    68    76   am
    69    68    69    2
    70    20    21    1
    71    93    92    2
    72     9    10   ar
    73   101   102    1
    74   108   106   ar
    75    76    77    1
    76    63    65   ar
    77     8    10   ar
    78     8    11   ar
    79   109   107   ar
    80    79    78    2
    81    22    21    1
    82    22    23    1
    83    92    91    1
    84    10    12   ar
    85   106   107   ar
    86   106   105    1
    87   124   121    1
    88   124   125    1
    89    11    13   ar
    90    90    91    1
    91   102   105    1
    92   102   103    1
    93    77    78    1
    94    77    80    1
    95    94    91    1
    96    94    95    1
    97   121   120    1
    98   121   122    1
    99    80    81    1
   100    97    95   ar
   101    97    99   ar
   102   127   125   ar
   103   127   129   ar
   104   103   104    2
   105   125   126   ar
   106    12    14   ar
   107    95    96   ar
   108   112   113    1
   109    13    14   ar
   110   118   117    2
   111    99   100   ar
   112   122   123    2
   113   129   130   ar
   114   126   128   ar
   115    81    82   ar
   116    81    83   ar
   117    96    98   ar
   118   117   116    1
   119   117   119   am
   120    82    84   ar
   121   130   128   ar
   122   130   131    1
   123   113   116    1
   124   113   114    1
   125   100    98   ar
   126   114   115    2
   127    83    86   ar
   128    83    85   ar
   129    86    88   ar
   130   152   151    1
   131    84    85   ar
   132    85    87   ar
   133    88    89   ar
   134   137   136    1
   135   153   151    1
   136   151   150    1
   137   136   133    1
   138    87    89   ar
   139   150   147    1
   140   190   188   ar
   141   190   189   ar
   142   133   134    1
   143   133   132    1
   144   135   134    2
   145   188   186   ar
   146   166   167    1
   147   166   163    1
   148   147   146    1
   149   147   148    1
   150   134   138   am
   151   149   148    2
   152   189   187   ar
   153   146   140   am
   154   148   154   am
   155   168   169    1
   156   157   156    2
   157   138   139    1
   158   186   185   ar
   159   169   170    1
   160   169   172    1
   161   163   162    1
   162   163   164    1
   163   170   171    2
   164   140   139    1
   165   140   141    2
   166   187   185   ar
   167   154   155    1
   168   139   142    1
   169   165   164    2
   170   156   155    1
   171   185   184    1
   172   155   158    1
   173   174   176   ar
   174   174   173   ar
   175   176   178   ar
   176   172   173    1
   177   180   181    1
   178   173   175   ar
   179   142   143    1
   180   144   143    2
   181   184   181    1
   182   178   179    1
   183   178   177   ar
   184   181   182    1
   185   158   159    1
   186   143   145   am
   187   175   177   ar
   188   159   160    1
   189   159   161    1
   190   182   183    2
