@<TRIPOS>MOLECULE
tmp/5lj0A00.pdb
 172 167 0 0 0
SMALL
GASTEIGER

@<TRIPOS>ATOM
      1  N        -25.4240   44.8030    3.2220 N.3    30  VAL30      -0.1231
      2  CA       -25.2880   45.0600    4.6580 C.3    30  VAL30       0.1692
      3  C        -23.8230   45.1330    5.1170 C.2    30  VAL30       0.2592
      4  O        -23.5170   45.7980    6.1070 O.2    30  VAL30      -0.2718
      5  CB       -26.0660   44.0130    5.5010 C.3    30  VAL30       0.0266
      6  CG1      -25.4850   42.6160    5.3320 C.3    30  VAL30       0.0020
      7  CG2      -26.1050   44.4070    6.9710 C.3    30  VAL30       0.0020
      8  N        -22.9270   44.4620    4.3960 N.am   31  PHE31      -0.1976
      9  CA       -21.5030   44.4450    4.7380 C.3    31  PHE31       0.1639
     10  C        -20.6560   45.4630    3.9640 C.2    31  PHE31       0.2290
     11  O        -19.4430   45.4900    4.1390 O.2    31  PHE31      -0.2864
     12  CB       -20.9240   43.0420    4.5010 C.3    31  PHE31       0.0560
     13  CG       -21.7290   41.9350    5.1330 C.ar   31  PHE31      -0.0200
     14  CD1      -21.9300   41.9010    6.5040 C.ar   31  PHE31      -0.0042
     15  CD2      -22.2770   40.9240    4.3560 C.ar   31  PHE31      -0.0042
     16  CE1      -22.6730   40.8890    7.0890 C.ar   31  PHE31      -0.0003
     17  CE2      -23.0210   39.9070    4.9350 C.ar   31  PHE31      -0.0003
     18  CZ       -23.2190   39.8880    6.3020 C.ar   31  PHE31      -0.0000
     19  N        -20.6270   48.8920    3.9910 N.3    33  LYS33      -0.1231
     20  CA       -20.2190   50.0960    4.7220 C.3    33  LYS33       0.1678
     21  C        -20.2270   49.8310    6.2240 C.2    33  LYS33       0.2434
     22  O        -20.8570   48.8800    6.6790 O.2    33  LYS33      -0.2733
     23  CB       -21.1880   51.2510    4.4310 C.3    33  LYS33       0.0284
     24  CG       -21.3430   51.6300    2.9670 C.3    33  LYS33       0.0035
     25  CD       -20.0290   52.0940    2.3710 C.3    33  LYS33       0.0206
     26  CE       -20.2230   52.9220    1.1100 C.3    33  LYS33       0.1093
     27  NZ       -18.9130   53.3340    0.5300 N.3    33  LYS33      -0.1314
     28  N        -19.5490   50.6890    7.0080 N.am   34  PRO34      -0.2718
     29  CA       -19.6870   50.5760    8.4620 C.3    34  PRO34       0.1535
     30  C        -21.1500   50.7110    8.8780 C.2    34  PRO34       0.2598
     31  O        -21.9250   51.3700    8.1880 O.2    34  PRO34      -0.2715
     32  CB       -18.8620   51.7570    8.9920 C.3    34  PRO34       0.0310
     33  CG       -17.9100   52.0910    7.8970 C.3    34  PRO34       0.0237
     34  CD       -18.6320   51.7770    6.6210 C.3    34  PRO34       0.0939
     35  N        -21.5310   50.0750    9.9800 N.am   35  VAL35      -0.1964
     36  CA       -22.9140   50.1560   10.4500 C.3    35  VAL35       0.1727
     37  C        -23.3270   51.5990   10.7290 C.2    35  VAL35       0.2616
     38  O        -22.4950   52.4390   11.0700 O.2    35  VAL35      -0.2715
     39  CB       -23.1700   49.3180   11.7260 C.3    35  VAL35       0.0290
     40  CG1      -22.9910   47.8390   11.4360 C.3    35  VAL35       0.0023
     41  CG2      -22.2810   49.7570   12.8850 C.3    35  VAL35       0.0023
     42  N        -24.6140   51.8700   10.5480 N.am   36  ASP36      -0.1971
     43  CA       -25.2300   53.1140   10.9830 C.3    36  ASP36       0.1709
     44  C        -25.4590   52.9970   12.4900 C.2    36  ASP36       0.2293
     45  O        -26.2570   52.1650   12.9260 O.2    36  ASP36      -0.2864
     46  CB       -26.5580   53.3180   10.2430 C.3    36  ASP36       0.1436
     47  CG       -27.2130   54.6620   10.5430 C.2    36  ASP36       0.3671
     48  OD1      -26.7430   55.3910   11.4400 O.co2  36  ASP36      -0.2456
     49  OD2      -28.2160   54.9830    9.8740 O.co2  36  ASP36      -0.2456
     50  N        -29.0010   52.9630   13.6790 N.3    39  GLU39      -0.1231
     51  CA       -29.6960   51.6870   13.4960 C.3    39  GLU39       0.1699
     52  C        -29.2950   50.6590   14.5530 C.2    39  GLU39       0.2592
     53  O        -30.1310   49.8800   15.0050 O.2    39  GLU39      -0.2718
     54  CB       -29.4240   51.1170   12.1000 C.3    39  GLU39       0.0402
     55  CG       -30.0510   51.9090   10.9620 C.3    39  GLU39       0.1161
     56  CD       -31.4810   51.4910   10.6640 C.2    39  GLU39       0.3649
     57  OE1      -32.2520   51.2440   11.6160 O.co2  39  GLU39      -0.2457
     58  OE2      -31.8360   51.4120    9.4690 O.co2  39  GLU39      -0.2457
     59  N        -28.0190   50.6510   14.9340 N.am   40  VAL40      -0.1980
     60  CA       -27.5030   49.6950   15.9210 C.3    40  VAL40       0.1595
     61  C        -26.5950   50.4030   16.9350 C.2    40  VAL40       0.2287
     62  O        -25.3730   50.2830   16.8760 O.2    40  VAL40      -0.2864
     63  CB       -26.7630   48.5100   15.2460 C.3    40  VAL40       0.0276
     64  CG1      -27.7600   47.5720   14.5770 C.3    40  VAL40       0.0022
     65  CG2      -25.7380   48.9930   14.2280 C.3    40  VAL40       0.0022
     66  N        -25.7180   49.9080   20.0050 N.3    42  ASP42      -0.1225
     67  CA       -24.8460   49.0870   20.8560 C.3    42  ASP42       0.1805
     68  C        -23.7470   48.3270   20.0930 C.2    42  ASP42       0.2597
     69  O        -22.9670   47.5960   20.7050 O.2    42  ASP42      -0.2718
     70  CB       -25.6800   48.0970   21.6810 C.3    42  ASP42       0.1424
     71  CG       -26.2230   46.9410   20.8500 C.2    42  ASP42       0.3668
     72  OD1      -26.3940   47.1040   19.6280 O.co2  42  ASP42      -0.2456
     73  OD2      -26.4920   45.8700   21.4310 O.co2  42  ASP42      -0.2456
     74  N        -23.6800   48.4940   18.7730 N.am   43  TYR43      -0.1976
     75  CA       -22.7140   47.7460   17.9620 C.3    43  TYR43       0.1639
     76  C        -21.2650   48.0180   18.3800 C.2    43  TYR43       0.2290
     77  O        -20.4610   47.0870   18.4920 O.2    43  TYR43      -0.2864
     78  CB       -22.8980   48.0560   16.4750 C.3    43  TYR43       0.0560
     79  CG       -22.2220   47.0480   15.5760 C.ar   43  TYR43      -0.0198
     80  CD1      -22.8960   45.9040   15.1550 C.ar   43  TYR43      -0.0009
     81  CD2      -20.9050   47.2280   15.1610 C.ar   43  TYR43      -0.0009
     82  CE1      -22.2790   44.9720   14.3390 C.ar   43  TYR43       0.0417
     83  CE2      -20.2810   46.3030   14.3430 C.ar   43  TYR43       0.0417
     84  CZ       -20.9730   45.1800   13.9340 C.ar   43  TYR43       0.1957
     85  OH       -20.3540   44.2570   13.1300 O.3    43  TYR43      -0.2866
     86  N        -20.7520   39.1750   12.3260 N.3    82  ALA82      -0.1245
     87  CA       -22.1760   38.9980   12.0550 C.3    82  ALA82       0.1562
     88  C        -22.7730   37.8360   12.8530 C.2    82  ALA82       0.2260
     89  O        -23.8900   37.9390   13.3580 O.2    82  ALA82      -0.2867
     90  CB       -22.4110   38.8000   10.5630 C.3    82  ALA82       0.0290
     91  N        -22.8740   39.2230   16.5780 N.3    85  TYR85      -0.1227
     92  CA       -23.8410   40.2890   16.8420 C.3    85  TYR85       0.1736
     93  C        -25.2960   39.8770   16.5900 C.2    85  TYR85       0.2595
     94  O        -26.2070   40.4580   17.1810 O.2    85  TYR85      -0.2718
     95  CB       -23.5090   41.5570   16.0400 C.3    85  TYR85       0.0548
     96  CG       -24.4000   42.7210   16.4130 C.ar   85  TYR85      -0.0200
     97  CD1      -24.2340   43.3870   17.6250 C.ar   85  TYR85      -0.0009
     98  CD2      -25.4380   43.1270   15.5800 C.ar   85  TYR85      -0.0009
     99  CE1      -25.0620   44.4400   17.9840 C.ar   85  TYR85       0.0417
    100  CE2      -26.2700   44.1780   15.9330 C.ar   85  TYR85       0.0417
    101  CZ       -26.0770   44.8310   17.1370 C.ar   85  TYR85       0.1957
    102  OH       -26.9060   45.8740   17.4920 O.3    85  TYR85      -0.2866
    103  N        -25.5120   38.8800   15.7320 N.am   86  ASN86      -0.1961
    104  CA       -26.8630   38.4300   15.3650 C.3    86  ASN86       0.1804
    105  C        -27.0520   36.9280   15.6230 C.2    86  ASN86       0.2463
    106  O        -27.1740   36.1450   14.6840 O.2    86  ASN86      -0.2730
    107  CB       -27.1380   38.7240   13.8820 C.3    86  ASN86       0.1195
    108  CG       -26.6790   40.1080   13.4570 C.2    86  ASN86       0.2630
    109  OD1      -27.4220   41.0840   13.5610 O.2    86  ASN86      -0.2716
    110  ND2      -25.4550   40.1930   12.9540 N.am   86  ASN86      -0.0877
    111  N        -27.1020   36.5190   16.9020 N.am   87  PRO87      -0.2716
    112  CA       -27.1030   35.0920   17.2240 C.3    87  PRO87       0.1536
    113  C        -28.4760   34.4060   17.2400 C.2    87  PRO87       0.2598
    114  O        -28.5380   33.1740   17.2380 O.2    87  PRO87      -0.2715
    115  CB       -26.5140   35.0760   18.6360 C.3    87  PRO87       0.0310
    116  CG       -27.0150   36.3450   19.2450 C.3    87  PRO87       0.0237
    117  CD       -27.1000   37.3510   18.1180 C.3    87  PRO87       0.0939
    118  N        -29.5600   35.1760   17.2610 N.am   88  ASP88      -0.1972
    119  CA       -30.8720   34.6160   17.6130 C.3    88  ASP88       0.1709
    120  C        -31.5110   33.8400   16.4700 C.2    88  ASP88       0.2293
    121  O        -31.0580   33.9100   15.3240 O.2    88  ASP88      -0.2864
    122  CB       -31.8180   35.7160   18.1120 C.3    88  ASP88       0.1436
    123  CG       -31.4270   36.2500   19.4810 C.2    88  ASP88       0.3671
    124  OD1      -30.9530   35.4610   20.3280 O.co2  88  ASP88      -0.2456
    125  OD2      -31.6060   37.4630   19.7180 O.co2  88  ASP88      -0.2456
    126  N        -34.4680   34.3740   15.2740 N.3    90  ASP90      -0.1239
    127  CA       -35.3990   35.2120   14.5050 C.3    90  ASP90       0.1674
    128  C        -34.9400   35.3200   13.0470 C.2    90  ASP90       0.2266
    129  O        -33.7350   35.2850   12.7770 O.2    90  ASP90      -0.2867
    130  CB       -35.5890   36.6070   15.1320 C.3    90  ASP90       0.1410
    131  CG       -34.3440   37.4760   15.0550 C.2    90  ASP90       0.3668
    132  OD1      -34.1140   38.1260   14.0090 O.co2  90  ASP90      -0.2456
    133  OD2      -33.6080   37.5380   16.0590 O.co2  90  ASP90      -0.2456
    134  N        -34.6540   37.6790   10.8320 N.3    92  GLY92      -0.1210
    135  CA       -33.6980   38.7430   10.5360 C.3    92  GLY92       0.1956
    136  C        -32.2720   38.3020   10.8140 C.2    92  GLY92       0.2611
    137  O        -31.3950   38.4190    9.9590 O.2    92  GLY92      -0.2717
    138  N        -32.0530   37.7720   12.0140 N.am   93  ASP93      -0.1973
    139  CA       -30.7420   37.2540   12.3990 C.3    93  ASP93       0.1709
    140  C        -30.2990   36.1070   11.4980 C.2    93  ASP93       0.2293
    141  O        -29.1470   36.0580   11.0780 O.2    93  ASP93      -0.2864
    142  CB       -30.7480   36.7840   13.8570 C.3    93  ASP93       0.1436
    143  CG       -30.5950   37.9270   14.8430 C.2    93  ASP93       0.3671
    144  OD1      -30.8390   39.0950   14.4710 O.co2  93  ASP93      -0.2456
    145  OD2      -30.2160   37.6490   15.9990 O.co2  93  ASP93      -0.2456
    146  N        -31.1890   35.5120    8.4230 N.3    95  LEU95      -0.1231
    147  CA       -30.8840   36.0640    7.0990 C.3    95  LEU95       0.1693
    148  C        -29.4670   36.6440    7.0430 C.2    95  LEU95       0.2591
    149  O        -28.6870   36.2930    6.1570 O.2    95  LEU95      -0.2718
    150  CB       -31.9100   37.1350    6.7000 C.3    95  LEU95       0.0284
    151  CG       -31.6690   37.8450    5.3580 C.3    95  LEU95       0.0019
    152  CD1      -31.6520   36.8540    4.2040 C.3    95  LEU95       0.0001
    153  CD2      -32.7210   38.9190    5.1250 C.3    95  LEU95       0.0001
    154  N        -29.1280   37.5170    7.9900 N.am   96  ILE96      -0.1980
    155  CA       -27.7940   38.1280    7.9830 C.3    96  ILE96       0.1595
    156  C        -26.6860   37.0960    8.2430 C.2    96  ILE96       0.2287
    157  O        -25.6330   37.1640    7.6170 O.2    96  ILE96      -0.2864
    158  CB       -27.6770   39.3610    8.9120 C.3    96  ILE96       0.0276
    159  CG1      -26.3550   40.0940    8.6330 C.3    96  ILE96       0.0022
    160  CG2      -27.8310   38.9770   10.3820 C.3    96  ILE96       0.0022
    161  CD1      -26.2350   41.4510    9.2920 C.3    96  ILE96       0.0001
    162  N        -26.1310   35.3540    4.9900 N.3    99  ARG99      -0.1245
    163  CA       -25.4150   36.2500    4.0880 C.3    99  ARG99       0.1563
    164  C        -23.9400   36.3550    4.4610 C.2    99  ARG99       0.2260
    165  O        -23.0740   36.3760    3.5890 O.2    99  ARG99      -0.2867
    166  CB       -26.0530   37.6340    4.1100 C.3    99  ARG99       0.0307
    167  CG       -27.3900   37.6720    3.4050 C.3    99  ARG99       0.0489
    168  CD       -28.1200   38.9680    3.6750 C.3    99  ARG99       0.2205
    169  NE       -29.2320   39.1340    2.7510 N.pl3  99  ARG99      -0.0865
    170  CZ       -30.0700   40.1640    2.7470 C.cat  99  ARG99       0.5346
    171  NH1      -29.9360   41.1520    3.6250 N.pl3  99  ARG99       0.1354
    172  NH2      -31.0520   40.2000    1.8540 N.pl3  99  ARG99       0.1354
@<TRIPOS>BOND
     1    27    26    1
     2    26    25    1
     3   172   170    1
     4    25    24    1
     5   170   169    2
     6   170   171    1
     7   169   168    1
     8    24    23    1
     9     1     2    1
    10   167   168    1
    11   167   166    1
    12   165   164    2
    13    10    11    2
    14    10     9    1
    15    19    20    1
    16   163   166    1
    17   163   164    1
    18   163   162    1
    19   152   151    1
    20    15    17   ar
    21    15    13   ar
    22     8     9    1
    23     8     3   am
    24    23    20    1
    25    12     9    1
    26    12    13    1
    27     2     3    1
    28     2     5    1
    29    20    21    1
    30    17    18   ar
    31     3     4    2
    32   153   151    1
    33    13    14   ar
    34     6     5    1
    35   151   150    1
    36     5     7    1
    37   149   148    2
    38    21    22    2
    39    21    28   am
    40    18    16   ar
    41    14    16   ar
    42    34    28    1
    43    34    33    1
    44   150   147    1
    45    28    29    1
    46   148   147    1
    47   148   154   am
    48   147   146    1
    49   157   156    2
    50    33    32    1
    51   155   154    1
    52   155   156    1
    53   155   158    1
    54    31    30    2
    55    29    30    1
    56    29    32    1
    57   159   158    1
    58   159   161    1
    59    30    35   am
    60   158   160    1
    61    58    56   ar
    62    49    47   ar
    63   137   136    2
    64    35    36    1
    65    46    47    1
    66    46    43    1
    67    36    37    1
    68    36    39    1
    69   135   136    1
    70   135   134    1
    71    47    48   ar
    72    42    37   am
    73    42    43    1
    74    90    87    1
    75    56    55    1
    76    56    57   ar
    77    37    38    2
    78   136   138   am
    79    55    54    1
    80    43    44    1
    81   141   140    2
    82    40    39    1
    83   140   139    1
    84    39    41    1
    85   138   139    1
    86    87    86    1
    87    87    88    1
    88    54    51    1
    89   139   142    1
    90    44    45    2
    91   129   128    2
    92    88    89    2
    93   110   108   am
    94   128   127    1
    95    85    84    1
    96   108   109    2
    97   108   107    1
    98    51    50    1
    99    51    52    1
   100   142   143    1
   101   107   104    1
   102    84    82   ar
   103    84    83   ar
   104   132   131   ar
   105    65    63    1
   106    82    80   ar
   107    83    81   ar
   108   144   143   ar
   109   127   130    1
   110   127   126    1
   111    52    59   am
   112    52    53    2
   113    64    63    1
   114   106   105    2
   115   143   145   ar
   116    59    60    1
   117   131   130    1
   118   131   133   ar
   119    80    79   ar
   120    81    79   ar
   121    63    60    1
   122   121   120    2
   123   104   105    1
   124   104   103    1
   125    79    78    1
   126    98   100   ar
   127    98    96   ar
   128   105   111   am
   129   103    93   am
   130    60    61    1
   131   100   101   ar
   132    95    96    1
   133    95    92    1
   134    96    97   ar
   135   120   119    1
   136    78    75    1
   137    91    92    1
   138    93    92    1
   139    93    94    2
   140    62    61    2
   141   111   112    1
   142   111   117    1
   143   101   102    1
   144   101    99   ar
   145   112   113    1
   146   112   115    1
   147   114   113    2
   148   113   118   am
   149   118   119    1
   150   119   122    1
   151    97    99   ar
   152    75    76    1
   153    75    74    1
   154   122   123    1
   155   117   116    1
   156    76    77    2
   157   115   116    1
   158    74    68   am
   159   123   125   ar
   160   123   124   ar
   161    72    71   ar
   162    66    67    1
   163    68    69    2
   164    68    67    1
   165    71    73   ar
   166    71    70    1
   167    67    70    1
