@<TRIPOS>MOLECULE
tmp/5lj1A00.pdb
 174 173 0 0 0
SMALL
GASTEIGER

@<TRIPOS>ATOM
      1  N        -17.8770   -3.8330   13.7810 N.3    40  TRP40      -0.1228
      2  CA       -19.2900   -3.9140   14.1980 C.3    40  TRP40       0.1722
      3  C        -20.1820   -4.8880   13.3920 C.2    40  TRP40       0.2437
      4  O        -20.8860   -5.7070   14.0060 O.2    40  TRP40      -0.2733
      5  CB       -19.8960   -2.4930   14.3190 C.3    40  TRP40       0.0563
      6  CG       -21.3960   -2.4050   14.3330 C.ar   40  TRP40       0.0003
      7  CD1      -22.1770   -1.7580   13.4200 C.ar   40  TRP40       0.0946
      8  CD2      -22.2990   -2.9590   15.3130 C.ar   40  TRP40       0.0152
      9  NE1      -23.5100   -1.8810   13.7600 N.ar   40  TRP40      -0.2442
     10  CE2      -23.6140   -2.6100   14.9150 C.ar   40  TRP40       0.0810
     11  CE3      -22.1260   -3.7140   16.4820 C.ar   40  TRP40       0.0012
     12  CZ2      -24.7490   -2.9920   15.6430 C.ar   40  TRP40       0.0191
     13  CZ3      -23.2580   -4.0960   17.2070 C.ar   40  TRP40       0.0001
     14  CH2      -24.5510   -3.7330   16.7820 C.ar   40  TRP40       0.0015
     15  N        -20.1280   -4.8610   12.0400 N.am   41  PRO41      -0.2718
     16  CA       -20.9200   -5.8410   11.2680 C.3    41  PRO41       0.1535
     17  C        -20.5090   -7.3150   11.4250 C.2    41  PRO41       0.2598
     18  O        -21.2670   -8.1950   11.0010 O.2    41  PRO41      -0.2715
     19  CB       -20.7090   -5.4100    9.7990 C.3    41  PRO41       0.0310
     20  CG       -20.0760   -4.0690    9.8580 C.3    41  PRO41       0.0237
     21  CD       -19.3210   -4.0090   11.1520 C.3    41  PRO41       0.0939
     22  N        -19.3240   -7.5720   11.9980 N.am   42  PHE42      -0.1974
     23  CA       -18.7810   -8.9100   12.1340 C.3    42  PHE42       0.1639
     24  C        -18.8320   -9.4250   13.5750 C.2    42  PHE42       0.2290
     25  O        -18.2650  -10.4810   13.8580 O.2    42  PHE42      -0.2864
     26  CB       -17.3230   -8.9300   11.6380 C.3    42  PHE42       0.0560
     27  CG       -17.1590   -8.4210   10.2440 C.ar   42  PHE42      -0.0200
     28  CD1      -17.4230   -9.2400    9.1670 C.ar   42  PHE42      -0.0042
     29  CD2      -16.8060   -7.0920   10.0090 C.ar   42  PHE42      -0.0042
     30  CE1      -17.2840   -8.7570    7.8650 C.ar   42  PHE42      -0.0003
     31  CE2      -16.6830   -6.5970    8.7210 C.ar   42  PHE42      -0.0003
     32  CZ       -16.9200   -7.4200    7.6440 C.ar   42  PHE42      -0.0000
     33  N        -21.4920  -10.3740   15.3770 N.3    44  GLN44      -0.1231
     34  CA       -22.5760  -11.3260   15.6300 C.3    44  GLN44       0.1683
     35  C        -22.9760  -11.9200   14.2900 C.2    44  GLN44       0.2434
     36  O        -22.5800  -11.3780   13.2400 O.2    44  GLN44      -0.2733
     37  CB       -23.7800  -10.6310   16.2890 C.3    44  GLN44       0.0380
     38  CG       -24.3000   -9.4100   15.5530 C.3    44  GLN44       0.0905
     39  CD       -23.4430   -8.1770   15.7780 C.2    44  GLN44       0.2608
     40  OE1      -23.1290   -7.8340   16.9190 O.2    44  GLN44      -0.2717
     41  NE2      -23.0650   -7.5070   14.7040 N.am   44  GLN44      -0.0878
     42  N        -23.7300  -13.0540   14.2990 N.am   45  PRO45      -0.2718
     43  CA       -24.2120  -13.5740   13.0200 C.3    45  PRO45       0.1535
     44  C        -24.9540  -12.5110   12.2470 C.2    45  PRO45       0.2598
     45  O        -25.5760  -11.6280   12.8420 O.2    45  PRO45      -0.2715
     46  CB       -25.1750  -14.6910   13.4340 C.3    45  PRO45       0.0310
     47  CG       -24.6110  -15.1890   14.7060 C.3    45  PRO45       0.0237
     48  CD       -24.0860  -13.9600   15.4100 C.3    45  PRO45       0.0939
     49  N        -24.9030  -12.6050   10.9220 N.am   46  VAL46      -0.1964
     50  CA       -25.6370  -11.6920   10.0730 C.3    46  VAL46       0.1727
     51  C        -27.1230  -11.9460   10.3390 C.2    46  VAL46       0.2616
     52  O        -27.6150  -13.0580   10.1670 O.2    46  VAL46      -0.2715
     53  CB       -25.2640  -11.8960    8.5870 C.3    46  VAL46       0.0290
     54  CG1      -26.1950  -11.1530    7.6330 C.3    46  VAL46       0.0023
     55  CG2      -23.8390  -11.4580    8.3790 C.3    46  VAL46       0.0023
     56  N        -27.8060  -10.9090   10.8130 N.am   47  ASP47      -0.1971
     57  CA       -29.2420  -10.9710   11.0720 C.3    47  ASP47       0.1709
     58  C        -29.9090  -10.5590    9.7630 C.2    47  ASP47       0.2293
     59  O        -30.2160   -9.3850    9.5520 O.2    47  ASP47      -0.2864
     60  CB       -29.6020  -10.0280   12.2300 C.3    47  ASP47       0.1436
     61  CG       -31.0360  -10.1890   12.7080 C.2    47  ASP47       0.3671
     62  OD1      -31.9220  -10.5670   11.9020 O.co2  47  ASP47      -0.2456
     63  OD2      -31.2600   -9.9090   13.9020 O.co2  47  ASP47      -0.2456
     64  N        -31.7110   -6.9940    8.8480 N.3    51  LEU51      -0.1231
     65  CA       -31.0530   -6.2540    7.7650 C.3    51  LEU51       0.1693
     66  C        -31.8120   -6.2410    6.4360 C.2    51  LEU51       0.2592
     67  O        -31.4640   -5.4770    5.5410 O.2    51  LEU51      -0.2718
     68  CB       -29.6490   -6.8100    7.5230 C.3    51  LEU51       0.0284
     69  CG       -28.6950   -6.6600    8.7030 C.3    51  LEU51       0.0019
     70  CD1      -27.4780   -7.5580    8.5050 C.3    51  LEU51       0.0001
     71  CD2      -28.2910   -5.2010    8.8870 C.3    51  LEU51       0.0001
     72  N        -32.8400   -7.0740    6.3100 N.am   52  ASN52      -0.1960
     73  CA       -33.5560   -7.2460    5.0480 C.3    52  ASN52       0.1819
     74  C        -32.6030   -7.6870    3.9350 C.2    52  ASN52       0.2621
     75  O        -32.4280   -7.0030    2.9220 O.2    52  ASN52      -0.2715
     76  CB       -34.3260   -5.9710    4.6580 C.3    52  ASN52       0.1195
     77  CG       -35.3390   -6.2100    3.5410 C.2    52  ASN52       0.2630
     78  OD1      -35.7310   -7.3480    3.2630 O.2    52  ASN52      -0.2716
     79  ND2      -35.7750   -5.1280    2.8980 N.am   52  ASN52      -0.0877
     80  N        -31.9730   -8.8350    4.1660 N.am   53  LEU53      -0.1977
     81  CA       -31.1320   -9.5020    3.1830 C.3    53  LEU53       0.1596
     82  C        -31.5950  -10.9640    3.1170 C.2    53  LEU53       0.2287
     83  O        -30.9030  -11.8650    3.6040 O.2    53  LEU53      -0.2864
     84  CB       -29.6640   -9.4160    3.6070 C.3    53  LEU53       0.0297
     85  CG       -29.0720   -8.0130    3.8110 C.3    53  LEU53       0.0022
     86  CD1      -27.7560   -8.0920    4.5700 C.3    53  LEU53       0.0001
     87  CD2      -28.8780   -7.2920    2.4860 C.3    53  LEU53       0.0001
     88  N        -31.6750  -13.1440    0.9130 N.3    55  ASP55      -0.1225
     89  CA       -30.8500  -14.0300    0.0960 C.3    55  ASP55       0.1805
     90  C        -29.5530  -14.4950    0.7910 C.2    55  ASP55       0.2597
     91  O        -28.8520  -15.3520    0.2560 O.2    55  ASP55      -0.2718
     92  CB       -30.5130  -13.3430   -1.2260 C.3    55  ASP55       0.1424
     93  CG       -29.7190  -12.0530   -1.0510 C.2    55  ASP55       0.3668
     94  OD1      -29.7360  -11.4330    0.0390 O.co2  55  ASP55      -0.2456
     95  OD2      -29.0890  -11.6470   -2.0440 O.co2  55  ASP55      -0.2456
     96  N        -29.2560  -13.9510    1.9760 N.am   56  TYR56      -0.1976
     97  CA       -27.9570  -14.1820    2.6270 C.3    56  TYR56       0.1639
     98  C        -27.6950  -15.6590    2.8830 C.2    56  TYR56       0.2290
     99  O        -26.6540  -16.1970    2.5090 O.2    56  TYR56      -0.2864
    100  CB       -27.8120  -13.3750    3.9360 C.3    56  TYR56       0.0560
    101  CG       -26.4030  -13.4800    4.4850 C.ar   56  TYR56      -0.0198
    102  CD1      -25.3850  -12.6500    4.0220 C.ar   56  TYR56      -0.0009
    103  CD2      -26.0720  -14.4700    5.4050 C.ar   56  TYR56      -0.0009
    104  CE1      -24.0880  -12.7870    4.4850 C.ar   56  TYR56       0.0417
    105  CE2      -24.7800  -14.6040    5.8780 C.ar   56  TYR56       0.0417
    106  CZ       -23.7940  -13.7770    5.4090 C.ar   56  TYR56       0.1957
    107  OH       -22.5290  -13.9400    5.8870 O.3    56  TYR56      -0.2866
    108  N        -15.2540  -16.4340    7.8620 N.3    91  MET91      -0.1245
    109  CA       -15.9110  -15.1160    8.0110 C.3    91  MET91       0.1570
    110  C        -15.5530  -14.1290    6.8910 C.2    91  MET91       0.2261
    111  O        -16.4260  -13.4630    6.3230 O.2    91  MET91      -0.2867
    112  CB       -15.5550  -14.5150    9.3810 C.3    91  MET91       0.0387
    113  CG       -16.1410  -13.1390    9.6250 C.3    91  MET91       0.0595
    114  SD       -15.6860  -12.4140   11.2160 S.3    91  MET91      -0.1393
    115  CE       -13.9880  -11.9410   10.9260 C.3    91  MET91       0.0692
    116  N        -17.8770  -12.8890    3.4180 N.3    95  CYS95      -0.1235
    117  CA       -18.1030  -11.4950    3.0530 C.3    95  CYS95       0.1677
    118  C        -17.7710  -11.2520    1.5570 C.2    95  CYS95       0.2270
    119  O        -18.5040  -10.5600    0.8220 O.2    95  CYS95      -0.2867
    120  CB       -17.2800  -10.5990    3.9830 C.3    95  CYS95       0.0956
    121  SG       -17.5670   -8.8250    3.7830 S.3    95  CYS95      -0.0801
    122  N        -20.5040  -13.0960   -0.6730 N.3    98  TYR98      -0.1227
    123  CA       -21.8560  -12.5910   -0.6650 C.3    98  TYR98       0.1736
    124  C        -21.9760  -11.1800   -1.2770 C.2    98  TYR98       0.2595
    125  O        -22.8850  -10.9110   -2.0740 O.2    98  TYR98      -0.2718
    126  CB       -22.4100  -12.6060    0.7550 C.3    98  TYR98       0.0548
    127  CG       -23.7650  -11.9520    0.8090 C.ar   98  TYR98      -0.0200
    128  CD1      -24.8710  -12.5660    0.2250 C.ar   98  TYR98      -0.0009
    129  CD2      -23.9320  -10.6980    1.3790 C.ar   98  TYR98      -0.0009
    130  CE1      -26.1120  -11.9630    0.2410 C.ar   98  TYR98       0.0417
    131  CE2      -25.1810  -10.0890    1.4080 C.ar   98  TYR98       0.0417
    132  CZ       -26.2670  -10.7250    0.8340 C.ar   98  TYR98       0.1957
    133  OH       -27.5200  -10.1230    0.8400 O.3    98  TYR98      -0.2866
    134  N        -21.0740  -10.2790   -0.8850 N.am   99  ASN99      -0.1960
    135  CA       -21.1520   -8.8710   -1.2980 C.3    99  ASN99       0.1819
    136  C        -20.3970   -8.6040   -2.5960 C.2    99  ASN99       0.2621
    137  O        -19.4720   -9.3320   -2.9590 O.2    99  ASN99      -0.2715
    138  CB       -20.6450   -7.9600   -0.1650 C.3    99  ASN99       0.1195
    139  CG       -21.3030   -8.2820    1.1720 C.2    99  ASN99       0.2630
    140  OD1      -22.4080   -7.8120    1.4740 O.2    99  ASN99      -0.2716
    141  ND2      -20.6380   -9.1250    1.9690 N.am   99  ASN99      -0.0877
    142  N        -20.8090   -7.5580   -3.3120 N.am  100  LYS100     -0.1977
    143  CA       -20.1310   -7.1790   -4.5530 C.3   100  LYS100      0.1596
    144  C        -18.7120   -6.6790   -4.1820 C.2   100  LYS100      0.2287
    145  O        -18.5200   -6.0840   -3.1070 O.2   100  LYS100     -0.2864
    146  CB       -20.8960   -6.0830   -5.3190 C.3   100  LYS100      0.0298
    147  CG       -22.3870   -6.3090   -5.5370 C.3   100  LYS100      0.0038
    148  CD       -23.0340   -5.2420   -6.4430 C.3   100  LYS100      0.0206
    149  CE       -23.0430   -3.8230   -5.8460 C.3   100  LYS100      0.1093
    150  NZ       -23.6800   -3.6890   -4.4900 N.3   100  LYS100     -0.1314
    151  N        -18.2710   -3.1500   -2.6690 N.3   103  ASP103     -0.1225
    152  CA       -19.1150   -2.7640   -1.5340 C.3   103  ASP103      0.1805
    153  C        -18.2680   -2.2820   -0.3650 C.2   103  ASP103      0.2598
    154  O        -17.1600   -2.7970   -0.1370 O.2   103  ASP103     -0.2718
    155  CB       -19.9970   -3.9320   -1.0870 C.3   103  ASP103      0.1424
    156  CG       -21.1330   -4.2180   -2.0580 C.2   103  ASP103      0.3668
    157  OD1      -21.4050   -3.3890   -2.9610 O.co2 103  ASP103     -0.2456
    158  OD2      -21.7800   -5.2740   -1.9090 O.co2 103  ASP103     -0.2456
    159  N        -18.7800   -1.2730    0.3480 N.am  104  ASP104     -0.1960
    160  CA       -18.1120   -0.7350    1.5430 C.3   104  ASP104      0.1840
    161  C        -17.6850   -1.8770    2.4780 C.2   104  ASP104      0.2621
    162  O        -16.5500   -1.9060    2.9670 O.2   104  ASP104     -0.2715
    163  CB       -19.0210    0.2060    2.3640 C.3   104  ASP104      0.1450
    164  CG       -19.6760    1.3370    1.5500 C.2   104  ASP104      0.3671
    165  OD1      -19.5890    1.3720    0.2930 O.co2 104  ASP104     -0.2456
    166  OD2      -20.3200    2.1980    2.2150 O.co2 104  ASP104     -0.2456
    167  N        -18.6090   -2.7980    2.7290 N.am  105  ILE105     -0.1977
    168  CA       -18.3980   -3.9140    3.6830 C.3   105  ILE105      0.1596
    169  C        -17.2040   -4.7960    3.2560 C.2   105  ILE105      0.2287
    170  O        -16.4230   -5.2370    4.1050 O.2   105  ILE105     -0.2864
    171  CB       -19.7070   -4.7340    3.8850 C.3   105  ILE105      0.0276
    172  CG1      -19.5990   -5.7320    5.0660 C.3   105  ILE105      0.0022
    173  CG2      -20.1050   -5.4690    2.6090 C.3   105  ILE105      0.0022
    174  CD1      -19.6560   -5.0680    6.4290 C.3   105  ILE105      0.0001
@<TRIPOS>BOND
     1   148   149    1
     2   148   147    1
     3   149   150    1
     4   147   146    1
     5   146   143    1
     6   143   144    1
     7   143   142    1
     8   144   145    2
     9   142   136   am
    10   157   156   ar
    11   137   136    2
    12   151   152    1
    13   136   135    1
    14   125   124    2
    15   156   158   ar
    16   156   155    1
    17    95    93   ar
    18   152   155    1
    19   152   153    1
    20   135   134    1
    21   135   138    1
    22   124   134   am
    23   124   123    1
    24    92    93    1
    25    92    89    1
    26    93    94   ar
    27   122   123    1
    28   123   126    1
    29   153   154    2
    30   153   159   am
    31   138   139    1
    32    89    90    1
    33    89    88    1
    34   128   130   ar
    35   128   127   ar
    36   130   132   ar
    37    91    90    2
    38   165   164   ar
    39   159   160    1
    40   126   127    1
    41    90    96   am
    42   127   129   ar
    43   119   118    2
    44   132   133    1
    45   132   131   ar
    46   139   140    2
    47   139   141   am
    48   129   131   ar
    49   160   163    1
    50   160   161    1
    51   164   166   ar
    52   164   163    1
    53   118   117    1
    54    96    97    1
    55   161   167   am
    56   161   162    2
    57    87    85    1
    58    99    98    2
    59   173   171    1
    60    97    98    1
    61    97   100    1
    62   167   168    1
    63    79    77   am
    64    75    74    2
    65   117   116    1
    66   117   120    1
    67    82    81    1
    68    82    83    2
    69    81    84    1
    70    81    80    1
    71   169   168    1
    72   169   170    2
    73    78    77    2
    74    77    76    1
    75    84    85    1
    76   168   171    1
    77   121   120    1
    78    85    86    1
    79   171   172    1
    80    74    80   am
    81    74    73    1
    82   100   101    1
    83   102   104   ar
    84   102   101   ar
    85   104   106   ar
    86   101   103   ar
    87    76    73    1
    88    73    72    1
    89   172   174    1
    90   103   105   ar
    91   106   105   ar
    92   106   107    1
    93    67    66    2
    94    72    66   am
    95   111   110    2
    96    66    65    1
    97   110   109    1
    98    68    65    1
    99    68    69    1
   100    54    53    1
   101    32    30   ar
   102    32    31   ar
   103    65    64    1
   104   108   109    1
   105    30    28   ar
   106   109   112    1
   107    55    53    1
   108    70    69    1
   109    53    50    1
   110    69    71    1
   111    31    29   ar
   112    28    27   ar
   113   112   113    1
   114    59    58    2
   115   113   114    1
   116    58    57    1
   117    19    20    1
   118    19    16    1
   119    20    21    1
   120    29    27   ar
   121    50    51    1
   122    50    49    1
   123    52    51    2
   124    27    26    1
   125    51    56   am
   126    56    57    1
   127    49    44   am
   128   115   114    1
   129    18    17    2
   130    57    60    1
   131    21    15    1
   132    16    17    1
   133    16    15    1
   134    17    22   am
   135    26    23    1
   136    62    61   ar
   137    22    23    1
   138    15     3   am
   139    23    24    1
   140    60    61    1
   141    44    45    2
   142    44    43    1
   143    61    63   ar
   144    43    46    1
   145    43    42    1
   146    36    35    2
   147     3     4    2
   148     3     2    1
   149     7     9   ar
   150     7     6   ar
   151    46    47    1
   152    24    25    2
   153     9    10   ar
   154     1     2    1
   155     2     5    1
   156    35    42   am
   157    35    34    1
   158    42    48    1
   159     5     6    1
   160     6     8   ar
   161    41    39   am
   162    47    48    1
   163    10     8   ar
   164    10    12   ar
   165     8    11   ar
   166    33    34    1
   167    38    39    1
   168    38    37    1
   169    34    37    1
   170    12    14   ar
   171    39    40    2
   172    11    13   ar
   173    14    13   ar
