@<TRIPOS>MOLECULE
tmp/5lj2A00.pdb
 150 149 0 0 0
SMALL
GASTEIGER

@<TRIPOS>ATOM
      1  N         33.4820   44.5890    0.9250 N.3    40  TRP40      -0.1228
      2  CA        33.7020   45.9720    1.3800 C.3    40  TRP40       0.1722
      3  C         32.4510   46.8470    1.6180 C.2    40  TRP40       0.2437
      4  O         32.4100   47.5600    2.6190 O.2    40  TRP40      -0.2733
      5  CB        34.7580   46.6980    0.5140 C.3    40  TRP40       0.0563
      6  CG        34.4900   46.7140   -0.9600 C.ar   40  TRP40       0.0003
      7  CD1       34.7730   45.7250   -1.8640 C.ar   40  TRP40       0.0946
      8  CD2       33.8910   47.7740   -1.7040 C.ar   40  TRP40       0.0152
      9  NE1       34.3760   46.1040   -3.1190 N.ar   40  TRP40      -0.2442
     10  CE2       33.8340   47.3600   -3.0510 C.ar   40  TRP40       0.0810
     11  CE3       33.3930   49.0350   -1.3640 C.ar   40  TRP40       0.0012
     12  CZ2       33.2970   48.1630   -4.0580 C.ar   40  TRP40       0.0191
     13  CZ3       32.8640   49.8310   -2.3650 C.ar   40  TRP40       0.0001
     14  CH2       32.8180   49.3930   -3.6950 C.ar   40  TRP40       0.0015
     15  N         31.4180   46.7770    0.7450 N.am   41  PRO41      -0.2718
     16  CA        30.2330   47.6030    1.0320 C.3    41  PRO41       0.1535
     17  C         29.4300   47.1530    2.2560 C.2    41  PRO41       0.2598
     18  O         28.5830   47.9080    2.7360 O.2    41  PRO41      -0.2715
     19  CB        29.3770   47.4480   -0.2350 C.3    41  PRO41       0.0310
     20  CG        30.2920   46.8890   -1.2740 C.3    41  PRO41       0.0237
     21  CD        31.2340   46.0170   -0.5020 C.3    41  PRO41       0.0939
     22  N         29.6980   45.9420    2.7430 N.am   42  PHE42      -0.1974
     23  CA        28.9440   45.3330    3.8340 C.3    42  PHE42       0.1639
     24  C         29.7190   45.2540    5.1500 C.2    42  PHE42       0.2290
     25  O         29.2170   44.7000    6.1260 O.2    42  PHE42      -0.2864
     26  CB        28.5050   43.9300    3.4100 C.3    42  PHE42       0.0560
     27  CG        27.7390   43.9080    2.1190 C.ar   42  PHE42      -0.0200
     28  CD1       26.3790   44.1940    2.1000 C.ar   42  PHE42      -0.0042
     29  CD2       28.3740   43.6190    0.9200 C.ar   42  PHE42      -0.0042
     30  CE1       25.6690   44.1850    0.9120 C.ar   42  PHE42      -0.0003
     31  CE2       27.6680   43.6100   -0.2720 C.ar   42  PHE42      -0.0003
     32  CZ        26.3150   43.8920   -0.2760 C.ar   42  PHE42      -0.0000
     33  N         30.5290   47.6660    7.2080 N.3    44  GLN44      -0.1231
     34  CA        30.1570   48.7190    8.1540 C.3    44  GLN44       0.1683
     35  C         28.7310   49.1590    7.8520 C.2    44  GLN44       0.2434
     36  O         28.2330   48.9000    6.7590 O.2    44  GLN44      -0.2733
     37  CB        31.1110   49.9160    8.0430 C.3    44  GLN44       0.0380
     38  CG        31.1620   50.5690    6.6650 C.3    44  GLN44       0.0905
     39  CD        31.8980   49.7220    5.6420 C.2    44  GLN44       0.2608
     40  OE1       33.0290   49.2980    5.8760 O.2    44  GLN44      -0.2717
     41  NE2       31.2590   49.4650    4.5050 N.am   44  GLN44      -0.0878
     42  N         28.0690   49.8330    8.8090 N.am   45  PRO45      -0.2718
     43  CA        26.7370   50.3690    8.5270 C.3    45  PRO45       0.1535
     44  C         26.7210   51.2830    7.3040 C.2    45  PRO45       0.2598
     45  O         27.7060   51.9690    7.0250 O.2    45  PRO45      -0.2715
     46  CB        26.4110   51.1700    9.7900 C.3    45  PRO45       0.0310
     47  CG        27.1770   50.4880   10.8690 C.3    45  PRO45       0.0237
     48  CD        28.4550   50.0460   10.2160 C.3    45  PRO45       0.0939
     49  N         25.6100   51.2790    6.5770 N.am   46  VAL46      -0.1964
     50  CA        25.4570   52.1520    5.4200 C.3    46  VAL46       0.1727
     51  C         25.5120   53.6150    5.8670 C.2    46  VAL46       0.2616
     52  O         24.7150   54.0450    6.6990 O.2    46  VAL46      -0.2715
     53  CB        24.1360   51.8670    4.6710 C.3    46  VAL46       0.0290
     54  CG1       23.8650   52.9300    3.6110 C.3    46  VAL46       0.0023
     55  CG2       24.1750   50.4820    4.0420 C.3    46  VAL46       0.0023
     56  N         26.4770   54.3570    5.3290 N.am   47  ASP47      -0.1971
     57  CA        26.5790   55.7920    5.5690 C.3    47  ASP47       0.1709
     58  C         25.7490   56.5020    4.5070 C.2    47  ASP47       0.2293
     59  O         26.2280   56.7890    3.4090 O.2    47  ASP47      -0.2864
     60  CB        28.0410   56.2480    5.5290 C.3    47  ASP47       0.1436
     61  CG        28.2250   57.6880    5.9930 C.2    47  ASP47       0.3671
     62  OD1       27.2680   58.4870    5.9080 O.co2  47  ASP47      -0.2456
     63  OD2       29.3430   58.0240    6.4380 O.co2  47  ASP47      -0.2456
     64  N         27.2350   58.4770    1.0910 N.3    51  LEU51      -0.1245
     65  CA        26.8180   57.8130   -0.1480 C.3    51  LEU51       0.1561
     66  C         25.6730   58.5280   -0.8750 C.2    51  LEU51       0.2260
     67  O         25.2850   58.1200   -1.9700 O.2    51  LEU51      -0.2867
     68  CB        26.4090   56.3690    0.1460 C.3    51  LEU51       0.0270
     69  CG        27.5310   55.4720    0.6690 C.3    51  LEU51       0.0019
     70  CD1       26.9520   54.2450    1.3540 C.3    51  LEU51       0.0001
     71  CD2       28.4760   55.0800   -0.4580 C.3    51  LEU51       0.0001
     72  N         22.3990   58.6770   -0.0820 N.3    53  LEU53      -0.1245
     73  CA        21.2320   57.8060   -0.1480 C.3    53  LEU53       0.1561
     74  C         20.2440   58.2820    0.9110 C.2    53  LEU53       0.2260
     75  O         19.9920   57.5810    1.8900 O.2    53  LEU53      -0.2867
     76  CB        21.6350   56.3510    0.1040 C.3    53  LEU53       0.0270
     77  CG        22.6950   55.7650   -0.8340 C.3    53  LEU53       0.0019
     78  CD1       23.0890   54.3710   -0.3730 C.3    53  LEU53       0.0001
     79  CD2       22.2060   55.7370   -2.2730 C.3    53  LEU53       0.0001
     80  N         17.5500   55.9090    2.3420 N.3    56  TYR56      -0.1241
     81  CA        17.9260   54.5490    2.7430 C.3    56  TYR56       0.1605
     82  C         17.2260   54.1200    4.0300 C.2    56  TYR56       0.2264
     83  O         16.6090   53.0580    4.0810 O.2    56  TYR56      -0.2867
     84  CB        19.4430   54.3940    2.9070 C.3    56  TYR56       0.0534
     85  CG        19.8290   52.9600    3.2040 C.ar   56  TYR56      -0.0201
     86  CD1       19.9520   52.0240    2.1770 C.ar   56  TYR56      -0.0009
     87  CD2       20.0220   52.5260    4.5130 C.ar   56  TYR56      -0.0009
     88  CE1       20.2800   50.7040    2.4440 C.ar   56  TYR56       0.0417
     89  CE2       20.3520   51.2100    4.7890 C.ar   56  TYR56       0.0417
     90  CZ        20.4780   50.3050    3.7530 C.ar   56  TYR56       0.1957
     91  OH        20.7960   48.9970    4.0340 O.3    56  TYR56      -0.2866
     92  N         19.5350   44.6290    1.2870 N.3    95  CYS95      -0.1235
     93  CA        20.1410   44.9390   -0.0000 C.3    95  CYS95       0.1677
     94  C         19.1530   44.7150   -1.1470 C.2    95  CYS95       0.2270
     95  O         19.0240   45.5550   -2.0410 O.2    95  CYS95      -0.2867
     96  CB        21.4000   44.0930   -0.2000 C.3    95  CYS95       0.0956
     97  SG        22.3720   44.5450   -1.6460 S.3    95  CYS95      -0.0801
     98  N         16.2190   47.4260   -0.9280 N.3    98  TYR98      -0.1227
     99  CA        16.5370   48.8130   -1.2570 C.3    98  TYR98       0.1736
    100  C         16.9140   49.0250   -2.7230 C.2    98  TYR98       0.2595
    101  O         16.4820   49.9990   -3.3390 O.2    98  TYR98      -0.2718
    102  CB        17.6550   49.3450   -0.3560 C.3    98  TYR98       0.0548
    103  CG        17.9690   50.7880   -0.6510 C.ar   98  TYR98      -0.0200
    104  CD1       17.0870   51.7950   -0.2780 C.ar   98  TYR98      -0.0009
    105  CD2       19.1230   51.1460   -1.3390 C.ar   98  TYR98      -0.0009
    106  CE1       17.3540   53.1200   -0.5660 C.ar   98  TYR98       0.0417
    107  CE2       19.3990   52.4690   -1.6310 C.ar   98  TYR98       0.0417
    108  CZ        18.5120   53.4500   -1.2410 C.ar   98  TYR98       0.1957
    109  OH        18.7830   54.7630   -1.5290 O.3    98  TYR98      -0.2866
    110  N         17.7180   48.1200   -3.2720 N.am   99  ASN99      -0.1960
    111  CA        18.3180   48.3020   -4.5960 C.3    99  ASN99       0.1819
    112  C         17.4900   47.6470   -5.7090 C.2    99  ASN99       0.2621
    113  O         16.4410   47.0570   -5.4380 O.2    99  ASN99      -0.2715
    114  CB        19.7510   47.7610   -4.5690 C.3    99  ASN99       0.1195
    115  CG        20.5850   48.3940   -3.4710 C.2    99  ASN99       0.2630
    116  OD1       21.0820   49.5120   -3.6160 O.2    99  ASN99      -0.2716
    117  ND2       20.7300   47.6890   -2.3570 N.am   99  ASN99      -0.0877
    118  N         17.9590   47.7750   -6.9500 N.am  100  LYS100     -0.1977
    119  CA        17.2930   47.1870   -8.1150 C.3   100  LYS100      0.1596
    120  C         17.9890   45.8950   -8.5410 C.2   100  LYS100      0.2287
    121  O         19.1840   45.7300   -8.2910 O.2   100  LYS100     -0.2864
    122  CB        17.3120   48.1720   -9.2860 C.3   100  LYS100      0.0298
    123  CG        16.6330   49.5000   -9.0000 C.3   100  LYS100      0.0038
    124  CD        16.6050   50.3900  -10.2330 C.3   100  LYS100      0.0206
    125  CE        18.0070   50.7490  -10.7000 C.3   100  LYS100      0.1093
    126  NZ        17.9920   51.7760  -11.7780 N.3   100  LYS100     -0.1314
    127  N         21.7860   45.5720  -10.1500 N.3   103  ASP103     -0.1225
    128  CA        22.7250   46.5140   -9.5340 C.3   103  ASP103      0.1805
    129  C         23.9640   45.7640   -9.0590 C.2   103  ASP103      0.2598
    130  O         23.8660   44.6290   -8.5870 O.2   103  ASP103     -0.2718
    131  CB        22.0970   47.2350   -8.3330 C.3   103  ASP103      0.1424
    132  CG        21.0990   48.3110   -8.7330 C.2   103  ASP103      0.3668
    133  OD1       20.9530   48.6090   -9.9360 O.co2 103  ASP103     -0.2456
    134  OD2       20.4510   48.8650   -7.8190 O.co2 103  ASP103     -0.2456
    135  N         25.1250   46.4020   -9.1840 N.am  104  ASP104     -0.1960
    136  CA        26.3810   45.8150   -8.7150 C.3   104  ASP104      0.1840
    137  C         26.2720   45.3340   -7.2760 C.2   104  ASP104      0.2621
    138  O         26.6920   44.2250   -6.9580 O.2   104  ASP104     -0.2715
    139  CB        27.5300   46.8250   -8.8180 C.3   104  ASP104      0.1450
    140  CG        28.0760   46.9560  -10.2260 C.2   104  ASP104      0.3671
    141  OD1       27.8800   46.0300  -11.0390 O.co2 104  ASP104     -0.2456
    142  OD2       28.7190   47.9870  -10.5110 O.co2 104  ASP104     -0.2456
    143  N         25.7000   46.1650   -6.4140 N.am  105  ILE105     -0.1977
    144  CA        25.5900   45.8330   -4.9980 C.3   105  ILE105      0.1596
    145  C         24.7500   44.5660   -4.7660 C.2   105  ILE105      0.2287
    146  O         25.0580   43.7780   -3.8720 O.2   105  ILE105     -0.2864
    147  CB        25.0540   47.0370   -4.1810 C.3   105  ILE105      0.0276
    148  CG1       25.2490   46.8150   -2.6780 C.3   105  ILE105      0.0022
    149  CG2       23.5920   47.3280   -4.4990 C.3   105  ILE105      0.0022
    150  CD1       26.6830   46.9510   -2.2170 C.3   105  ILE105      0.0001
@<TRIPOS>BOND
     1   126   125    1
     2   141   140   ar
     3   125   124    1
     4   142   140   ar
     5   124   123    1
     6   140   139    1
     7   127   128    1
     8   133   132   ar
     9   128   129    1
    10   128   131    1
    11   122   123    1
    12   122   119    1
    13   135   129   am
    14   135   136    1
    15   129   130    2
    16   139   136    1
    17   132   131    1
    18   132   134   ar
    19   136   137    1
    20   120   121    2
    21   120   119    1
    22   119   118    1
    23   137   138    2
    24   137   143   am
    25   118   112   am
    26   143   144    1
    27   112   113    2
    28   112   111    1
    29   144   145    1
    30   144   147    1
    31   145   146    2
    32   111   114    1
    33   111   110    1
    34   114   115    1
    35   149   147    1
    36   147   148    1
    37    12    14   ar
    38    12    10   ar
    39    14    13   ar
    40   116   115    2
    41   115   117   am
    42   101   100    2
    43   110   100   am
    44     9    10   ar
    45     9     7   ar
    46    10     8   ar
    47   100    99    1
    48   148   150    1
    49    13    11   ar
    50    79    77    1
    51    95    94    2
    52    67    66    2
    53     7     6   ar
    54     8    11   ar
    55     8     6   ar
    56    97    96    1
    57   107   105   ar
    58   107   108   ar
    59   109   108    1
    60   105   103   ar
    61    20    21    1
    62    20    19    1
    63    99    98    1
    64    99   102    1
    65   108   106   ar
    66    94    93    1
    67     6     5    1
    68    66    65    1
    69    77    78    1
    70    77    76    1
    71   103   102    1
    72   103   104   ar
    73   106   104   ar
    74    21    15    1
    75    71    69    1
    76    32    31   ar
    77    32    30   ar
    78    31    29   ar
    79    19    16    1
    80    96    93    1
    81    73    72    1
    82    73    76    1
    83    73    74    1
    84    65    68    1
    85    65    64    1
    86    93    92    1
    87    68    69    1
    88     5     2    1
    89    69    70    1
    90    15    16    1
    91    15     3   am
    92    74    75    2
    93    30    28   ar
    94    29    27   ar
    95     1     2    1
    96    16    17    1
    97     2     3    1
    98     3     4    2
    99    28    27   ar
   100    27    26    1
   101    86    88   ar
   102    86    85   ar
   103    17    18    2
   104    17    22   am
   105    80    81    1
   106    88    90   ar
   107    81    84    1
   108    81    82    1
   109    22    23    1
   110    84    85    1
   111    85    87   ar
   112    59    58    2
   113    26    23    1
   114    54    53    1
   115    90    91    1
   116    90    89   ar
   117    23    24    1
   118    82    83    2
   119    55    53    1
   120    41    39   am
   121    58    57    1
   122    87    89   ar
   123    53    50    1
   124    24    25    2
   125    56    57    1
   126    56    51   am
   127    50    51    1
   128    50    49    1
   129    60    57    1
   130    60    61    1
   131    39    40    2
   132    39    38    1
   133    51    52    2
   134    62    61   ar
   135    61    63   ar
   136    49    44   am
   137    38    37    1
   138    36    35    2
   139    45    44    2
   140    33    34    1
   141    44    43    1
   142    35    34    1
   143    35    42   am
   144    37    34    1
   145    43    42    1
   146    43    46    1
   147    42    48    1
   148    46    47    1
   149    48    47    1
