@<TRIPOS>MOLECULE
tmp/5lj7A00.pdb
 141 133 0 0 0
SMALL
GASTEIGER

@<TRIPOS>ATOM
      1  N          9.0460   56.5880   25.8970 N.3    13  PHE13      -0.1227
      2  CA        10.2060   55.7890   26.2740 C.3    13  PHE13       0.1736
      3  C         10.2450   54.5390   25.4090 C.2    13  PHE13       0.2596
      4  O          9.2390   53.8300   25.3040 O.2    13  PHE13      -0.2718
      5  CB        10.1590   55.3690   27.7510 C.3    13  PHE13       0.0547
      6  CG        10.4010   56.4880   28.7250 C.ar   13  PHE13      -0.0202
      7  CD1       11.6570   57.0500   28.8620 C.ar   13  PHE13      -0.0042
      8  CD2        9.3760   56.9510   29.5330 C.ar   13  PHE13      -0.0042
      9  CE1       11.8820   58.0700   29.7700 C.ar   13  PHE13      -0.0003
     10  CE2        9.5960   57.9680   30.4420 C.ar   13  PHE13      -0.0003
     11  CZ        10.8500   58.5280   30.5600 C.ar   13  PHE13      -0.0000
     12  N         11.3920   54.2660   24.7970 N.am   14  GLY14      -0.1957
     13  CA        11.6560   52.9670   24.2080 C.3    14  GLY14       0.1869
     14  C         11.6530   52.9830   22.6890 C.2    14  GLY14       0.2309
     15  O         11.7090   54.0290   22.0360 O.2    14  GLY14      -0.2863
     16  N          8.8890   48.1120   21.7810 N.3    18  ASN18      -0.1240
     17  CA         9.2600   48.4300   23.1580 C.3    18  ASN18       0.1653
     18  C          8.9920   49.8880   23.5330 C.2    18  ASN18       0.2266
     19  O          9.4920   50.3450   24.5670 O.2    18  ASN18      -0.2867
     20  CB        10.7390   48.1000   23.3970 C.3    18  ASN18       0.1155
     21  CG        11.0110   46.6090   23.4070 C.2    18  ASN18       0.2627
     22  OD1       10.1750   45.8150   23.8410 O.2    18  ASN18      -0.2716
     23  ND2       12.1870   46.2210   22.9280 N.am   18  ASN18      -0.0877
     24  N          6.6740   53.1710   24.6690 N.3    20  VAL20      -0.1245
     25  CA         5.5160   53.4520   25.5080 C.3    20  VAL20       0.1561
     26  C          5.2440   54.9490   25.4950 C.2    20  VAL20       0.2260
     27  O          6.1750   55.7630   25.4710 O.2    20  VAL20      -0.2867
     28  CB         5.7210   52.9600   26.9560 C.3    20  VAL20       0.0252
     29  CG1        4.3930   52.9550   27.7010 C.3    20  VAL20       0.0019
     30  CG2        6.3560   51.5790   26.9730 C.3    20  VAL20       0.0019
     31  N          4.0640   57.7750   27.7740 N.3    22  VAL22      -0.1245
     32  CA         4.0580   57.8960   29.2230 C.3    22  VAL22       0.1561
     33  C          3.3860   59.1780   29.7120 C.2    22  VAL22       0.2260
     34  O          2.7480   59.1590   30.7710 O.2    22  VAL22      -0.2867
     35  CB         5.4940   57.7870   29.7750 C.3    22  VAL22       0.0252
     36  CG1        6.2780   59.0710   29.5360 C.3    22  VAL22       0.0019
     37  CG2        5.4650   57.4200   31.2470 C.3    22  VAL22       0.0019
     38  N          0.3930   53.9490   40.7190 N.3    42  SER42      -0.1202
     39  CA         1.8110   53.6980   40.5040 C.3    42  SER42       0.2020
     40  C          2.1040   53.5780   39.0150 C.2    42  SER42       0.2619
     41  O          1.4150   52.8560   38.2880 O.2    42  SER42      -0.2717
     42  CB         2.2420   52.4250   41.2310 C.3    42  SER42       0.2103
     43  OG         3.5390   52.0210   40.8230 O.3    42  SER42      -0.2182
     44  N          3.1310   54.2910   38.5640 N.am   43  GLY43      -0.1942
     45  CA         3.5260   54.2410   37.1680 C.3    43  GLY43       0.2014
     46  C          2.5420   54.9020   36.2280 C.2    43  GLY43       0.2640
     47  O          2.2730   54.3680   35.1440 O.2    43  GLY43      -0.2714
     48  N          1.9900   56.0480   36.6180 N.am   44  SER44      -0.1935
     49  CA         1.1160   56.8270   35.7530 C.3    44  SER44       0.2055
     50  C          1.8170   58.0410   35.1610 C.2    44  SER44       0.2644
     51  O          1.1980   58.7870   34.3960 O.2    44  SER44      -0.2714
     52  CB        -0.1320   57.2750   36.5230 C.3    44  SER44       0.2130
     53  OG         0.2100   58.1200   37.6080 O.3    44  SER44      -0.2179
     54  N          3.0810   58.2550   35.4950 N.am   45  GLY45      -0.1939
     55  CA         3.8600   59.3380   34.9470 C.3    45  GLY45       0.2014
     56  C          4.1300   60.4980   35.8860 C.2    45  GLY45       0.2639
     57  O          4.4290   61.5980   35.4050 O.2    45  GLY45      -0.2714
     58  N          4.0420   60.2930   37.2000 N.am   46  LYS46      -0.1963
     59  CA         4.2490   61.3990   38.1290 C.3    46  LYS46       0.1728
     60  C          5.7250   61.7580   38.2300 C.2    46  LYS46       0.2617
     61  O          6.1020   62.9230   38.0580 O.2    46  LYS46      -0.2715
     62  CB         3.6840   61.0410   39.5020 C.3    46  LYS46       0.0311
     63  CG         2.1970   60.7160   39.4870 C.3    46  LYS46       0.0038
     64  CD         1.6540   60.4790   40.8900 C.3    46  LYS46       0.0206
     65  CE         2.3040   59.2760   41.5710 C.3    46  LYS46       0.1093
     66  NZ         2.0090   58.0060   40.8520 N.3    46  LYS46      -0.1314
     67  N          6.5780   60.7680   38.5090 N.am   47  SER47      -0.1936
     68  CA         8.0130   61.0290   38.5910 C.3    47  SER47       0.2055
     69  C          8.5480   61.5790   37.2760 C.2    47  SER47       0.2643
     70  O          9.4510   62.4240   37.2680 O.2    47  SER47      -0.2714
     71  CB         8.7590   59.7510   38.9740 C.3    47  SER47       0.2130
     72  OG         8.4520   59.3550   40.2990 O.3    47  SER47      -0.2179
     73  N          8.0050   61.1110   36.1510 N.am   48  THR48      -0.1950
     74  CA         8.4320   61.6150   34.8510 C.3    48  THR48       0.1897
     75  C          8.1910   63.1170   34.7470 C.2    48  THR48       0.2313
     76  O          9.1240   63.8970   34.5230 O.2    48  THR48      -0.2863
     77  CB         7.6940   60.8720   33.7370 C.3    48  THR48       0.1794
     78  OG1        7.7480   59.4610   33.9870 O.3    48  THR48      -0.2208
     79  CG2        8.3290   61.1680   32.3860 C.3    48  THR48       0.0378
     80  N         10.5250   65.1040   36.8900 N.3    51  ASN51      -0.1240
     81  CA        11.8880   65.2550   36.3860 C.3    51  ASN51       0.1653
     82  C         11.9600   66.3200   35.3000 C.2    51  ASN51       0.2266
     83  O         12.9170   67.1020   35.2520 O.2    51  ASN51      -0.2867
     84  CB        12.4030   63.9170   35.8560 C.3    51  ASN51       0.1155
     85  CG        12.5280   62.8650   36.9420 C.2    51  ASN51       0.2627
     86  OD1       12.9170   63.1620   38.0720 O.2    51  ASN51      -0.2716
     87  ND2       12.1980   61.6250   36.6030 N.am   51  ASN51      -0.0877
     88  N         12.7160   60.3260   44.9010 N.3    92  GLN92      -0.1231
     89  CA        11.9710   59.1800   45.4120 C.3    92  GLN92       0.1698
     90  C         12.9230   58.1480   46.0010 C.2    92  GLN92       0.2592
     91  O         12.8680   57.8340   47.1940 O.2    92  GLN92      -0.2718
     92  CB        11.1240   58.5630   44.2970 C.3    92  GLN92       0.0381
     93  CG        10.0020   57.6800   44.8080 C.3    92  GLN92       0.0905
     94  CD         9.2320   56.9960   43.6960 C.2    92  GLN92       0.2608
     95  OE1        9.3350   57.3740   42.5290 O.2    92  GLN92      -0.2717
     96  NE2        8.4520   55.9800   44.0550 N.am   92  GLN92      -0.0878
     97  N         13.8100   57.6120   45.1670 N.am   93  ARG93      -0.1980
     98  CA        14.9700   56.8750   45.6530 C.3    93  ARG93       0.1597
     99  C         16.0550   57.8910   45.9890 C.2    93  ARG93       0.2287
    100  O         16.4460   58.6940   45.1350 O.2    93  ARG93      -0.2864
    101  CB        15.4280   55.8630   44.6070 C.3    93  ARG93       0.0334
    102  CG        14.4790   54.6660   44.4720 C.3    93  ARG93       0.0492
    103  CD        14.2160   54.2870   43.0200 C.3    93  ARG93       0.2205
    104  NE        13.1880   55.1210   42.4000 N.pl3  93  ARG93      -0.0865
    105  CZ        12.9120   55.1320   41.0990 C.cat  93  ARG93       0.5346
    106  NH1       13.5950   54.3610   40.2610 N.pl3  93  ARG93       0.1354
    107  NH2       11.9550   55.9230   40.6280 N.pl3  93  ARG93       0.1354
    108  N          9.3110   64.3490   45.5490 N.3   168  ASP168     -0.1225
    109  CA         8.7270   63.1300   44.9960 C.3   168  ASP168      0.1805
    110  C          8.5880   62.1300   46.1400 C.2   168  ASP168      0.2597
    111  O          9.5630   61.4880   46.5410 O.2   168  ASP168     -0.2718
    112  CB         9.5890   62.5860   43.8610 C.3   168  ASP168      0.1424
    113  CG         8.8410   61.6080   42.9730 C.2   168  ASP168      0.3668
    114  OD1        7.6050   61.4940   43.1180 O.co2 168  ASP168     -0.2456
    115  OD2        9.4890   60.9630   42.1200 O.co2 168  ASP168     -0.2456
    116  N          7.3670   62.0060   46.6670 N.am  169  GLN169     -0.1979
    117  CA         7.0760   61.1520   47.8140 C.3   169  GLN169      0.1601
    118  C          8.0980   61.3930   48.9190 C.2   169  GLN169      0.2287
    119  O          8.9330   60.5210   49.1940 O.2   169  GLN169     -0.2864
    120  CB         7.0730   59.6780   47.4050 C.3   169  GLN169      0.0394
    121  CG         6.1340   59.3610   46.2540 C.3   169  GLN169      0.0908
    122  CD         5.8610   57.8740   46.1180 C.2   169  GLN169      0.2608
    123  OE1        6.3490   57.0670   46.9110 O.2   169  GLN169     -0.2717
    124  NE2        5.0750   57.5050   45.1100 N.am  169  GLN169     -0.0878
    125  N          4.6230   65.0110   45.1330 N.3   199  VAL199     -0.1245
    126  CA         4.0090   63.7480   44.7470 C.3   199  VAL199      0.1561
    127  C          3.8550   62.9030   46.0010 C.2   199  VAL199      0.2260
    128  O          4.7960   62.7780   46.7950 O.2   199  VAL199     -0.2867
    129  CB         4.8460   63.0160   43.6840 C.3   199  VAL199      0.0252
    130  CG1        4.1090   61.7820   43.1850 C.3   199  VAL199      0.0019
    131  CG2        5.1620   63.9460   42.5280 C.3   199  VAL199      0.0019
    132  N          1.1110   59.5820   47.9410 N.3   201  HIS201     -0.1241
    133  CA        -0.0760   58.7420   47.9810 C.3   201  HIS201      0.1621
    134  C         -0.8660   58.8950   49.2700 C.2   201  HIS201      0.2264
    135  O         -2.0670   58.6070   49.2780 O.2   201  HIS201     -0.2867
    136  CB         0.3120   57.2690   47.8030 C.3   201  HIS201      0.0745
    137  CG         0.8600   56.9540   46.4480 C.ar  201  HIS201      0.0817
    138  ND1        1.9730   56.1630   46.2610 N.ar  201  HIS201     -0.2268
    139  CD2        0.4450   57.3180   45.2120 C.ar  201  HIS201      0.1154
    140  CE1        2.2220   56.0570   44.9680 C.ar  201  HIS201      0.1986
    141  NE2        1.3080   56.7480   44.3100 N.ar  201  HIS201     -0.2212
@<TRIPOS>BOND
     1    16    17    1
     2    15    14    2
     3    14    13    1
     4    23    21   am
     5    17    20    1
     6    17    18    1
     7    20    21    1
     8    21    22    2
     9    18    19    2
    10    13    12    1
    11    24    25    1
    12    12     3   am
    13     4     3    2
    14     3     2    1
    15    27    26    2
    16    26    25    1
    17    25    28    1
    18     1     2    1
    19     2     5    1
    20    28    30    1
    21    28    29    1
    22     5     6    1
    23    31    32    1
    24     6     7   ar
    25     6     8   ar
    26     7     9   ar
    27    32    33    1
    28    32    35    1
    29     8    10   ar
    30    36    35    1
    31    33    34    2
    32     9    11   ar
    33    35    37    1
    34    10    11   ar
    35    79    77    1
    36    77    78    1
    37    77    74    1
    38    51    50    2
    39    76    75    2
    40    75    74    1
    41    74    73    1
    42    55    54    1
    43    55    56    1
    44    47    46    2
    45    50    54   am
    46    50    49    1
    47    83    82    2
    48    82    81    1
    49    57    56    2
    50    49    52    1
    51    49    48    1
    52    84    81    1
    53    84    85    1
    54    56    58   am
    55    73    69   am
    56    46    48   am
    57    46    45    1
    58    81    80    1
    59    52    53    1
    60    87    85   am
    61    85    86    2
    62    45    44    1
    63    58    59    1
    64    70    69    2
    65    69    68    1
    66    61    60    2
    67    59    60    1
    68    59    62    1
    69    60    67   am
    70    41    40    2
    71    67    68    1
    72    44    40   am
    73    68    71    1
    74    71    72    1
    75    40    39    1
    76    63    62    1
    77    63    64    1
    78   106   105    1
    79    39    38    1
    80    39    42    1
    81   107   105    1
    82    43    42    1
    83    66    65    1
    84    64    65    1
    85   105   104    2
    86   115   113   ar
    87   104   103    1
    88   131   129    1
    89    95    94    2
    90   113   114   ar
    91   113   112    1
    92   103   102    1
    93   130   129    1
    94   129   126    1
    95    94    96   am
    96    94    93    1
    97   112   109    1
    98    92    93    1
    99    92    89    1
   100   141   140   ar
   101   141   139   ar
   102   102   101    1
   103   101    98    1
   104   126   125    1
   105   126   127    1
   106    88    89    1
   107   140   138   ar
   108   109   108    1
   109   109   110    1
   110   124   122   am
   111   100    99    2
   112    97    98    1
   113    97    90   am
   114   139   137   ar
   115    89    90    1
   116    98    99    1
   117    90    91    2
   118   127   128    2
   119   122   121    1
   120   122   123    2
   121   110   111    2
   122   110   116   am
   123   121   120    1
   124   138   137   ar
   125   137   136    1
   126   116   117    1
   127   120   117    1
   128   136   133    1
   129   117   118    1
   130   132   133    1
   131   133   134    1
   132   118   119    2
   133   134   135    2
