@<TRIPOS>MOLECULE
tmp/5lj7A01.pdb
 81 76 0 0 0
SMALL
GASTEIGER

@<TRIPOS>ATOM
      1  N         23.3620   62.0110   63.8630 N.3   136  LYS136     -0.1245
      2  CA        24.0010   61.1130   62.9070 C.3   136  LYS136      0.1561
      3  C         24.7380   61.8670   61.8030 C.2   136  LYS136      0.2260
      4  O         24.9550   61.3120   60.7210 O.2   136  LYS136     -0.2867
      5  CB        22.9560   60.1840   62.2850 C.3   136  LYS136      0.0271
      6  CG        21.8830   59.6970   63.2450 C.3   136  LYS136      0.0035
      7  CD        22.4100   58.6410   64.2030 C.3   136  LYS136      0.0206
      8  CE        21.9920   57.2490   63.7590 C.3   136  LYS136      0.1093
      9  NZ        22.2110   56.2180   64.8110 N.3   136  LYS136     -0.1314
     10  N         27.3040   60.0190   59.9890 N.3   139  ASN139     -0.1240
     11  CA        26.9880   58.7030   59.4530 C.3   139  ASN139      0.1653
     12  C         26.9510   58.7280   57.9300 C.2   139  ASN139      0.2266
     13  O         26.4020   59.6480   57.3190 O.2   139  ASN139     -0.2867
     14  CB        25.6440   58.2190   59.9920 C.3   139  ASN139      0.1155
     15  CG        25.6880   57.9070   61.4710 C.2   139  ASN139      0.2627
     16  OD1       26.3260   58.6170   62.2470 O.2   139  ASN139     -0.2716
     17  ND2       25.0110   56.8350   61.8690 N.am  139  ASN139     -0.0877
     18  N         24.9660   54.2330   54.1440 N.3   142  ASN142     -0.1225
     19  CA        24.7610   52.8350   54.5150 C.3   142  ASN142      0.1785
     20  C         24.8310   52.6120   56.0200 C.2   142  ASN142      0.2597
     21  O         24.6210   51.4790   56.4690 O.2   142  ASN142     -0.2718
     22  CB        25.7800   51.9360   53.8080 C.3   142  ASN142      0.1169
     23  CG        27.2110   52.3380   54.0890 C.2   142  ASN142      0.2627
     24  OD1       27.5880   53.4980   53.9250 O.2   142  ASN142     -0.2716
     25  ND2       28.0190   51.3750   54.5160 N.am  142  ASN142     -0.0877
     26  N         25.1220   53.6520   56.8020 N.am  143  GLN143     -0.1965
     27  CA        25.0250   53.6030   58.2540 C.3   143  GLN143      0.1733
     28  C         23.7330   54.2360   58.7590 C.2   143  GLN143      0.2616
     29  O         23.6720   54.6770   59.9130 O.2   143  GLN143     -0.2715
     30  CB        26.2300   54.2980   58.8880 C.3   143  GLN143      0.0408
     31  CG        27.5710   53.7370   58.4550 C.3   143  GLN143      0.0908
     32  CD        28.7350   54.4830   59.0740 C.2   143  GLN143      0.2608
     33  OE1       29.0710   55.5920   58.6560 O.2   143  GLN143     -0.2717
     34  NE2       29.3560   53.8800   60.0810 N.am  143  GLN143     -0.0878
     35  N         22.7030   54.2930   57.9170 N.am  144  LEU144     -0.1963
     36  CA        21.4440   54.9330   58.2600 C.3   144  LEU144      0.1728
     37  C         20.2900   54.0660   57.7860 C.2   144  LEU144      0.2617
     38  O         20.4140   53.3090   56.8210 O.2   144  LEU144     -0.2715
     39  CB        21.3240   56.3240   57.6250 C.3   144  LEU144      0.0311
     40  CG        22.3910   57.3440   58.0150 C.3   144  LEU144      0.0022
     41  CD1       22.2270   58.6060   57.1900 C.3   144  LEU144      0.0001
     42  CD2       22.3080   57.6570   59.4970 C.3   144  LEU144      0.0001
     43  N         19.1620   54.1860   58.4780 N.am  145  SER145     -0.1936
     44  CA        17.9490   53.5220   58.0370 C.3   145  SER145      0.2055
     45  C         17.3910   54.2210   56.8020 C.2   145  SER145      0.2644
     46  O         17.7090   55.3780   56.5130 O.2   145  SER145     -0.2714
     47  CB        16.9070   53.5150   59.1550 C.3   145  SER145      0.2130
     48  OG        16.4400   54.8230   59.4330 O.3   145  SER145     -0.2179
     49  N         16.5510   53.4940   56.0650 N.am  146  GLY146     -0.1939
     50  CA        15.9030   54.0860   54.9040 C.3   146  GLY146      0.2014
     51  C         15.3070   55.4460   55.2050 C.2   146  GLY146      0.2639
     52  O         15.5880   56.4290   54.5170 O.2   146  GLY146     -0.2714
     53  N         14.4860   55.5250   56.2530 N.am  147  GLY147     -0.1939
     54  CA        13.8710   56.7960   56.6020 C.3   147  GLY147      0.2014
     55  C         14.8960   57.8860   56.8470 C.2   147  GLY147      0.2638
     56  O         14.7660   59.0050   56.3450 O.2   147  GLY147     -0.2714
     57  N         15.9330   57.5730   57.6250 N.am  148  GLN148     -0.1977
     58  CA        16.9820   58.5520   57.8850 C.3   148  GLN148      0.1601
     59  C         17.6170   59.0210   56.5830 C.2   148  GLN148      0.2287
     60  O         17.7880   60.2250   56.3610 O.2   148  GLN148     -0.2864
     61  CB        18.0220   57.9480   58.8270 C.3   148  GLN148      0.0394
     62  CG        17.4760   57.7320   60.2240 C.3   148  GLN148      0.0908
     63  CD        18.3670   56.8730   61.0980 C.2   148  GLN148      0.2608
     64  OE1       19.0310   55.9520   60.6230 O.2   148  GLN148     -0.2717
     65  NE2       18.3800   57.1760   62.3870 N.am  148  GLN148     -0.0878
     66  N         15.5090   61.5660   55.0330 N.3   151  ARG151     -0.1245
     67  CA        15.5820   62.8910   55.6390 C.3   151  ARG151      0.1563
     68  C         16.8990   63.5820   55.3080 C.2   151  ARG151      0.2260
     69  O         16.9470   64.8150   55.2420 O.2   151  ARG151     -0.2867
     70  CB        15.3740   62.7860   57.1520 C.3   151  ARG151      0.0307
     71  CG        13.9280   62.4610   57.5450 C.3   151  ARG151      0.0489
     72  CD        13.7440   62.3460   59.0540 C.3   151  ARG151      0.2205
     73  NE        14.1120   61.0280   59.5700 N.pl3 151  ARG151     -0.0865
     74  CZ        14.4060   60.7750   60.8440 C.cat 151  ARG151      0.5346
     75  NH1       14.3920   61.7520   61.7430 N.pl3 151  ARG151      0.1354
     76  NH2       14.7300   59.5440   61.2210 N.pl3 151  ARG151      0.1354
     77  N          8.9100   56.6320   53.5230 N.3   173  ALA173     -0.1245
     78  CA         9.5430   55.7390   54.4840 C.3   173  ALA173      0.1562
     79  C          9.5710   56.3240   55.8900 C.2   173  ALA173      0.2260
     80  O         10.3850   55.8970   56.7180 O.2   173  ALA173     -0.2867
     81  CB        10.9630   55.3990   54.0270 C.3   173  ALA173      0.0290
@<TRIPOS>BOND
     1    77    78    1
     2    22    23    1
     3    22    19    1
     4    24    23    2
     5    81    78    1
     6    23    25   am
     7    18    19    1
     8    78    79    1
     9    19    20    1
    10    52    51    2
    11    50    51    1
    12    50    49    1
    13    66    67    1
    14    51    53   am
    15    69    68    2
    16    68    67    1
    17    67    70    1
    18    79    80    2
    19    20    21    2
    20    20    26   am
    21    49    45   am
    22    53    54    1
    23    56    55    2
    24    60    59    2
    25    46    45    2
    26    59    58    1
    27    54    55    1
    28    26    27    1
    29    45    44    1
    30    38    37    2
    31    55    57   am
    32    70    71    1
    33    41    40    1
    34    13    12    2
    35    71    72    1
    36    57    58    1
    37    39    40    1
    38    39    36    1
    39    37    36    1
    40    37    43   am
    41    58    61    1
    42    35    36    1
    43    35    28   am
    44    12    11    1
    45    40    42    1
    46    44    43    1
    47    44    47    1
    48    27    28    1
    49    27    30    1
    50    31    30    1
    51    31    32    1
    52    33    32    2
    53    28    29    2
    54    61    62    1
    55    72    73    1
    56    32    34   am
    57    47    48    1
    58    11    10    1
    59    11    14    1
    60    73    74    2
    61    14    15    1
    62    62    63    1
    63    64    63    2
    64     4     3    2
    65    74    76    1
    66    74    75    1
    67    63    65   am
    68    15    17   am
    69    15    16    2
    70     3     2    1
    71     5     2    1
    72     5     6    1
    73     2     1    1
    74     6     7    1
    75     8     7    1
    76     8     9    1
