@<TRIPOS>MOLECULE
tmp/5ljeA00.pdb
 213 200 0 0 0
SMALL
GASTEIGER

@<TRIPOS>ATOM
      1  N         12.8670    2.0170   -9.7910 N.3    16  PHE16      -0.1241
      2  CA        11.7540    2.1210  -10.7370 C.3    16  PHE16       0.1605
      3  C         12.2270    1.8420  -12.1670 C.2    16  PHE16       0.2264
      4  O         11.5120    1.2190  -12.9580 O.2    16  PHE16      -0.2867
      5  CB        11.1600    3.5160  -10.6510 C.3    16  PHE16       0.0534
      6  CG         9.8120    3.6710  -11.2950 C.ar   16  PHE16      -0.0203
      7  CD1        8.8280    2.7190  -11.1280 C.ar   16  PHE16      -0.0042
      8  CD2        9.5190    4.8040  -12.0290 C.ar   16  PHE16      -0.0042
      9  CE1        7.5790    2.8860  -11.7100 C.ar   16  PHE16      -0.0003
     10  CE2        8.2620    4.9730  -12.5990 C.ar   16  PHE16      -0.0003
     11  CZ         7.3180    4.0200  -12.4420 C.ar   16  PHE16      -0.0000
     12  N         12.4340   -1.9190  -12.6310 N.3    19  TYR19      -0.1227
     13  CA        11.0950   -2.4660  -12.6910 C.3    19  TYR19       0.1736
     14  C         10.4870   -2.2420  -14.0860 C.2    19  TYR19       0.2595
     15  O         10.0080   -3.1740  -14.7230 O.2    19  TYR19      -0.2718
     16  CB        10.2590   -1.8380  -11.5830 C.3    19  TYR19       0.0548
     17  CG         8.7990   -2.2460  -11.6190 C.ar   19  TYR19      -0.0200
     18  CD1        8.3440   -3.4320  -11.0200 C.ar   19  TYR19      -0.0009
     19  CD2        7.8760   -1.4500  -12.2720 C.ar   19  TYR19      -0.0009
     20  CE1        7.0100   -3.8090  -11.1110 C.ar   19  TYR19       0.0417
     21  CE2        6.5560   -1.8060  -12.3280 C.ar   19  TYR19       0.0417
     22  CZ         6.1280   -2.9590  -11.7300 C.ar   19  TYR19       0.1957
     23  OH         4.7860   -3.2740  -11.8220 O.3    19  TYR19      -0.2866
     24  N         10.5660   -1.0200  -14.5900 N.am   20  LEU20      -0.1980
     25  CA        10.0230   -0.7540  -15.9150 C.3    20  LEU20       0.1596
     26  C         10.7820   -1.5160  -16.9940 C.2    20  LEU20       0.2287
     27  O         10.1770   -2.0160  -17.9490 O.2    20  LEU20      -0.2864
     28  CB         9.9880    0.7430  -16.2090 C.3    20  LEU20       0.0297
     29  CG         9.1150    1.5810  -15.2880 C.3    20  LEU20       0.0022
     30  CD1        9.1720    3.0260  -15.7330 C.3    20  LEU20       0.0001
     31  CD2        7.7120    1.1080  -15.3050 C.3    20  LEU20       0.0001
     32  N          9.3360   -1.8790  -20.9800 N.3    25  VAL25      -0.1245
     33  CA         9.0540   -0.4930  -21.3020 C.3    25  VAL25       0.1561
     34  C         10.2750    0.0810  -22.0320 C.2    25  VAL25       0.2260
     35  O         11.4340   -0.2030  -21.6780 O.2    25  VAL25      -0.2867
     36  CB         8.6970    0.2860  -20.0180 C.3    25  VAL25       0.0252
     37  CG1        8.4230    1.7540  -20.2980 C.3    25  VAL25       0.0019
     38  CG2        7.4890   -0.3220  -19.3570 C.3    25  VAL25       0.0019
     39  N         10.1130    5.9800  -22.8920 N.3    29  LEU29      -0.1245
     40  CA         9.0940    5.9990  -21.8420 C.3    29  LEU29       0.1561
     41  C          9.7440    5.8810  -20.4660 C.2    29  LEU29       0.2260
     42  O          9.3320    6.5290  -19.5210 O.2    29  LEU29      -0.2867
     43  CB         8.0800    4.8660  -22.0970 C.3    29  LEU29       0.0270
     44  CG         6.8260    4.6980  -21.2160 C.3    29  LEU29       0.0019
     45  CD1        6.1330    6.0170  -20.9300 C.3    29  LEU29       0.0001
     46  CD2        5.8430    3.7310  -21.8890 C.3    29  LEU29       0.0001
     47  N          9.4960    8.4830  -17.4520 N.3    33  ALA33      -0.1245
     48  CA         8.8110    7.9090  -16.3050 C.3    33  ALA33       0.1562
     49  C          9.6070    8.1080  -15.0180 C.2    33  ALA33       0.2260
     50  O          9.0390    8.4200  -13.9680 O.2    33  ALA33      -0.2867
     51  CB         8.5360    6.4410  -16.5360 C.3    33  ALA33       0.0290
     52  N          9.0220   11.4480  -13.4740 N.3    36  LEU36      -0.1245
     53  CA         7.7090   11.6340  -12.8730 C.3    36  LEU36       0.1561
     54  C          7.8150   11.2700  -11.4010 C.2    36  LEU36       0.2260
     55  O          8.6690   10.4850  -11.0100 O.2    36  LEU36      -0.2867
     56  CB         6.6780   10.7360  -13.5620 C.3    36  LEU36       0.0270
     57  CG         6.5380   10.8610  -15.0810 C.3    36  LEU36       0.0019
     58  CD1        5.6120    9.7870  -15.6200 C.3    36  LEU36       0.0001
     59  CD2        6.0500   12.2730  -15.4790 C.3    36  LEU36       0.0001
     60  N          4.8680   10.1880   -9.3970 N.3    38  PRO38      -0.2116
     61  CA         3.4260    9.9960   -9.3550 C.3    38  PRO38       0.1372
     62  C          2.9180   10.0160   -7.9190 C.2    38  PRO38       0.2244
     63  O          3.5480    9.4640   -7.0180 O.2    38  PRO38      -0.2868
     64  CB         3.2540    8.6060   -9.9520 C.3    38  PRO38       0.0268
     65  CG         4.4640    8.3020  -10.6830 C.3    38  PRO38       0.0207
     66  CD         5.5400    9.0470  -10.0190 C.3    38  PRO38       0.0892
     67  N         -0.3710    8.9600   -5.3320 N.3    40  LEU40      -0.1245
     68  CA        -1.4430    7.9710   -5.2640 C.3    40  LEU40       0.1561
     69  C         -2.6140    8.6300   -4.5800 C.2    40  LEU40       0.2260
     70  O         -2.4970    9.0800   -3.4450 O.2    40  LEU40      -0.2867
     71  CB        -1.0430    6.7380   -4.4490 C.3    40  LEU40       0.0270
     72  CG        -0.0070    5.8040   -5.0460 C.3    40  LEU40       0.0019
     73  CD1        0.2050    4.6330   -4.0990 C.3    40  LEU40       0.0001
     74  CD2       -0.4830    5.2880   -6.3880 C.3    40  LEU40       0.0001
     75  N         -7.6990    3.1690   -6.6890 N.3    51  ILE51      -0.1245
     76  CA        -6.3400    3.6700   -6.5180 C.3    51  ILE51       0.1561
     77  C         -5.9400    4.3250   -7.8250 C.2    51  ILE51       0.2260
     78  O         -5.9060    3.6740   -8.8700 O.2    51  ILE51      -0.2867
     79  CB        -5.3660    2.5480   -6.2420 C.3    51  ILE51       0.0252
     80  CG1       -5.7150    1.7440   -4.9950 C.3    51  ILE51       0.0019
     81  CG2       -3.9760    3.1690   -6.1140 C.3    51  ILE51       0.0019
     82  CD1       -4.8350    0.5460   -4.7400 C.3    51  ILE51       0.0001
     83  N         -3.0710    6.3860   -9.7590 N.3    53  THR53      -0.1218
     84  CA        -1.6710    6.7880   -9.8610 C.3    53  THR53       0.1862
     85  C         -1.6900    7.9820  -10.7840 C.2    53  THR53       0.2287
     86  O         -2.1300    7.8870  -11.9380 O.2    53  THR53      -0.2866
     87  CB        -0.7920    5.6490  -10.4110 C.3    53  THR53       0.1770
     88  OG1       -0.8950    4.4820   -9.5910 O.3    53  THR53      -0.2211
     89  CG2        0.6000    6.0710  -10.4420 C.3    53  THR53       0.0375
     90  N          0.0360   11.3200  -12.6270 N.3    55  SER55      -0.1217
     91  CA         1.2230   12.0350  -13.0760 C.3    55  SER55       0.1889
     92  C          0.8400   12.9920  -14.1820 C.2    55  SER55       0.2288
     93  O         -0.2600   12.9360  -14.7480 O.2    55  SER55      -0.2866
     94  CB         2.3030   11.0660  -13.5580 C.3    55  SER55       0.2089
     95  OG         2.0910   10.6600  -14.9020 O.3    55  SER55      -0.2183
     96  N          2.0540   12.9610  -17.0020 N.3    57  PHE57      -0.1227
     97  CA         2.1100   12.2520  -18.2810 C.3    57  PHE57       0.1736
     98  C          0.8400   11.4240  -18.4720 C.2    57  PHE57       0.2595
     99  O          0.0060   11.7500  -19.3280 O.2    57  PHE57      -0.2718
    100  CB         3.3960   11.4260  -18.3870 C.3    57  PHE57       0.0547
    101  CG         3.4640   10.5620  -19.6130 C.ar   57  PHE57      -0.0202
    102  CD1        3.3580   11.0830  -20.8780 C.ar   57  PHE57      -0.0042
    103  CD2        3.6170    9.2240  -19.4790 C.ar   57  PHE57      -0.0042
    104  CE1        3.4460   10.2740  -21.9920 C.ar   57  PHE57      -0.0003
    105  CE2        3.6890    8.4010  -20.5890 C.ar   57  PHE57      -0.0003
    106  CZ         3.5840    8.9350  -21.8460 C.ar   57  PHE57      -0.0000
    107  N          0.6850   10.3860  -17.6730 N.am   58  ARG58      -0.1966
    108  CA        -0.4860    9.5310  -17.7400 C.3    58  ARG58       0.1729
    109  C         -0.9080    9.1790  -16.3370 C.2    58  ARG58       0.2616
    110  O         -0.0740    9.1570  -15.4030 O.2    58  ARG58      -0.2715
    111  CB        -0.0750    8.2820  -18.4940 C.3    58  ARG58       0.0348
    112  CG        -1.1700    7.4170  -19.0010 C.3    58  ARG58       0.0492
    113  CD        -0.5760    6.4380  -19.9830 C.3    58  ARG58       0.2205
    114  NE        -0.6430    6.8850  -21.3660 N.pl3  58  ARG58      -0.0865
    115  CZ         0.2840    6.6560  -22.2950 C.cat  58  ARG58       0.5346
    116  NH1        1.4130    6.0000  -22.0030 N.pl3  58  ARG58       0.1354
    117  NH2        0.0850    7.1010  -23.5280 N.pl3  58  ARG58       0.1354
    118  N         -2.2010    8.8970  -16.1690 N.am   59  ASN59      -0.1958
    119  CA        -2.6900    8.3550  -14.9230 C.3    59  ASN59       0.1819
    120  C         -2.9180    6.8600  -15.1340 C.2    59  ASN59       0.2621
    121  O         -3.0680    6.4030  -16.2620 O.2    59  ASN59      -0.2715
    122  CB        -3.9960    9.0230  -14.4900 C.3    59  ASN59       0.1195
    123  CG        -3.8510   10.5130  -14.2520 C.2    59  ASN59       0.2630
    124  OD1       -2.7640   11.0250  -13.9300 O.2    59  ASN59      -0.2716
    125  ND2       -4.9490   11.2320  -14.3990 N.am   59  ASN59      -0.0877
    126  N         -2.8720    6.0980  -14.0570 N.am   60  TYR60      -0.1974
    127  CA        -3.3100    4.7100  -14.1030 C.3    60  TYR60       0.1639
    128  C         -4.3390    4.5110  -13.0070 C.2    60  TYR60       0.2290
    129  O         -4.0740    4.8280  -11.8370 O.2    60  TYR60      -0.2864
    130  CB        -2.1310    3.7420  -13.9510 C.3    60  TYR60       0.0560
    131  CG        -2.5820    2.3140  -14.0350 C.ar   60  TYR60      -0.0198
    132  CD1       -3.1820    1.8400  -15.1780 C.ar   60  TYR60      -0.0009
    133  CD2       -2.4610    1.4680  -12.9470 C.ar   60  TYR60      -0.0009
    134  CE1       -3.6410    0.5410  -15.2560 C.ar   60  TYR60       0.0417
    135  CE2       -2.8970    0.1530  -13.0110 C.ar   60  TYR60       0.0417
    136  CZ        -3.5090   -0.2850  -14.1620 C.ar   60  TYR60       0.1957
    137  OH        -3.9500   -1.5900  -14.2240 O.3    60  TYR60      -0.2866
    138  N         -6.8720    1.9210  -10.9840 N.3    62  MET62      -0.1245
    139  CA        -7.2790    0.5930  -10.5340 C.3    62  MET62       0.1570
    140  C         -8.5360    0.7570   -9.7410 C.2    62  MET62       0.2261
    141  O         -8.5580    1.5520   -8.8220 O.2    62  MET62      -0.2867
    142  CB        -6.2440   -0.0330   -9.6230 C.3    62  MET62       0.0387
    143  CG        -4.9560   -0.3620  -10.2600 C.3    62  MET62       0.0595
    144  SD        -4.0320   -1.3660   -9.1010 S.3    62  MET62      -0.1393
    145  CE        -4.8860   -2.9410   -9.1380 C.3    62  MET62       0.0692
    146  N         -1.0540    2.0700  -21.0040 N.3    76  GLY76      -0.1210
    147  CA        -0.2580    3.2140  -20.6250 C.3    76  GLY76       0.1956
    148  C          1.0290    2.8430  -19.9300 C.2    76  GLY76       0.2611
    149  O          1.9570    3.6480  -19.8780 O.2    76  GLY76      -0.2717
    150  N          1.0750    1.6270  -19.3890 N.am   77  ILE77      -0.1979
    151  CA         2.2680    1.1360  -18.6900 C.3    77  ILE77       0.1595
    152  C          3.0310    0.2090  -19.6430 C.2    77  ILE77       0.2287
    153  O          3.9170    0.6620  -20.3630 O.2    77  ILE77      -0.2864
    154  CB         1.8980    0.4450  -17.3530 C.3    77  ILE77       0.0276
    155  CG1        1.1940    1.4420  -16.4250 C.3    77  ILE77       0.0022
    156  CG2        3.1550   -0.1070  -16.6900 C.3    77  ILE77       0.0022
    157  CD1        0.6120    0.8140  -15.1700 C.3    77  ILE77       0.0001
    158  N         -0.6110  -10.3510  -10.0510 N.3    97  GLN97      -0.1245
    159  CA        -0.9910  -10.0620  -11.4240 C.3    97  GLN97       0.1566
    160  C         -0.5430  -11.2290  -12.3070 C.2    97  GLN97       0.2260
    161  O          0.6100  -11.2820  -12.7430 O.2    97  GLN97      -0.2867
    162  CB        -0.3390   -8.7440  -11.8720 C.3    97  GLN97       0.0367
    163  CG        -0.8330   -7.5320  -11.0850 C.3    97  GLN97       0.0905
    164  CD         0.0370   -6.3230  -11.2500 C.2    97  GLN97       0.2608
    165  OE1        1.2380   -6.3670  -10.9850 O.2    97  GLN97      -0.2717
    166  NE2       -0.5570   -5.2150  -11.6610 N.am   97  GLN97      -0.0878
    167  N          2.3440   -6.7100   -6.2850 N.3   106  TRP106     -0.1241
    168  CA         2.7260   -5.6260   -5.4010 C.3   106  TRP106      0.1605
    169  C          2.1300   -5.8220   -4.0270 C.2   106  TRP106      0.2264
    170  O          1.2170   -6.6250   -3.8360 O.2   106  TRP106     -0.2867
    171  CB         2.4020   -4.2220   -5.9770 C.3   106  TRP106      0.0550
    172  CG         1.0200   -3.9680   -6.4470 C.ar  106  TRP106      0.0003
    173  CD1        0.6280   -3.9240   -7.7480 C.ar  106  TRP106      0.0946
    174  CD2       -0.1540   -3.6480   -5.6640 C.ar  106  TRP106      0.0152
    175  NE1       -0.7000   -3.5970   -7.8320 N.ar  106  TRP106     -0.2442
    176  CE2       -1.2020   -3.4260   -6.5700 C.ar  106  TRP106      0.0810
    177  CE3       -0.4170   -3.5440   -4.3030 C.ar  106  TRP106      0.0012
    178  CZ2       -2.4970   -3.1170   -6.1470 C.ar  106  TRP106      0.0191
    179  CZ3       -1.7030   -3.2380   -3.8760 C.ar  106  TRP106      0.0001
    180  CH2       -2.7180   -3.0200   -4.7960 C.ar  106  TRP106      0.0015
    181  N          0.9470   -3.3430   -0.6130 N.3   108  LEU108     -0.1245
    182  CA         0.6470   -1.9830   -0.1370 C.3   108  LEU108      0.1561
    183  C          0.3130   -2.0320    1.3470 C.2   108  LEU108      0.2260
    184  O         -0.4670   -2.8710    1.7940 O.2   108  LEU108     -0.2867
    185  CB        -0.5270   -1.4010   -0.9160 C.3   108  LEU108      0.0270
    186  CG        -0.8710    0.0580   -0.6620 C.3   108  LEU108      0.0019
    187  CD1        0.1000    0.9650   -1.3830 C.3   108  LEU108      0.0001
    188  CD2       -2.3000    0.3440   -1.0700 C.3   108  LEU108      0.0001
    189  N          4.7040    1.0200   -0.7150 N.3   117  LEU117     -0.1245
    190  CA         4.3310    0.2070   -1.8620 C.3   117  LEU117      0.1561
    191  C          5.5690   -0.5120   -2.3400 C.2   117  LEU117      0.2260
    192  O          6.6140    0.0970   -2.5530 O.2   117  LEU117     -0.2867
    193  CB         3.7790    1.0630   -2.9750 C.3   117  LEU117      0.0270
    194  CG         3.5130    0.4210   -4.3290 C.3   117  LEU117      0.0019
    195  CD1        2.4440   -0.6510   -4.1730 C.3   117  LEU117      0.0001
    196  CD2        3.0970    1.4460   -5.3470 C.3   117  LEU117      0.0001
    197  N          6.5780   -2.9140   -5.4570 N.3   119  MET119     -0.1245
    198  CA         6.1730   -3.4780   -6.7450 C.3   119  MET119      0.1570
    199  C          7.2190   -4.4880   -7.1960 C.2   119  MET119      0.2261
    200  O          8.4330   -4.2850   -7.0470 O.2   119  MET119     -0.2867
    201  CB         6.0630   -2.3910   -7.7980 C.3   119  MET119      0.0387
    202  CG         4.9640   -1.4270   -7.4920 C.3   119  MET119      0.0595
    203  SD         4.6210   -0.3700   -8.8980 S.3   119  MET119     -0.1393
    204  CE         6.1750    0.3780   -9.0460 C.3   119  MET119      0.0692
    205  N          8.5170    2.1600   -3.1450 N.3   128  GLN128     -0.1245
    206  CA         7.9980    3.5180   -3.0840 C.3   128  GLN128      0.1566
    207  C          7.4190    3.7880   -1.7040 C.2   128  GLN128      0.2260
    208  O          6.8500    2.9080   -1.0540 O.2   128  GLN128     -0.2867
    209  CB         6.9450    3.7760   -4.1750 C.3   128  GLN128      0.0367
    210  CG         7.5060    3.5300   -5.5690 C.3   128  GLN128      0.0905
    211  CD         6.5280    3.8430   -6.6740 C.2   128  GLN128      0.2608
    212  OE1        5.3060    3.8670   -6.4570 O.2   128  GLN128     -0.2717
    213  NE2        7.0350    4.0230   -7.8660 N.am  128  GLN128     -0.0878
@<TRIPOS>BOND
     1   117   115    1
     2    39    40    1
     3   115   116    1
     4   115   114    2
     5    43    40    1
     6    43    44    1
     7    34    35    2
     8    34    33    1
     9   104   106   ar
    10   104   102   ar
    11    46    44    1
    12   106   105   ar
    13    40    41    1
    14   114   113    1
    15    33    32    1
    16    33    36    1
    17    44    45    1
    18   146   147    1
    19   102   101   ar
    20   147   148    1
    21   105   103   ar
    22    41    42    2
    23   153   152    2
    24    37    36    1
    25    36    38    1
    26   113   112    1
    27   148   149    2
    28   148   150   am
    29   152   151    1
    30   101   103   ar
    31   101   100    1
    32   150   151    1
    33    99    98    2
    34   112   111    1
    35   151   154    1
    36   111   108    1
    37    98    97    1
    38    98   107   am
    39   100    97    1
    40    97    96    1
    41    27    26    2
    42   108   107    1
    43   108   109    1
    44    47    48    1
    45   154   156    1
    46   154   155    1
    47    26    25    1
    48    51    48    1
    49   155   157    1
    50   109   118   am
    51   109   110    2
    52    48    49    1
    53   121   120    2
    54    28    25    1
    55    28    29    1
    56   118   119    1
    57    25    24    1
    58    30    29    1
    59    58    57    1
    60    59    57    1
    61    31    29    1
    62   134   132   ar
    63   134   136   ar
    64   132   131   ar
    65   120   119    1
    66   120   126   am
    67    57    56    1
    68    49    50    2
    69   119   122    1
    70    95    94    1
    71    93    92    2
    72    15    14    2
    73    24    14   am
    74   122   123    1
    75   125   123   am
    76   123   124    2
    77   137   136    1
    78    92    91    1
    79   136   135   ar
    80   127   126    1
    81   127   130    1
    82   127   128    1
    83    14    13    1
    84   131   130    1
    85   131   133   ar
    86    56    53    1
    87    94    91    1
    88    52    53    1
    89    91    90    1
    90   135   133   ar
    91   128   129    2
    92     4     3    2
    93    53    54    1
    94   161   160    2
    95    13    12    1
    96    13    16    1
    97    10    11   ar
    98    10     8   ar
    99    11     9   ar
   100    21    19   ar
   101    21    22   ar
   102   160   159    1
   103    19    17   ar
   104     3     2    1
   105     8     6   ar
   106    86    85    2
   107   162   159    1
   108   162   163    1
   109    23    22    1
   110    22    20   ar
   111     9     7   ar
   112   166   164   am
   113    17    16    1
   114    17    18   ar
   115   159   158    1
   116    54    55    2
   117     6     7   ar
   118     6     5    1
   119   164   163    1
   120   164   165    2
   121    20    18   ar
   122   138   139    1
   123    85    84    1
   124     2     5    1
   125     2     1    1
   126    65    66    1
   127    65    64    1
   128   139   140    1
   129   139   142    1
   130    89    87    1
   131    87    84    1
   132    87    88    1
   133   143   142    1
   134   143   144    1
   135    66    60    1
   136    64    61    1
   137    84    83    1
   138   140   141    2
   139    60    61    1
   140    61    62    1
   141   145   144    1
   142   204   203    1
   143   203   202    1
   144    78    77    2
   145    62    63    2
   146   213   211   am
   147   175   173   ar
   148   175   176   ar
   149    77    76    1
   150   201   202    1
   151   201   198    1
   152   173   172   ar
   153   199   200    2
   154   199   198    1
   155   198   197    1
   156    75    76    1
   157   211   212    2
   158   211   210    1
   159   176   178   ar
   160   176   174   ar
   161    76    79    1
   162   172   171    1
   163   172   174   ar
   164    74    72    1
   165   167   168    1
   166    79    81    1
   167    79    80    1
   168   178   180   ar
   169   171   168    1
   170   174   177   ar
   171   210   209    1
   172   168   169    1
   173   196   194    1
   174    67    68    1
   175    68    69    1
   176    68    71    1
   177    72    71    1
   178    72    73    1
   179    80    82    1
   180   180   179   ar
   181    69    70    2
   182   194   195    1
   183   194   193    1
   184   177   179   ar
   185   209   206    1
   186   169   170    2
   187   205   206    1
   188   206   207    1
   189   193   190    1
   190   192   191    2
   191   191   190    1
   192   190   189    1
   193   207   208    2
   194   187   186    1
   195   188   186    1
   196   185   186    1
   197   185   182    1
   198   181   182    1
   199   182   183    1
   200   183   184    2
