@<TRIPOS>MOLECULE
tmp/5ljfB00.pdb
 152 153 0 0 0
SMALL
GASTEIGER

@<TRIPOS>ATOM
      1  N          8.7470   46.6170   87.1910 N.3    12  GLU12      -0.1231
      2  CA         8.3880   47.4830   86.0860 C.3    12  GLU12       0.1699
      3  C          7.1850   46.9550   85.3200 C.2    12  GLU12       0.2592
      4  O          6.8130   47.5330   84.2960 O.2    12  GLU12      -0.2718
      5  CB         9.5940   47.6480   85.1490 C.3    12  GLU12       0.0402
      6  CG         9.7670   46.5520   84.0730 C.3    12  GLU12       0.1161
      7  CD        10.2440   45.1820   84.5890 C.2    12  GLU12       0.3649
      8  OE1       10.3000   44.9420   85.8270 O.co2  12  GLU12      -0.2457
      9  OE2       10.5700   44.3350   83.7200 O.co2  12  GLU12      -0.2457
     10  N          6.5740   45.8710   85.7970 N.am   13  PHE13      -0.1962
     11  CA         5.5300   45.1800   85.0580 C.3    13  PHE13       0.1771
     12  C          4.2600   46.0180   84.9890 C.2    13  PHE13       0.2620
     13  O          4.0250   46.9010   85.8070 O.2    13  PHE13      -0.2715
     14  CB         5.2040   43.8360   85.7100 C.3    13  PHE13       0.0574
     15  CG         6.1980   42.7430   85.4180 C.ar   13  PHE13      -0.0200
     16  CD1        7.3880   43.0020   84.7430 C.ar   13  PHE13      -0.0042
     17  CD2        5.9220   41.4350   85.8000 C.ar   13  PHE13      -0.0042
     18  CE1        8.2840   41.9590   84.4460 C.ar   13  PHE13      -0.0003
     19  CE2        6.8050   40.4100   85.5350 C.ar   13  PHE13      -0.0003
     20  CZ         7.9900   40.6610   84.8590 C.ar   13  PHE13      -0.0000
     21  N          3.4140   45.7020   84.0050 N.am   14  THR14      -0.1937
     22  CA         2.1170   46.3670   83.8570 C.3    14  THR14       0.2028
     23  C          2.2840   47.8810   83.9310 C.2    14  THR14       0.2642
     24  O          1.6730   48.5650   84.7590 O.2    14  THR14      -0.2714
     25  CB         1.1250   45.8800   84.9180 C.3    14  THR14       0.1808
     26  OG1        1.3310   44.4870   85.1640 O.3    14  THR14      -0.2208
     27  CG2       -0.3010   46.0760   84.4460 C.3    14  THR14       0.0379
     28  N          3.1530   48.4040   83.0660 N.am   15  GLY15      -0.1954
     29  CA         3.4540   49.8260   83.0530 C.3    15  GLY15       0.1869
     30  C          2.2530   50.7050   82.7960 C.2    15  GLY15       0.2309
     31  O          2.2810   51.8960   83.1280 O.2    15  GLY15      -0.2863
     32  N         -0.1200   42.8260   92.5200 N.3    24  THR24      -0.1203
     33  CA        -1.1360   42.7370   91.4790 C.3    24  THR24       0.1994
     34  C         -0.5980   43.1680   90.1240 C.2    24  THR24       0.2617
     35  O         -0.6490   42.3890   89.1650 O.2    24  THR24      -0.2717
     36  CB        -2.3540   43.5850   91.8630 C.3    24  THR24       0.1784
     37  OG1       -2.9480   43.0360   93.0420 O.3    24  THR24      -0.2211
     38  CG2       -3.3710   43.6000   90.7350 C.3    24  THR24       0.0376
     39  N         -0.0660   44.3790   90.0110 N.am   25  HIS25      -0.1975
     40  CA         0.4620   44.8180   88.7280 C.3    25  HIS25       0.1656
     41  C          1.9770   44.7030   88.6300 C.2    25  HIS25       0.2291
     42  O          2.5040   44.5750   87.5210 O.2    25  HIS25      -0.2864
     43  CB         0.0280   46.2570   88.4640 C.3    25  HIS25       0.0771
     44  CG        -1.4360   46.4710   88.6720 C.ar   25  HIS25       0.0820
     45  ND1       -1.9440   47.0950   89.7900 N.ar   25  HIS25      -0.2267
     46  CD2       -2.5050   46.0840   87.9360 C.ar   25  HIS25       0.1154
     47  CE1       -3.2630   47.1160   89.7170 C.ar   25  HIS25       0.1986
     48  NE2       -3.6290   46.5020   88.6050 N.ar   25  HIS25      -0.2212
     49  N          5.8390   43.3830   90.8930 N.3    27  PHE27      -0.1241
     50  CA         6.2880   42.3590   91.8310 C.3    27  PHE27       0.1605
     51  C          7.7510   42.5690   92.1610 C.2    27  PHE27       0.2264
     52  O          8.5990   42.5710   91.2660 O.2    27  PHE27      -0.2867
     53  CB         6.0580   40.9570   91.2590 C.3    27  PHE27       0.0534
     54  CG         4.6640   40.7620   90.7300 C.ar   27  PHE27      -0.0203
     55  CD1        4.3340   41.1500   89.4360 C.ar   27  PHE27      -0.0042
     56  CD2        3.6700   40.2570   91.5480 C.ar   27  PHE27      -0.0042
     57  CE1        3.0410   40.9960   88.9610 C.ar   27  PHE27      -0.0003
     58  CE2        2.3780   40.1080   91.0770 C.ar   27  PHE27      -0.0003
     59  CZ         2.0670   40.4770   89.7890 C.ar   27  PHE27      -0.0000
     60  N         13.9270   51.7290   83.9340 N.3    89  HIS89      -0.1241
     61  CA        13.5300   50.8900   82.7990 C.3    89  HIS89       0.1621
     62  C         12.4820   51.6130   81.9540 C.2    89  HIS89       0.2264
     63  O         11.3330   51.1960   81.8560 O.2    89  HIS89      -0.2867
     64  CB        13.0040   49.5560   83.3160 C.3    89  HIS89       0.0745
     65  CG        13.0670   48.4550   82.3100 C.ar   89  HIS89       0.0817
     66  ND1       14.2080   47.7090   82.0950 N.ar   89  HIS89      -0.2268
     67  CD2       12.1280   47.9710   81.4620 C.ar   89  HIS89       0.1154
     68  CE1       13.9680   46.8120   81.1520 C.ar   89  HIS89       0.1986
     69  NE2       12.7150   46.9520   80.7510 N.ar   89  HIS89      -0.2212
     70  N         13.0330   53.6140   78.5900 N.3    91  TYR91      -0.1241
     71  CA        13.0940   53.9080   77.1500 C.3    91  TYR91       0.1605
     72  C         13.2140   55.4020   76.8760 C.2    91  TYR91       0.2264
     73  O         12.7460   55.8930   75.8440 O.2    91  TYR91      -0.2867
     74  CB        11.8740   53.3330   76.4240 C.3    91  TYR91       0.0534
     75  CG        11.6250   51.9140   76.8220 C.ar   91  TYR91      -0.0201
     76  CD1       12.3480   50.8880   76.2370 C.ar   91  TYR91      -0.0009
     77  CD2       10.6860   51.5900   77.8030 C.ar   91  TYR91      -0.0009
     78  CE1       12.1360   49.5730   76.6040 C.ar   91  TYR91       0.0417
     79  CE2       10.4750   50.2740   78.1820 C.ar   91  TYR91       0.0417
     80  CZ        11.2010   49.2750   77.5650 C.ar   91  TYR91       0.1957
     81  OH        11.0110   47.9660   77.9250 O.3    91  TYR91      -0.2866
     82  N         19.5660   40.1670   71.2130 N.3   200  TYR200     -0.1241
     83  CA        18.7400   38.9800   71.1070 C.3   200  TYR200      0.1605
     84  C         19.0800   38.3150   69.7860 C.2   200  TYR200      0.2264
     85  O         19.5880   38.9600   68.8710 O.2   200  TYR200     -0.2867
     86  CB        17.2610   39.3200   71.1730 C.3   200  TYR200      0.0534
     87  CG        16.8400   39.7640   72.5440 C.ar  200  TYR200     -0.0201
     88  CD1       16.5500   38.8290   73.5280 C.ar  200  TYR200     -0.0009
     89  CD2       16.7460   41.1120   72.8640 C.ar  200  TYR200     -0.0009
     90  CE1       16.1530   39.2160   74.7710 C.ar  200  TYR200      0.0417
     91  CE2       16.3570   41.5060   74.1200 C.ar  200  TYR200      0.0417
     92  CZ        16.0650   40.5390   75.0710 C.ar  200  TYR200      0.1957
     93  OH        15.6640   40.8820   76.3400 O.3   200  TYR200     -0.2866
     94  N         21.1690   43.0430   78.5210 N.3   244  GLU244     -0.1245
     95  CA        20.0050   42.2080   78.2600 C.3   244  GLU244      0.1567
     96  C         20.3350   41.2450   77.1350 C.2   244  GLU244      0.2260
     97  O         20.8390   41.6440   76.0840 O.2   244  GLU244     -0.2867
     98  CB        18.7630   43.0300   77.8990 C.3   244  GLU244      0.0388
     99  CG        18.0570   43.6430   79.0920 C.3   244  GLU244      0.1160
    100  CD        16.7620   44.3390   78.7270 C.2   244  GLU244      0.3649
    101  OE1       16.1200   43.9300   77.7270 O.co2 244  GLU244     -0.2457
    102  OE2       16.3830   45.2840   79.4600 O.co2 244  GLU244     -0.2457
    103  N         18.4960   38.0700   80.4490 N.3   275  TRP275     -0.1241
    104  CA        17.0960   38.4800   80.5150 C.3   275  TRP275      0.1605
    105  C         16.1780   37.2850   80.3470 C.2   275  TRP275      0.2264
    106  O         16.0960   36.7690   79.2360 O.2   275  TRP275     -0.2867
    107  CB        16.7630   39.5050   79.4240 C.3   275  TRP275      0.0550
    108  CG        15.3440   39.9930   79.5690 C.ar  275  TRP275      0.0003
    109  CD1       14.2140   39.4470   78.9950 C.ar  275  TRP275      0.0946
    110  CD2       14.8910   41.1000   80.3600 C.ar  275  TRP275      0.0152
    111  NE1       13.1020   40.1560   79.3750 N.ar  275  TRP275     -0.2442
    112  CE2       13.4870   41.1740   80.2120 C.ar  275  TRP275      0.0810
    113  CE3       15.5400   42.0440   81.1730 C.ar  275  TRP275      0.0012
    114  CZ2       12.7140   42.1530   80.8510 C.ar  275  TRP275      0.0191
    115  CZ3       14.7710   43.0030   81.8110 C.ar  275  TRP275      0.0001
    116  CH2       13.3750   43.0550   81.6410 C.ar  275  TRP275      0.0015
    117  N          7.6250   36.7440   89.0830 N.3   280  SER280     -0.1202
    118  CA         6.2580   36.6490   88.5800 C.3   280  SER280      0.2020
    119  C          6.2540   36.6340   87.0530 C.2   280  SER280      0.2619
    120  O          5.4880   37.3420   86.3980 O.2   280  SER280     -0.2717
    121  CB         5.4070   37.7900   89.1420 C.3   280  SER280      0.2103
    122  OG         4.0380   37.4260   89.1630 O.3   280  SER280     -0.2182
    123  N          7.0910   35.7880   86.4620 N.am  281  TRP281     -0.1961
    124  CA         7.1790   35.7270   85.0080 C.3   281  TRP281      0.1771
    125  C          6.1640   34.7940   84.3690 C.2   281  TRP281      0.2620
    126  O          5.9530   34.8830   83.1550 O.2   281  TRP281     -0.2715
    127  CB         8.5730   35.2830   84.5770 C.3   281  TRP281      0.0590
    128  CG         9.5300   36.4070   84.3260 C.ar  281  TRP281      0.0006
    129  CD1       10.7150   36.6210   84.9520 C.ar  281  TRP281      0.0946
    130  CD2        9.4020   37.4380   83.3350 C.ar  281  TRP281      0.0152
    131  NE1       11.3340   37.7300   84.4230 N.ar  281  TRP281     -0.2442
    132  CE2       10.5430   38.2520   83.4340 C.ar  281  TRP281      0.0810
    133  CE3        8.4130   37.7720   82.3990 C.ar  281  TRP281      0.0012
    134  CZ2       10.7440   39.3600   82.6160 C.ar  281  TRP281      0.0191
    135  CZ3        8.6160   38.8700   81.5780 C.ar  281  TRP281      0.0001
    136  CH2        9.7750   39.6510   81.6910 C.ar  281  TRP281      0.0015
    137  N          5.5480   33.9040   85.1450 N.am  282  GLY282     -0.1954
    138  CA         4.6050   32.9560   84.5710 C.3   282  GLY282      0.1869
    139  C          5.2530   32.1320   83.4750 C.2   282  GLY282      0.2309
    140  O          6.3700   31.6270   83.6240 O.2   282  GLY282     -0.2863
    141  N          6.4790   33.0540   80.6250 N.3   284  TYR284     -0.1241
    142  CA         7.4030   33.7780   79.7580 C.3   284  TYR284      0.1605
    143  C          8.5320   32.8800   79.2640 C.2   284  TYR284      0.2264
    144  O          9.2520   32.2660   80.0570 O.2   284  TYR284     -0.2867
    145  CB         7.9690   34.9700   80.5270 C.3   284  TYR284      0.0534
    146  CG         8.9180   35.8660   79.7640 C.ar  284  TYR284     -0.0201
    147  CD1        8.5220   36.4980   78.5910 C.ar  284  TYR284     -0.0009
    148  CD2       10.1920   36.1320   80.2560 C.ar  284  TYR284     -0.0009
    149  CE1        9.3820   37.3500   77.9130 C.ar  284  TYR284      0.0417
    150  CE2       11.0480   36.9930   79.5960 C.ar  284  TYR284      0.0417
    151  CZ        10.6420   37.5940   78.4220 C.ar  284  TYR284      0.1957
    152  OH        11.5020   38.4390   77.7500 O.3   284  TYR284     -0.2866
@<TRIPOS>BOND
     1    85    84    2
     2    84    83    1
     3    83    86    1
     4    83    82    1
     5    86    87    1
     6    87    89   ar
     7    87    88   ar
     8    89    91   ar
     9    88    90   ar
    10    91    92   ar
    11    90    92   ar
    12    92    93    1
    13    73    72    2
    14    97    96    2
    15    76    78   ar
    16    76    75   ar
    17    74    75    1
    18    74    71    1
    19    78    80   ar
    20    75    77   ar
    21    72    71    1
    22    96    95    1
    23    71    70    1
    24    80    81    1
    25    80    79   ar
    26   101   100   ar
    27   152   151    1
    28    77    79   ar
    29    98    95    1
    30    98    99    1
    31   149   151   ar
    32   149   147   ar
    33    95    94    1
    34   151   150   ar
    35   147   146   ar
    36   100    99    1
    37   100   102   ar
    38   109   111   ar
    39   109   108   ar
    40   106   105    2
    41   143   142    1
    42   143   144    2
    43   111   112   ar
    44   107   108    1
    45   107   104    1
    46   108   110   ar
    47   150   148   ar
    48   142   145    1
    49   142   141    1
    50   146   148   ar
    51   146   145    1
    52   112   110   ar
    53   112   114   ar
    54   105   104    1
    55   110   113   ar
    56   103   104    1
    57    69    68   ar
    58    69    67   ar
    59   114   116   ar
    60    68    66   ar
    61   113   115   ar
    62    67    65   ar
    63   135   136   ar
    64   135   133   ar
    65   116   115   ar
    66   136   134   ar
    67    63    62    2
    68    62    61    1
    69    66    65   ar
    70    65    64    1
    71   133   130   ar
    72   134   132   ar
    73    30    29    1
    74    30    31    2
    75    61    64    1
    76    61    60    1
    77    29    28    1
    78    28    23   am
    79   126   125    2
    80   130   132   ar
    81   130   128   ar
    82   132   131   ar
    83   139   140    2
    84   139   138    1
    85     9     7   ar
    86    22    23    1
    87    22    21    1
    88    22    25    1
    89    23    24    2
    90    21    12   am
    91     6     7    1
    92     6     5    1
    93     4     3    2
    94   128   127    1
    95   128   129   ar
    96   125   124    1
    97   125   137   am
    98   131   129   ar
    99    27    25    1
   100    18    16   ar
   101    18    20   ar
   102   138   137    1
   103   127   124    1
   104     7     8   ar
   105    16    15   ar
   106    20    19   ar
   107    25    26    1
   108    12    11    1
   109    12    13    2
   110   124   123    1
   111    11    14    1
   112    11    10    1
   113     5     2    1
   114     3    10   am
   115     3     2    1
   116    15    14    1
   117    15    17   ar
   118    19    17   ar
   119     2     1    1
   120   120   119    2
   121   123   119   am
   122   119   118    1
   123    42    41    2
   124    46    48   ar
   125    46    44   ar
   126    43    44    1
   127    43    40    1
   128   118   117    1
   129   118   121    1
   130    48    47   ar
   131    41    40    1
   132    44    45   ar
   133    40    39    1
   134    57    55   ar
   135    57    59   ar
   136   121   122    1
   137    35    34    2
   138    55    54   ar
   139    47    45   ar
   140    59    58   ar
   141    39    34   am
   142    34    33    1
   143    54    53    1
   144    54    56   ar
   145    38    36    1
   146    49    50    1
   147    58    56   ar
   148    53    50    1
   149    52    51    2
   150    33    36    1
   151    33    32    1
   152    50    51    1
   153    36    37    1
