@<TRIPOS>MOLECULE
tmp/5ljfA00.pdb
 145 140 0 0 0
SMALL
GASTEIGER

@<TRIPOS>ATOM
      1  N         28.3590   39.6240  112.0400 N.3    13  GLU13      -0.1245
      2  CA        27.0590   39.0640  111.7270 C.3    13  GLU13       0.1567
      3  C         26.5890   39.4420  110.3230 C.2    13  GLU13       0.2260
      4  O         25.4910   39.0510  109.9230 O.2    13  GLU13      -0.2867
      5  CB        26.0350   39.5180  112.7990 C.3    13  GLU13       0.0388
      6  CG        25.4180   40.9040  112.5950 C.3    13  GLU13       0.1160
      7  CD        26.3510   42.1030  112.7880 C.2    13  GLU13       0.3649
      8  OE1       27.5830   41.9480  112.9710 O.co2  13  GLU13      -0.2457
      9  OE2       25.8220   43.2380  112.7560 O.co2  13  GLU13      -0.2457
     10  N         23.3530   37.5090  117.8390 N.3    90  HIS90      -0.1241
     11  CA        22.6060   38.5360  117.1080 C.3    90  HIS90       0.1621
     12  C         21.5990   37.8890  116.1590 C.2    90  HIS90       0.2264
     13  O         21.6810   38.0260  114.9360 O.2    90  HIS90      -0.2867
     14  CB        23.5800   39.4490  116.3600 C.3    90  HIS90       0.0745
     15  CG        23.0290   40.8090  116.0400 C.ar   90  HIS90       0.0817
     16  ND1       23.0530   41.8540  116.9400 N.ar   90  HIS90      -0.2268
     17  CD2       22.4510   41.2960  114.9130 C.ar   90  HIS90       0.1154
     18  CE1       22.5400   42.9330  116.3740 C.ar   90  HIS90       0.1986
     19  NE2       22.1400   42.6150  115.1540 N.ar   90  HIS90      -0.2212
     20  N         17.7480   37.2660  116.6410 N.3    92  TYR92      -0.1241
     21  CA        16.3060   37.4900  116.5160 C.3    92  TYR92       0.1605
     22  C         15.5000   36.2840  116.9910 C.2    92  TYR92       0.2264
     23  O         14.3900   36.0490  116.5110 O.2    92  TYR92      -0.2867
     24  CB        15.9400   37.8460  115.0630 C.3    92  TYR92       0.0534
     25  CG        16.8580   38.8960  114.5120 C.ar   92  TYR92      -0.0201
     26  CD1       16.6590   40.2310  114.7990 C.ar   92  TYR92      -0.0009
     27  CD2       17.9640   38.5460  113.7390 C.ar   92  TYR92      -0.0009
     28  CE1       17.5230   41.2060  114.3030 C.ar   92  TYR92       0.0417
     29  CE2       18.8360   39.5050  113.2560 C.ar   92  TYR92       0.0417
     30  CZ        18.6060   40.8320  113.5430 C.ar   92  TYR92       0.1957
     31  OH        19.4700   41.7830  113.0540 O.3    92  TYR92      -0.2866
     32  N         19.6990   38.9800  120.3980 N.3   134  ASN134     -0.1225
     33  CA        19.3500   40.2860  119.8710 C.3   134  ASN134      0.1785
     34  C         17.9340   40.2790  119.3020 C.2   134  ASN134      0.2597
     35  O         17.5950   39.4120  118.4950 O.2   134  ASN134     -0.2718
     36  CB        20.3350   40.6830  118.7720 C.3   134  ASN134      0.1169
     37  CG        19.9640   41.9930  118.1330 C.2   134  ASN134      0.2627
     38  OD1       19.9350   43.0250  118.8010 O.2   134  ASN134     -0.2716
     39  ND2       19.6560   41.9630  116.8440 N.am  134  ASN134     -0.0877
     40  N         17.1240   41.2430  119.7370 N.am  135  ALA135     -0.1979
     41  CA        15.8950   41.6490  119.0660 C.3   135  ALA135      0.1597
     42  C         15.0010   40.4890  118.6180 C.2   135  ALA135      0.2287
     43  O         14.7390   40.3300  117.4210 O.2   135  ALA135     -0.2864
     44  CB        16.2270   42.5510  117.8810 C.3   135  ALA135      0.0319
     45  N         11.4040   43.3670  118.7270 N.3   171  TRP171     -0.1241
     46  CA        12.7240   43.9650  118.4710 C.3   171  TRP171      0.1605
     47  C         13.2790   44.6630  119.7160 C.2   171  TRP171      0.2264
     48  O         14.0110   45.6440  119.6160 O.2   171  TRP171     -0.2867
     49  CB        12.6900   44.9400  117.2840 C.3   171  TRP171      0.0550
     50  CG        12.2000   44.3460  115.9810 C.ar  171  TRP171      0.0003
     51  CD1       12.9430   43.6940  115.0390 C.ar  171  TRP171      0.0946
     52  CD2       10.8550   44.3710  115.4860 C.ar  171  TRP171      0.0152
     53  NE1       12.1360   43.3060  113.9850 N.ar  171  TRP171     -0.2442
     54  CE2       10.8530   43.7150  114.2410 C.ar  171  TRP171      0.0810
     55  CE3        9.6560   44.9020  115.9740 C.ar  171  TRP171      0.0012
     56  CZ2        9.6920   43.5560  113.4790 C.ar  171  TRP171      0.0191
     57  CZ3        8.4960   44.7410  115.2140 C.ar  171  TRP171      0.0001
     58  CH2        8.5290   44.0740  113.9830 C.ar  171  TRP171      0.0015
     59  N         11.8840   46.6070  121.6570 N.3   173  SER173     -0.1217
     60  CA        11.4330   47.9890  121.6980 C.3   173  SER173      0.1889
     61  C         11.3740   48.5270  123.1210 C.2   173  SER173      0.2288
     62  O         10.6930   47.9660  123.9890 O.2   173  SER173     -0.2866
     63  CB        10.0500   48.1080  121.0440 C.3   173  SER173      0.2089
     64  OG         9.4980   49.3800  121.3280 O.3   173  SER173     -0.2183
     65  N          7.6810   50.0950  123.4810 N.3   176  ARG176     -0.1245
     66  CA         6.5920   49.1620  123.7010 C.3   176  ARG176      0.1563
     67  C          6.8980   48.1980  124.8310 C.2   176  ARG176      0.2260
     68  O          6.1250   47.2680  125.0610 O.2   176  ARG176     -0.2867
     69  CB         6.2800   48.3910  122.4140 C.3   176  ARG176      0.0307
     70  CG         5.8020   49.2840  121.2600 C.3   176  ARG176      0.0489
     71  CD         5.4230   48.4670  120.0210 C.3   176  ARG176      0.2205
     72  NE         6.5540   47.7390  119.4330 N.pl3 176  ARG176     -0.0865
     73  CZ         7.4370   48.2730  118.5910 C.cat 176  ARG176      0.5346
     74  NH1        7.3500   49.5570  118.2550 N.pl3 176  ARG176      0.1354
     75  NH2        8.4320   47.5280  118.1020 N.pl3 176  ARG176      0.1354
     76  N         15.9950   48.5410  123.0250 N.3   199  HIS199     -0.1241
     77  CA        16.5560   49.2710  121.9000 C.3   199  HIS199      0.1621
     78  C         15.6610   50.4520  121.5410 C.2   199  HIS199      0.2264
     79  O         14.4450   50.4110  121.7280 O.2   199  HIS199     -0.2867
     80  CB        16.7020   48.3830  120.6860 C.3   199  HIS199      0.0745
     81  CG        17.6260   47.2280  120.8800 C.ar  199  HIS199      0.0817
     82  ND1       17.7850   46.2460  119.9270 N.ar  199  HIS199     -0.2268
     83  CD2       18.4460   46.8970  121.9070 C.ar  199  HIS199      0.1154
     84  CE1       18.6620   45.3560  120.3610 C.ar  199  HIS199      0.1986
     85  NE2       19.0790   45.7290  121.5570 N.ar  199  HIS199     -0.2212
     86  N         15.2450   53.5190  118.4170 N.3   201  TYR201     -0.1241
     87  CA        15.5480   54.3450  117.2650 C.3   201  TYR201      0.1605
     88  C         14.4670   55.4100  117.1720 C.2   201  TYR201      0.2264
     89  O         13.3440   55.2050  117.6290 O.2   201  TYR201     -0.2867
     90  CB        15.5890   53.5130  115.9840 C.3   201  TYR201      0.0534
     91  CG        16.7330   52.5390  115.9810 C.ar  201  TYR201     -0.0201
     92  CD1       18.0060   52.9390  115.6000 C.ar  201  TYR201     -0.0009
     93  CD2       16.5530   51.2270  116.4130 C.ar  201  TYR201     -0.0009
     94  CE1       19.0620   52.0560  115.6030 C.ar  201  TYR201      0.0417
     95  CE2       17.6040   50.3320  116.4290 C.ar  201  TYR201      0.0417
     96  CZ        18.8590   50.7530  116.0220 C.ar  201  TYR201      0.1957
     97  OH        19.9240   49.8860  116.0150 O.3   201  TYR201     -0.2866
     98  N          8.8450   55.1490  112.6400 N.3   205  ASP205     -0.1225
     99  CA         8.4610   53.7720  112.9100 C.3   205  ASP205      0.1805
    100  C          9.4680   53.0410  113.8000 C.2   205  ASP205      0.2598
    101  O          9.3380   51.8290  113.9810 O.2   205  ASP205     -0.2718
    102  CB         8.2270   53.0140  111.5950 C.3   205  ASP205      0.1424
    103  CG         9.5050   52.7030  110.8320 C.2   205  ASP205      0.3668
    104  OD1       10.5880   53.1720  111.2200 O.co2 205  ASP205     -0.2456
    105  OD2        9.4170   51.9760  109.8150 O.co2 205  ASP205     -0.2456
    106  N         10.4600   53.7490  114.3410 N.am  206  ALA206     -0.1966
    107  CA        11.4550   53.2060  115.2750 C.3   206  ALA206      0.1728
    108  C         12.2510   52.0430  114.6780 C.2   206  ALA206      0.2616
    109  O         12.8570   51.2430  115.4100 O.2   206  ALA206     -0.2715
    110  CB        10.8020   52.7900  116.6010 C.3   206  ALA206      0.0334
    111  N         12.2830   51.9370  113.3500 N.am  207  SER207     -0.1950
    112  CA        13.0470   50.8860  112.7050 C.3   207  SER207      0.1924
    113  C         14.5280   51.2110  112.6100 C.2   207  SER207      0.2314
    114  O         15.3220   50.3010  112.3610 O.2   207  SER207     -0.2863
    115  CB        12.5130   50.6220  111.2990 C.3   207  SER207      0.2116
    116  OG        12.7460   51.7500  110.4670 O.3   207  SER207     -0.2180
    117  N         15.6300   52.8520  110.1890 N.3   209  SER209     -0.1217
    118  CA        15.8670   52.9850  108.7560 C.3   209  SER209      0.1889
    119  C         16.1570   54.4240  108.3720 C.2   209  SER209      0.2288
    120  O         16.9060   54.6660  107.4160 O.2   209  SER209     -0.2866
    121  CB        14.6580   52.4820  107.9720 C.3   209  SER209      0.2089
    122  OG        14.5070   51.0890  108.1320 O.3   209  SER209     -0.2183
    123  N         20.9480   49.2660  121.7800 N.3   245  GLU245     -0.1245
    124  CA        21.0410   49.8800  120.4610 C.3   245  GLU245      0.1567
    125  C         20.3370   51.2270  120.4540 C.2   245  GLU245      0.2260
    126  O         19.1930   51.3530  120.9080 O.2   245  GLU245     -0.2867
    127  CB        20.4310   48.9950  119.3620 C.3   245  GLU245      0.0388
    128  CG        21.1440   47.6960  119.1800 C.3   245  GLU245      0.1160
    129  CD        20.6460   46.9260  117.9860 C.2   245  GLU245      0.3649
    130  OE1       19.7860   47.4670  117.2320 O.co2 245  GLU245     -0.2457
    131  OE2       21.1100   45.7840  117.8170 O.co2 245  GLU245     -0.2457
    132  N         24.5480   52.3630  118.2130 N.3   276  TRP276     -0.1241
    133  CA        24.5480   51.5480  116.9950 C.3   276  TRP276      0.1605
    134  C         24.8230   52.4210  115.7810 C.2   276  TRP276      0.2264
    135  O         23.9530   53.1840  115.4220 O.2   276  TRP276     -0.2867
    136  CB        23.2010   50.8560  116.7700 C.3   276  TRP276      0.0550
    137  CG        23.2620   49.9530  115.5560 C.ar  276  TRP276      0.0003
    138  CD1       22.9740   50.2890  114.2610 C.ar  276  TRP276      0.0946
    139  CD2       23.6590   48.5780  115.5360 C.ar  276  TRP276      0.0152
    140  NE1       23.1800   49.2040  113.4370 N.ar  276  TRP276     -0.2442
    141  CE2       23.5980   48.1430  114.1980 C.ar  276  TRP276      0.0810
    142  CE3       24.0690   47.6710  116.5210 C.ar  276  TRP276      0.0012
    143  CZ2       23.9290   46.8440  113.8220 C.ar  276  TRP276      0.0191
    144  CZ3       24.4000   46.3890  116.1460 C.ar  276  TRP276      0.0001
    145  CH2       24.3220   45.9820  114.8060 C.ar  276  TRP276      0.0015
@<TRIPOS>BOND
     1   120   119    2
     2   121   122    1
     3   121   118    1
     4   119   118    1
     5   118   117    1
     6   105   103   ar
     7     4     3    2
     8     3     2    1
     9   116   115    1
    10   103   104   ar
    11   103   102    1
    12   115   112    1
    13   102    99    1
    14     2     1    1
    15     2     5    1
    16   114   113    2
    17     6     7    1
    18     6     5    1
    19   113   112    1
    20    98    99    1
    21   112   111    1
    22     9     7   ar
    23     7     8   ar
    24    99   100    1
    25    31    30    1
    26    29    30   ar
    27    29    27   ar
    28   111   108   am
    29   140   141   ar
    30   140   138   ar
    31    56    58   ar
    32    56    54   ar
    33    30    28   ar
    34    27    25   ar
    35   100   101    2
    36   100   106   am
    37   143   141   ar
    38   143   145   ar
    39    58    57   ar
    40    53    54   ar
    41    53    51   ar
    42   141   139   ar
    43    54    52   ar
    44   138   137   ar
    45    28    26   ar
    46   106   107    1
    47    25    26   ar
    48    25    24    1
    49   108   107    1
    50   108   109    2
    51   145   144   ar
    52    17    19   ar
    53    17    15   ar
    54    13    12    2
    55    51    50   ar
    56    24    21    1
    57    19    18   ar
    58    57    55   ar
    59   107   110    1
    60   135   134    2
    61    52    55   ar
    62    52    50   ar
    63   139   137   ar
    64   139   142   ar
    65   137   136    1
    66    92    94   ar
    67    92    91   ar
    68    94    96   ar
    69   134   133    1
    70    50    49    1
    71    91    90    1
    72    91    93   ar
    73    90    87    1
    74    97    96    1
    75    96    95   ar
    76    15    14    1
    77    15    16   ar
    78   144   142   ar
    79    12    11    1
    80    14    11    1
    81    18    16   ar
    82    93    95   ar
    83    23    22    2
    84    21    20    1
    85    21    22    1
    86   136   133    1
    87    39    37   am
    88   133   132    1
    89    11    10    1
    90    88    87    1
    91    88    89    2
    92   130   129   ar
    93    87    86    1
    94    49    46    1
    95    43    42    2
    96   131   129   ar
    97    44    41    1
    98   129   128    1
    99    75    73    1
   100    37    36    1
   101    37    38    2
   102    74    73    1
   103    46    45    1
   104    46    47    1
   105    35    34    2
   106    73    72    2
   107    42    41    1
   108    36    33    1
   109    41    40    1
   110   128   127    1
   111    34    40   am
   112    34    33    1
   113   127   124    1
   114    72    71    1
   115    48    47    2
   116    33    32    1
   117    82    84   ar
   118    82    81   ar
   119    71    70    1
   120    84    85   ar
   121   125   124    1
   122   125   126    2
   123   124   123    1
   124    80    81    1
   125    80    77    1
   126    81    83   ar
   127    63    64    1
   128    63    60    1
   129    70    69    1
   130    78    79    2
   131    78    77    1
   132    85    83   ar
   133    59    60    1
   134    60    61    1
   135    77    76    1
   136    69    66    1
   137    61    62    2
   138    65    66    1
   139    66    67    1
   140    67    68    2
