@<TRIPOS>MOLECULE
tmp/5ljgA00.pdb
 232 217 0 0 0
SMALL
GASTEIGER

@<TRIPOS>ATOM
      1  N         12.6220    1.9080   -9.5560 N.3    16  PHE16      -0.1241
      2  CA        11.4860    1.9600  -10.4860 C.3    16  PHE16       0.1605
      3  C         11.9000    1.5980  -11.9170 C.2    16  PHE16       0.2264
      4  O         11.1780    0.8770  -12.6010 O.2    16  PHE16      -0.2867
      5  CB        10.8620    3.3550  -10.4540 C.3    16  PHE16       0.0534
      6  CG         9.5260    3.4690  -11.1500 C.ar   16  PHE16      -0.0203
      7  CD1        8.5440    2.4820  -11.0260 C.ar   16  PHE16      -0.0042
      8  CD2        9.2370    4.5990  -11.8970 C.ar   16  PHE16      -0.0042
      9  CE1        7.3100    2.6230  -11.6600 C.ar   16  PHE16      -0.0003
     10  CE2        7.9960    4.7510  -12.5150 C.ar   16  PHE16      -0.0003
     11  CZ         7.0430    3.7540  -12.4050 C.ar   16  PHE16      -0.0000
     12  N         12.2310   -2.1420  -12.2570 N.3    19  TYR19      -0.1227
     13  CA        10.9020   -2.7210  -12.2480 C.3    19  TYR19       0.1736
     14  C         10.2710   -2.5970  -13.6390 C.2    19  TYR19       0.2595
     15  O          9.7670   -3.5740  -14.1850 O.2    19  TYR19      -0.2718
     16  CB        10.0680   -2.0260  -11.1610 C.3    19  TYR19       0.0548
     17  CG         8.6140   -2.4420  -11.1460 C.ar   19  TYR19      -0.0200
     18  CD1        8.1990   -3.5960  -10.4800 C.ar   19  TYR19      -0.0009
     19  CD2        7.6600   -1.6980  -11.8320 C.ar   19  TYR19      -0.0009
     20  CE1        6.8700   -3.9890  -10.4900 C.ar   19  TYR19       0.0417
     21  CE2        6.3310   -2.0760  -11.8510 C.ar   19  TYR19       0.0417
     22  CZ         5.9360   -3.2210  -11.1730 C.ar   19  TYR19       0.1957
     23  OH         4.6120   -3.5860  -11.2330 O.3    19  TYR19      -0.2866
     24  N         10.3340   -1.4070  -14.2290 N.am   20  LEU20      -0.1980
     25  CA         9.7310   -1.2250  -15.5480 C.3    20  LEU20       0.1596
     26  C         10.4740   -2.0320  -16.6080 C.2    20  LEU20       0.2287
     27  O          9.8590   -2.5670  -17.5330 O.2    20  LEU20      -0.2864
     28  CB         9.7090    0.2560  -15.9340 C.3    20  LEU20       0.0297
     29  CG         8.8280    1.1600  -15.0790 C.3    20  LEU20       0.0022
     30  CD1        8.9330    2.5940  -15.5780 C.3    20  LEU20       0.0001
     31  CD2        7.3810    0.6880  -15.0960 C.3    20  LEU20       0.0001
     32  N          9.1130   -2.6810  -20.7260 N.3    25  VAL25      -0.1245
     33  CA         8.8260   -1.3160  -21.1380 C.3    25  VAL25       0.1561
     34  C         10.0170   -0.8030  -21.9400 C.2    25  VAL25       0.2260
     35  O         11.1590   -0.9670  -21.5230 O.2    25  VAL25      -0.2867
     36  CB         8.5950   -0.4350  -19.8980 C.3    25  VAL25       0.0252
     37  CG1        8.4870    1.0200  -20.2800 C.3    25  VAL25       0.0019
     38  CG2        7.3400   -0.8930  -19.1360 C.3    25  VAL25       0.0019
     39  N          9.8200    4.9190  -23.1980 N.3    29  LEU29      -0.1245
     40  CA         8.8040    5.0090  -22.1450 C.3    29  LEU29       0.1561
     41  C          9.4630    5.0360  -20.7610 C.2    29  LEU29       0.2260
     42  O          9.0000    5.7270  -19.8410 O.2    29  LEU29      -0.2867
     43  CB         7.8220    3.8410  -22.2660 C.3    29  LEU29       0.0270
     44  CG         6.4410    3.9700  -21.6210 C.3    29  LEU29       0.0019
     45  CD1        5.7270    5.2060  -22.1280 C.3    29  LEU29       0.0001
     46  CD2        5.6060    2.7330  -21.9200 C.3    29  LEU29       0.0001
     47  N          9.2690    7.8780  -17.9310 N.3    33  ALA33      -0.1245
     48  CA         8.8370    7.4470  -16.6100 C.3    33  ALA33       0.1562
     49  C          9.8230    7.9410  -15.5550 C.2    33  ALA33       0.2260
     50  O          9.4600    8.1470  -14.3880 O.2    33  ALA33      -0.2867
     51  CB         8.6790    5.9450  -16.5450 C.3    33  ALA33       0.0290
     52  N          8.8470   11.1350  -13.7340 N.3    36  LEU36      -0.1245
     53  CA         7.6070   11.0540  -12.9590 C.3    36  LEU36       0.1561
     54  C          7.8140   10.8250  -11.4620 C.2    36  LEU36       0.2260
     55  O          8.7630   10.1770  -11.0410 O.2    36  LEU36      -0.2867
     56  CB         6.7120    9.9450  -13.5190 C.3    36  LEU36       0.0270
     57  CG         6.5040    9.9480  -15.0380 C.3    36  LEU36       0.0019
     58  CD1        5.5570    8.8590  -15.4450 C.3    36  LEU36       0.0001
     59  CD2        5.9890   11.2810  -15.5120 C.3    36  LEU36       0.0001
     60  N          4.8340    9.6350   -9.2950 N.3    38  PRO38      -0.2116
     61  CA         3.4020    9.3930   -9.2170 C.3    38  PRO38       0.1372
     62  C          2.8860    9.4230   -7.7940 C.2    38  PRO38       0.2244
     63  O          3.5410    8.9530   -6.8670 O.2    38  PRO38      -0.2868
     64  CB         3.2590    7.9910   -9.8140 C.3    38  PRO38       0.0268
     65  CG         4.5320    7.7670  -10.6520 C.3    38  PRO38       0.0207
     66  CD         5.5710    8.5030   -9.8750 C.3    38  PRO38       0.0892
     67  N         -0.6290    8.8030   -5.0590 N.3    40  LYS40      -0.1245
     68  CA        -1.7320    7.8610   -4.8530 C.3    40  LYS40       0.1561
     69  C         -2.9400    8.5830   -4.3160 C.2    40  LYS40       0.2260
     70  O         -2.8730    9.1820   -3.2410 O.2    40  LYS40      -0.2867
     71  CB        -1.3500    6.7580   -3.8740 C.3    40  LYS40       0.0271
     72  CG        -0.1320    5.9510   -4.2830 C.3    40  LYS40       0.0035
     73  CD        -0.3960    5.0140   -5.4440 C.3    40  LYS40       0.0206
     74  CE         0.8970    4.3870   -5.9340 C.3    40  LYS40       0.1093
     75  NZ         0.6790    3.3220   -6.9270 N.3    40  LYS40      -0.1314
     76  N         -7.8530    2.8240   -6.1860 N.3    51  ILE51      -0.1245
     77  CA        -6.4970    3.3360   -6.0470 C.3    51  ILE51       0.1561
     78  C         -6.1420    3.9720   -7.3820 C.2    51  ILE51       0.2260
     79  O         -5.9640    3.2870   -8.3830 O.2    51  ILE51      -0.2867
     80  CB        -5.4690    2.2300   -5.7020 C.3    51  ILE51       0.0252
     81  CG1       -5.8590    1.4790   -4.4180 C.3    51  ILE51       0.0019
     82  CG2       -4.0670    2.8540   -5.5660 C.3    51  ILE51       0.0019
     83  CD1       -4.9570    0.3180   -4.0890 C.3    51  ILE51       0.0001
     84  N         -3.3490    5.8610   -9.3370 N.3    53  THR53      -0.1218
     85  CA        -1.9460    6.2410   -9.4000 C.3    53  THR53       0.1862
     86  C         -1.8600    7.3650  -10.4220 C.2    53  THR53       0.2287
     87  O         -2.1670    7.1630  -11.5900 O.2    53  THR53      -0.2866
     88  CB        -1.0440    5.0490   -9.7880 C.3    53  THR53       0.1770
     89  OG1       -1.2080    4.0020   -8.8290 O.3    53  THR53      -0.2211
     90  CG2        0.4080    5.4540   -9.8100 C.3    53  THR53       0.0375
     91  N         -0.0080   10.5310  -12.4060 N.3    55  SER55      -0.1217
     92  CA         1.2060   11.1950  -12.8560 C.3    55  SER55       0.1889
     93  C          0.9020   12.1610  -13.9780 C.2    55  SER55       0.2288
     94  O         -0.1880   12.1150  -14.5640 O.2    55  SER55      -0.2866
     95  CB         2.2910   10.2000  -13.2850 C.3    55  SER55       0.2089
     96  OG         2.1650    9.8020  -14.6490 O.3    55  SER55      -0.2183
     97  N          2.1920   12.1640  -16.8100 N.3    57  PHE57      -0.1227
     98  CA         2.1760   11.4570  -18.0940 C.3    57  PHE57       0.1736
     99  C          0.8700   10.7030  -18.2410 C.2    57  PHE57       0.2595
    100  O          0.0050   11.1110  -19.0070 O.2    57  PHE57      -0.2718
    101  CB         3.4020   10.5470  -18.2020 C.3    57  PHE57       0.0547
    102  CG         3.4130    9.6340  -19.4170 C.ar   57  PHE57      -0.0202
    103  CD1        3.2830   10.1390  -20.6990 C.ar   57  PHE57      -0.0042
    104  CD2        3.5940    8.2650  -19.2690 C.ar   57  PHE57      -0.0042
    105  CE1        3.3270    9.3050  -21.7990 C.ar   57  PHE57      -0.0003
    106  CE2        3.6270    7.4370  -20.3660 C.ar   57  PHE57      -0.0003
    107  CZ         3.4860    7.9620  -21.6270 C.ar   57  PHE57      -0.0000
    108  N          0.6930    9.6490  -17.4590 N.am   58  ARG58      -0.1966
    109  CA        -0.4670    8.8110  -17.5260 C.3    58  ARG58       0.1729
    110  C         -0.8590    8.4070  -16.1080 C.2    58  ARG58       0.2616
    111  O         -0.0150    8.3000  -15.2290 O.2    58  ARG58      -0.2715
    112  CB        -0.0580    7.5970  -18.3580 C.3    58  ARG58       0.0348
    113  CG        -1.0810    6.5720  -18.6600 C.3    58  ARG58       0.0492
    114  CD        -0.4470    5.5540  -19.6100 C.3    58  ARG58       0.2205
    115  NE        -0.2260    6.0900  -20.9530 N.pl3  58  ARG58      -0.0865
    116  CZ         0.7040    5.6630  -21.8100 C.cat  58  ARG58       0.5346
    117  NH1        1.5530    4.6880  -21.4780 N.pl3  58  ARG58       0.1354
    118  NH2        0.7960    6.2260  -23.0110 N.pl3  58  ARG58       0.1354
    119  N         -2.1470    8.1840  -15.9020 N.am   59  ASN59      -0.1958
    120  CA        -2.6420    7.6110  -14.6740 C.3    59  ASN59       0.1819
    121  C         -2.8610    6.1060  -14.8520 C.2    59  ASN59       0.2621
    122  O         -3.0150    5.6150  -15.9700 O.2    59  ASN59      -0.2715
    123  CB        -3.9570    8.2580  -14.2760 C.3    59  ASN59       0.1195
    124  CG        -3.8520    9.7590  -14.1090 C.2    59  ASN59       0.2630
    125  OD1       -2.8240   10.3030  -13.7230 O.2    59  ASN59      -0.2716
    126  ND2       -4.9320   10.4360  -14.3970 N.am   59  ASN59      -0.0877
    127  N         -2.8730    5.3770  -13.7530 N.am   60  TYR60      -0.1974
    128  CA        -3.2990    3.9750  -13.7650 C.3    60  TYR60       0.1639
    129  C         -4.3020    3.8080  -12.6410 C.2    60  TYR60       0.2290
    130  O         -4.0030    4.1010  -11.4930 O.2    60  TYR60      -0.2864
    131  CB        -2.1200    3.0040  -13.5950 C.3    60  TYR60       0.0560
    132  CG        -2.6350    1.5820  -13.5500 C.ar   60  TYR60      -0.0198
    133  CD1       -3.2760    1.0420  -14.6450 C.ar   60  TYR60      -0.0009
    134  CD2       -2.5210    0.8030  -12.4020 C.ar   60  TYR60      -0.0009
    135  CE1       -3.8050   -0.2410  -14.6020 C.ar   60  TYR60       0.0417
    136  CE2       -3.0250   -0.4790  -12.3620 C.ar   60  TYR60       0.0417
    137  CZ        -3.6700   -0.9940  -13.4640 C.ar   60  TYR60       0.1957
    138  OH        -4.2360   -2.2460  -13.4600 O.3    60  TYR60      -0.2866
    139  N         -7.0140    1.5590  -10.4340 N.3    62  MET62      -0.1245
    140  CA        -7.5440    0.2820   -9.9650 C.3    62  MET62       0.1570
    141  C         -8.8570    0.5160   -9.2340 C.2    62  MET62       0.2261
    142  O         -9.0050    1.4910   -8.4870 O.2    62  MET62      -0.2867
    143  CB        -6.5700   -0.4070   -9.0100 C.3    62  MET62       0.0387
    144  CG        -5.2100   -0.7450   -9.6030 C.3    62  MET62       0.0595
    145  SD        -4.2620   -1.7740   -8.4770 S.3    62  MET62      -0.1393
    146  CE        -5.0850   -3.3500   -8.6770 C.3    62  MET62       0.0692
    147  N         -7.4510   -7.9010  -14.5520 N.3    72  GLU72      -0.1245
    148  CA        -6.8340   -6.5960  -14.5000 C.3    72  GLU72       0.1567
    149  C         -6.2290   -6.2580  -15.8460 C.2    72  GLU72       0.2260
    150  O         -5.4460   -7.0220  -16.3980 O.2    72  GLU72      -0.2867
    151  CB        -5.7360   -6.6100  -13.4500 C.3    72  GLU72       0.0388
    152  CG        -5.1640   -5.2170  -13.1580 C.3    72  GLU72       0.1160
    153  CD        -3.9880   -5.2250  -12.2020 C.2    72  GLU72       0.3649
    154  OE1       -3.4530   -6.3080  -11.8610 O.co2  72  GLU72      -0.2457
    155  OE2       -3.5620   -4.1260  -11.8050 O.co2  72  GLU72      -0.2457
    156  N         -3.7960   -3.8270  -17.6380 N.3    74  LEU74      -0.1245
    157  CA        -2.6860   -2.9300  -17.3360 C.3    74  LEU74       0.1561
    158  C         -2.3150   -2.0280  -18.5160 C.2    74  LEU74       0.2260
    159  O         -1.1670   -1.6600  -18.7020 O.2    74  LEU74      -0.2867
    160  CB        -1.5000   -3.7600  -16.8550 C.3    74  LEU74       0.0270
    161  CG        -1.8010   -4.3920  -15.4870 C.3    74  LEU74       0.0019
    162  CD1       -1.4270   -5.8590  -15.4430 C.3    74  LEU74       0.0001
    163  CD2       -1.1250   -3.6150  -14.3710 C.3    74  LEU74       0.0001
    164  N         -1.4630    1.0220  -20.5330 N.3    76  GLY76      -0.1210
    165  CA        -0.7170    2.1990  -20.1470 C.3    76  GLY76       0.1956
    166  C          0.5870    1.8780  -19.4430 C.2    76  GLY76       0.2611
    167  O          1.5000    2.7220  -19.4340 O.2    76  GLY76      -0.2717
    168  N          0.6740    0.6870  -18.8370 N.am   77  ILE77      -0.1979
    169  CA         1.8930    0.2410  -18.1780 C.3    77  ILE77       0.1595
    170  C          2.5910   -0.6710  -19.1670 C.2    77  ILE77       0.2287
    171  O          3.4170   -0.2070  -19.9530 O.2    77  ILE77      -0.2864
    172  CB         1.6030   -0.4610  -16.8380 C.3    77  ILE77       0.0276
    173  CG1        0.8170    0.4730  -15.9240 C.3    77  ILE77       0.0022
    174  CG2        2.9270   -0.9080  -16.1730 C.3    77  ILE77       0.0022
    175  CD1        0.3770   -0.1660  -14.6650 C.3    77  ILE77       0.0001
    176  N         -0.6480  -10.8850   -9.0700 N.3    97  GLN97      -0.1245
    177  CA        -1.0430  -10.6270  -10.4470 C.3    97  GLN97       0.1566
    178  C         -0.5720  -11.8000  -11.2960 C.2    97  GLN97       0.2260
    179  O          0.5870  -11.8450  -11.7250 O.2    97  GLN97      -0.2867
    180  CB        -0.4130   -9.3380  -10.9600 C.3    97  GLN97       0.0367
    181  CG        -0.8810   -8.1280  -10.1920 C.3    97  GLN97       0.0905
    182  CD        -0.0700   -6.8890  -10.4980 C.2    97  GLN97       0.2608
    183  OE1        1.0690   -6.7550  -10.0650 O.2    97  GLN97      -0.2717
    184  NE2       -0.6570   -5.9780  -11.2490 N.am   97  GLN97      -0.0878
    185  N          2.2260   -6.8750   -5.4710 N.3   106  TRP106     -0.1241
    186  CA         2.6000   -5.7520   -4.6270 C.3   106  TRP106      0.1605
    187  C          2.0460   -5.9270   -3.2240 C.2   106  TRP106      0.2264
    188  O          1.1490   -6.7390   -2.9930 O.2   106  TRP106     -0.2867
    189  CB         2.2110   -4.3960   -5.2420 C.3   106  TRP106      0.0550
    190  CG         0.8010   -4.2250   -5.7060 C.ar  106  TRP106      0.0003
    191  CD1        0.3750   -4.2820   -6.9940 C.ar  106  TRP106      0.0946
    192  CD2       -0.3620   -3.9510   -4.9050 C.ar  106  TRP106      0.0152
    193  NE1       -0.9710   -4.0540   -7.0580 N.ar  106  TRP106     -0.2442
    194  CE2       -1.4480   -3.8470   -5.7920 C.ar  106  TRP106      0.0810
    195  CE3       -0.5880   -3.7770   -3.5320 C.ar  106  TRP106      0.0012
    196  CZ2       -2.7350   -3.5770   -5.3600 C.ar  106  TRP106      0.0191
    197  CZ3       -1.8780   -3.5090   -3.1010 C.ar  106  TRP106      0.0001
    198  CH2       -2.9300   -3.4200   -4.0150 C.ar  106  TRP106      0.0015
    199  N          0.9350   -3.3040    0.1320 N.3   108  GLN108     -0.1245
    200  CA         0.6830   -1.9260    0.5470 C.3   108  GLN108      0.1566
    201  C          0.2970   -1.9060    2.0270 C.2   108  GLN108      0.2260
    202  O         -0.4970   -2.7350    2.4730 O.2   108  GLN108     -0.2867
    203  CB        -0.4580   -1.3510   -0.2780 C.3   108  GLN108      0.0367
    204  CG        -0.8780    0.0640    0.1090 C.3   108  GLN108      0.0905
    205  CD        -2.0060    0.5510   -0.7650 C.2   108  GLN108      0.2608
    206  OE1       -1.8100    0.7560   -1.9520 O.2   108  GLN108     -0.2717
    207  NE2       -3.2010    0.6820   -0.2000 N.am  108  GLN108     -0.0878
    208  N          4.5430    1.0870   -0.2030 N.3   117  LEU117     -0.1245
    209  CA         4.2160    0.2030   -1.3150 C.3   117  LEU117      0.1561
    210  C          5.4850   -0.5040   -1.7590 C.2   117  LEU117      0.2260
    211  O          6.5070    0.1370   -1.9970 O.2   117  LEU117     -0.2867
    212  CB         3.6300    1.0000   -2.4790 C.3   117  LEU117      0.0270
    213  CG         3.2630    0.2090   -3.7260 C.3   117  LEU117      0.0019
    214  CD1        2.1320   -0.7600   -3.4510 C.3   117  LEU117      0.0001
    215  CD2        2.8900    1.1280   -4.8610 C.3   117  LEU117      0.0001
    216  N          6.4590   -2.9410   -4.8710 N.3   119  MET119     -0.1245
    217  CA         6.0490   -3.5520   -6.1300 C.3   119  MET119      0.1570
    218  C          7.0830   -4.5760   -6.5280 C.2   119  MET119      0.2261
    219  O          8.2820   -4.3140   -6.4370 O.2   119  MET119     -0.2867
    220  CB         5.8990   -2.5270   -7.2460 C.3   119  MET119      0.0387
    221  CG         4.8560   -1.4500   -6.9640 C.3   119  MET119      0.0595
    222  SD         4.4300   -0.4330   -8.3940 S.3   119  MET119     -0.1393
    223  CE         6.0260    0.2540   -8.7880 C.3   119  MET119      0.0692
    224  N          8.2860    2.2670   -2.7570 N.3   128  GLN128     -0.1245
    225  CA         7.7160    3.6060   -2.7950 C.3   128  GLN128      0.1566
    226  C          7.1100    3.9430   -1.4420 C.2   128  GLN128      0.2260
    227  O          6.5750    3.0780   -0.7640 O.2   128  GLN128     -0.2867
    228  CB         6.6940    3.7610   -3.9170 C.3   128  GLN128      0.0367
    229  CG         7.2960    3.5020   -5.2700 C.3   128  GLN128      0.0905
    230  CD         6.3140    3.6280   -6.4060 C.2   128  GLN128      0.2608
    231  OE1        5.1040    3.6020   -6.2070 O.2   128  GLN128     -0.2717
    232  NE2        6.8450    3.7900   -7.6210 N.am  128  GLN128     -0.0878
@<TRIPOS>BOND
     1    39    40    1
     2   118   116    1
     3    43    40    1
     4    43    44    1
     5    40    41    1
     6    45    44    1
     7    34    35    2
     8    34    33    1
     9    46    44    1
    10   116   117    1
    11   116   115    2
    12   105   107   ar
    13   105   103   ar
    14   107   106   ar
    15    33    32    1
    16    33    36    1
    17   115   114    1
    18    41    42    2
    19   103   102   ar
    20   164   165    1
    21   106   104   ar
    22    37    36    1
    23   165   166    1
    24   171   170    2
    25    36    38    1
    26   114   113    1
    27   166   167    2
    28   166   168   am
    29   102   104   ar
    30   102   101    1
    31   170   169    1
    32   100    99    2
    33   168   169    1
    34   159   158    2
    35   113   112    1
    36   158   157    1
    37   112   109    1
    38    99    98    1
    39    99   108   am
    40   101    98    1
    41   169   172    1
    42    98    97    1
    43    47    48    1
    44   156   157    1
    45    27    26    2
    46   109   108    1
    47   109   110    1
    48   157   160    1
    49   160   161    1
    50   172   174    1
    51   172   173    1
    52    48    51    1
    53    48    49    1
    54    26    25    1
    55   150   149    2
    56   110   119   am
    57   110   111    2
    58   122   121    2
    59    28    25    1
    60    28    29    1
    61   173   175    1
    62   119   120    1
    63   149   148    1
    64    30    29    1
    65    49    50    2
    66    25    24    1
    67    59    57    1
    68   161   162    1
    69   161   163    1
    70    58    57    1
    71    31    29    1
    72    57    56    1
    73   121   120    1
    74   121   127   am
    75   120   123    1
    76    96    95    1
    77   133   135   ar
    78   133   132   ar
    79   135   137   ar
    80    94    93    2
    81   147   148    1
    82   148   151    1
    83   126   124   am
    84   123   124    1
    85    24    14   am
    86    15    14    2
    87   124   125    2
    88    93    92    1
    89   128   127    1
    90   128   131    1
    91   128   129    1
    92    52    53    1
    93    14    13    1
    94   131   132    1
    95   132   134   ar
    96    56    53    1
    97   137   138    1
    98   137   136   ar
    99   151   152    1
   100    95    92    1
   101   152   153    1
   102    53    54    1
   103    92    91    1
   104   129   130    2
   105     4     3    2
   106    10    11   ar
   107    10     8   ar
   108    11     9   ar
   109   134   136   ar
   110    12    13    1
   111    13    16    1
   112   153   154   ar
   113   153   155   ar
   114     3     2    1
   115     8     6   ar
   116    21    19   ar
   117    21    22   ar
   118    19    17   ar
   119   179   178    2
   120     9     7   ar
   121    87    86    2
   122    54    55    2
   123   178   177    1
   124   184   182   am
   125    23    22    1
   126    22    20   ar
   127    16    17    1
   128     6     7   ar
   129     6     5    1
   130    17    18   ar
   131   180   177    1
   132   180   181    1
   133    65    66    1
   134    65    64    1
   135   182   181    1
   136   182   183    2
   137    20    18   ar
   138     2     5    1
   139     2     1    1
   140   177   176    1
   141   139   140    1
   142    86    85    1
   143   140   141    1
   144   140   143    1
   145    66    60    1
   146    64    61    1
   147    90    88    1
   148    88    85    1
   149    88    89    1
   150   144   143    1
   151   144   145    1
   152    85    84    1
   153    60    61    1
   154   141   142    2
   155    61    62    1
   156   223   222    1
   157   146   145    1
   158   222   221    1
   159    79    78    2
   160    62    63    2
   161   232   230   am
   162    78    77    1
   163   220   221    1
   164   220   217    1
   165   193   191   ar
   166   193   194   ar
   167   191   190   ar
   168    75    74    1
   169   218   219    2
   170   218   217    1
   171   230   231    2
   172   230   229    1
   173    76    77    1
   174   217   216    1
   175    77    80    1
   176    74    73    1
   177   194   196   ar
   178   194   192   ar
   179   190   189    1
   180   190   192   ar
   181    80    82    1
   182    80    81    1
   183   185   186    1
   184    73    72    1
   185   196   198   ar
   186   229   228    1
   187   189   186    1
   188    67    68    1
   189   192   195   ar
   190   215   213    1
   191    68    69    1
   192    68    71    1
   193   186   187    1
   194    81    83    1
   195    69    70    2
   196    72    71    1
   197   198   197   ar
   198   228   225    1
   199   213   214    1
   200   213   212    1
   201   195   197   ar
   202   187   188    2
   203   225   224    1
   204   225   226    1
   205   212   209    1
   206   211   210    2
   207   206   205    2
   208   210   209    1
   209   226   227    2
   210   209   208    1
   211   205   207   am
   212   205   204    1
   213   203   204    1
   214   203   200    1
   215   199   200    1
   216   200   201    1
   217   201   202    2
