@<TRIPOS>MOLECULE
tmp/5ljiA00.pdb
 127 123 0 0 0
SMALL
GASTEIGER

@<TRIPOS>ATOM
      1  N          1.8130  -33.3450  -21.8270 N.3     9  SER9       -0.1217
      2  CA         0.7210  -34.1570  -21.3140 C.3     9  SER9        0.1889
      3  C          1.1590  -35.6070  -21.2360 C.2     9  SER9        0.2288
      4  O          1.6220  -36.1750  -22.2240 O.2     9  SER9       -0.2866
      5  CB        -0.5080  -34.0540  -22.2120 C.3     9  SER9        0.2089
      6  OG        -1.6140  -34.7280  -21.6000 O.3     9  SER9       -0.2183
      7  N         -0.9850  -38.0320  -19.5470 N.3    10  THR10      -0.1218
      8  CA        -2.1750  -38.8460  -19.6270 C.3    10  THR10       0.1862
      9  C         -3.2790  -38.1660  -20.3940 C.2    10  THR10       0.2287
     10  O         -4.4150  -38.5720  -20.3020 O.2    10  THR10      -0.2866
     11  CB        -2.6710  -39.2190  -18.2050 C.3    10  THR10       0.1770
     12  OG1       -3.2170  -38.0760  -17.5430 O.3    10  THR10      -0.2211
     13  CG2       -1.5200  -39.7680  -17.3780 C.3    10  THR10       0.0375
     14  N         -4.9690  -35.1820  -20.3110 N.3    12  ASN12      -0.1225
     15  CA        -5.8440  -34.0470  -19.9600 C.3    12  ASN12       0.1785
     16  C         -5.3620  -32.7210  -20.5520 C.2    12  ASN12       0.2597
     17  O         -6.1380  -31.9820  -21.0740 O.2    12  ASN12      -0.2718
     18  CB        -6.0110  -33.8980  -18.4560 C.3    12  ASN12       0.1169
     19  CG        -6.7140  -35.0860  -17.8360 C.2    12  ASN12       0.2627
     20  OD1       -7.6040  -35.6390  -18.4300 O.2    12  ASN12      -0.2716
     21  ND2       -6.3150  -35.4600  -16.6380 N.am   12  ASN12      -0.0877
     22  N         -4.0630  -32.4560  -20.5000 N.am   13  THR13      -0.1953
     23  CA        -3.5190  -31.1750  -21.0120 C.3    13  THR13       0.1897
     24  C         -3.5520  -31.0660  -22.5490 C.2    13  THR13       0.2313
     25  O         -3.7700  -29.9850  -23.0950 O.2    13  THR13      -0.2863
     26  CB        -2.1270  -30.9390  -20.4600 C.3    13  THR13       0.1794
     27  OG1       -2.1830  -31.0330  -19.0280 O.3    13  THR13      -0.2208
     28  CG2       -1.6060  -29.5520  -20.8580 C.3    13  THR13       0.0378
     29  N          0.6720  -29.4070  -17.4350 N.3    55  TYR55      -0.1227
     30  CA         0.1830  -29.9760  -16.1840 C.3    55  TYR55       0.1736
     31  C          1.2110  -29.6280  -15.0850 C.2    55  TYR55       0.2596
     32  O          2.2790  -29.0660  -15.3800 O.2    55  TYR55      -0.2718
     33  CB        -0.0890  -31.5090  -16.2400 C.3    55  TYR55       0.0548
     34  CG         1.0900  -32.4020  -16.5740 C.ar   55  TYR55      -0.0200
     35  CD1        1.5400  -32.5660  -17.9040 C.ar   55  TYR55      -0.0009
     36  CD2        1.7740  -33.0920  -15.5750 C.ar   55  TYR55      -0.0009
     37  CE1        2.6580  -33.4090  -18.1990 C.ar   55  TYR55       0.0417
     38  CE2        2.8420  -33.9380  -15.8860 C.ar   55  TYR55       0.0417
     39  CZ         3.2820  -34.0970  -17.1870 C.ar   55  TYR55       0.1957
     40  OH         4.3680  -34.9520  -17.4540 O.3    55  TYR55      -0.2866
     41  N          0.8610  -29.9410  -13.8480 N.am   56  THR56      -0.1939
     42  CA         1.7870  -29.7750  -12.7170 C.3    56  THR56       0.2028
     43  C          2.0220  -31.0790  -11.9920 C.2    56  THR56       0.2642
     44  O          1.1630  -31.9650  -11.9100 O.2    56  THR56      -0.2714
     45  CB         1.6280  -28.4680  -11.8770 C.3    56  THR56       0.1808
     46  OG1        1.7540  -28.6580  -10.4180 O.3    56  THR56      -0.2208
     47  CG2        0.4930  -27.6320  -12.2360 C.3    56  THR56       0.0379
     48  N          3.2660  -31.2770  -11.6470 N.am   57  TYR57      -0.1959
     49  CA         3.6730  -32.6080  -11.2370 C.3    57  TYR57       0.1771
     50  C          4.6820  -32.5130  -10.0870 C.2    57  TYR57       0.2620
     51  O          5.8090  -32.1080  -10.2860 O.2    57  TYR57      -0.2715
     52  CB         4.2790  -33.3320  -12.4470 C.3    57  TYR57       0.0574
     53  CG         4.2710  -34.8370  -12.2970 C.ar   57  TYR57      -0.0198
     54  CD1        3.0770  -35.5580  -12.3250 C.ar   57  TYR57      -0.0009
     55  CD2        5.4650  -35.5430  -12.1040 C.ar   57  TYR57      -0.0009
     56  CE1        3.0750  -36.9410  -12.1740 C.ar   57  TYR57       0.0417
     57  CE2        5.4710  -36.9210  -11.9520 C.ar   57  TYR57       0.0417
     58  CZ         4.2760  -37.6170  -11.9840 C.ar   57  TYR57       0.1957
     59  OH         4.2900  -39.0050  -11.8550 O.3    57  TYR57      -0.2866
     60  N          4.2350  -32.7690   -8.8750 N.am   58  GLY58      -0.1954
     61  CA         5.1420  -32.7400   -7.6980 C.3    58  GLY58       0.1869
     62  C          5.5680  -31.3530   -7.2330 C.2    58  GLY58       0.2309
     63  O          5.1470  -30.2990   -7.7860 O.2    58  GLY58      -0.2863
     64  N         -3.7090  -28.2550  -16.6750 N.3    86  SER86      -0.1202
     65  CA        -4.4510  -29.2050  -15.9180 C.3    86  SER86       0.2020
     66  C         -3.6340  -29.5460  -14.6870 C.2    86  SER86       0.2619
     67  O         -2.4300  -29.7060  -14.7240 O.2    86  SER86      -0.2717
     68  CB        -4.7190  -30.5060  -16.6740 C.3    86  SER86       0.2103
     69  OG        -5.5090  -31.3840  -15.8950 O.3    86  SER86      -0.2182
     70  N         -4.3410  -29.6410  -13.5840 N.am   87  GLY87      -0.1942
     71  CA        -3.7960  -30.1250  -12.3280 C.3    87  GLY87       0.2014
     72  C         -4.8990  -30.9120  -11.6150 C.2    87  GLY87       0.2638
     73  O         -5.7680  -31.5130  -12.2690 O.2    87  GLY87      -0.2714
     74  N         -4.8470  -30.8670  -10.2890 N.am   88  ASP88      -0.1971
     75  CA        -5.6660  -31.6860   -9.4060 C.3    88  ASP88       0.1709
     76  C         -5.8290  -30.9250   -8.0700 C.2    88  ASP88       0.2293
     77  O         -4.8840  -30.7370   -7.3170 O.2    88  ASP88      -0.2864
     78  CB        -4.9940  -33.0500   -9.1630 C.3    88  ASP88       0.1436
     79  CG        -5.8780  -34.0160   -8.3580 C.2    88  ASP88       0.3671
     80  OD1       -6.8590  -33.5830   -7.7330 O.co2  88  ASP88      -0.2456
     81  OD2       -5.5650  -35.2180   -8.3760 O.co2  88  ASP88      -0.2456
     82  N         -4.2750  -30.9790   -4.4800 N.3    91  TYR91      -0.1241
     83  CA        -3.0900  -30.1920   -4.0950 C.3    91  TYR91       0.1605
     84  C         -3.4710  -28.7220   -3.8160 C.2    91  TYR91       0.2264
     85  O         -4.3250  -28.1350   -4.4960 O.2    91  TYR91      -0.2867
     86  CB        -2.0170  -30.3160   -5.1960 C.3    91  TYR91       0.0534
     87  CG        -1.7090  -31.7670   -5.5260 C.ar   91  TYR91      -0.0201
     88  CD1       -2.4140  -32.4590   -6.5370 C.ar   91  TYR91      -0.0009
     89  CD2       -0.7890  -32.4680   -4.8010 C.ar   91  TYR91      -0.0009
     90  CE1       -2.1680  -33.8020   -6.8080 C.ar   91  TYR91       0.0417
     91  CE2       -0.5280  -33.8030   -5.0720 C.ar   91  TYR91       0.0417
     92  CZ        -1.2420  -34.4640   -6.0580 C.ar   91  TYR91       0.1957
     93  OH        -0.9780  -35.7720   -6.3080 O.3    91  TYR91      -0.2866
     94  N         -1.1150  -26.6720   -4.2180 N.3    93  GLU93      -0.1231
     95  CA        -0.3310  -26.1500   -5.3770 C.3    93  GLU93       0.1699
     96  C         -1.0180  -26.4540   -6.6880 C.2    93  GLU93       0.2592
     97  O         -0.4270  -27.0290   -7.5970 O.2    93  GLU93      -0.2718
     98  CB         1.1130  -26.6880   -5.4130 C.3    93  GLU93       0.0402
     99  CG         1.8440  -26.6040   -4.0870 C.3    93  GLU93       0.1161
    100  CD         1.5480  -27.8100   -3.1910 C.2    93  GLU93       0.3649
    101  OE1        0.4280  -28.4270   -3.2790 O.co2  93  GLU93      -0.2457
    102  OE2        2.4370  -28.1360   -2.3700 O.co2  93  GLU93      -0.2457
    103  N         -2.2560  -25.9790   -6.7880 N.am   94  PHE94      -0.1962
    104  CA        -3.1740  -26.3060   -7.8540 C.3    94  PHE94       0.1771
    105  C         -2.7560  -25.5690   -9.0850 C.2    94  PHE94       0.2619
    106  O         -2.7440  -24.3290   -9.0770 O.2    94  PHE94      -0.2715
    107  CB        -4.5770  -25.8490   -7.5170 C.3    94  PHE94       0.0574
    108  CG        -5.5710  -26.1200   -8.6100 C.ar   94  PHE94      -0.0200
    109  CD1       -5.7140  -27.3930   -9.1110 C.ar   94  PHE94      -0.0042
    110  CD2       -6.3140  -25.0990   -9.1640 C.ar   94  PHE94      -0.0042
    111  CE1       -6.5860  -27.6500  -10.1450 C.ar   94  PHE94      -0.0003
    112  CE2       -7.2270  -25.3370  -10.1770 C.ar   94  PHE94      -0.0003
    113  CZ        -7.3750  -26.6210  -10.6640 C.ar   94  PHE94      -0.0000
    114  N         -2.3740  -26.3260  -10.1200 N.am   95  CYS95      -0.1968
    115  CA        -1.9300  -25.7620  -11.4100 C.3    95  CYS95       0.1712
    116  C         -0.8110  -24.7570  -11.2300 C.2    95  CYS95       0.2296
    117  O         -0.6460  -23.8320  -12.0040 O.2    95  CYS95      -0.2864
    118  CB        -3.1110  -25.1800  -12.1530 C.3    95  CYS95       0.0983
    119  SG        -4.0580  -26.4910  -12.9130 S.3    95  CYS95      -0.0798
    120  N         -8.0620  -31.6150  -13.2500 N.3   121  LEU121     -0.1245
    121  CA        -8.0590  -32.8870  -13.9710 C.3   121  LEU121      0.1561
    122  C         -8.6090  -32.7540  -15.3980 C.2   121  LEU121      0.2260
    123  O         -8.0610  -31.9620  -16.1960 O.2   121  LEU121     -0.2867
    124  CB        -8.7210  -34.0000  -13.1390 C.3   121  LEU121      0.0270
    125  CG        -7.8840  -34.2990  -11.8830 C.3   121  LEU121      0.0019
    126  CD1       -8.7120  -35.0870  -10.8720 C.3   121  LEU121      0.0001
    127  CD2       -6.6250  -35.0730  -12.1940 C.3   121  LEU121      0.0001
@<TRIPOS>BOND
     1    25    24    2
     2    24    23    1
     3     4     3    2
     4     5     6    1
     5     5     2    1
     6     1     2    1
     7     2     3    1
     8    17    16    2
     9    23    22    1
    10    23    26    1
    11    28    26    1
    12    16    22   am
    13    16    15    1
    14    26    27    1
    15     9    10    2
    16     9     8    1
    17    14    15    1
    18    15    18    1
    19     8     7    1
    20     8    11    1
    21    18    19    1
    22    20    19    2
    23    11    12    1
    24    11    13    1
    25    37    35   ar
    26    37    39   ar
    27    35    34   ar
    28    19    21   am
    29    40    39    1
    30    29    30    1
    31    39    38   ar
    32    64    65    1
    33    68    65    1
    34    68    69    1
    35    34    33    1
    36    34    36   ar
    37    33    30    1
    38   123   122    2
    39    30    31    1
    40    65    66    1
    41    38    36   ar
    42   122   121    1
    43    32    31    2
    44    31    41   am
    45    67    66    2
    46    66    70   am
    47   121   120    1
    48   121   124    1
    49    41    42    1
    50    70    71    1
    51   124   125    1
    52   119   118    1
    53    42    43    1
    54    42    45    1
    55    52    53    1
    56    52    49    1
    57    71    72    1
    58    54    53   ar
    59    54    56   ar
    60    53    55   ar
    61    73    72    2
    62    47    45    1
    63   127   125    1
    64    56    58   ar
    65   118   115    1
    66    55    57   ar
    67   117   116    2
    68    43    44    2
    69    43    48   am
    70    58    57   ar
    71    58    59    1
    72   125   126    1
    73    45    46    1
    74    48    49    1
    75    72    74   am
    76   115   116    1
    77   115   114    1
    78    49    50    1
    79   113   112   ar
    80   113   111   ar
    81    74    75    1
    82    51    50    2
    83   112   110   ar
    84   111   109   ar
    85   114   105   am
    86    50    60   am
    87    75    78    1
    88    75    76    1
    89   110   108   ar
    90    78    79    1
    91   109   108   ar
    92   105   106    2
    93   105   104    1
    94    60    61    1
    95   108   107    1
    96    81    79   ar
    97    79    80   ar
    98    76    77    2
    99   104   107    1
   100   104   103    1
   101    63    62    2
   102    61    62    1
   103    97    96    2
   104    90    88   ar
   105    90    92   ar
   106   103    96   am
   107    96    95    1
   108    88    87   ar
   109    93    92    1
   110    92    91   ar
   111    87    86    1
   112    87    89   ar
   113    98    95    1
   114    98    99    1
   115    95    94    1
   116    86    83    1
   117    91    89   ar
   118    85    84    2
   119    82    83    1
   120    83    84    1
   121    99   100    1
   122   101   100   ar
   123   100   102   ar
