@<TRIPOS>MOLECULE
tmp/5ljjA00.pdb
 173 163 0 0 0
SMALL
GASTEIGER

@<TRIPOS>ATOM
      1  N        -41.5900  -16.9770   -1.5030 N.3    15  LYS15      -0.1245
      2  CA       -41.7410  -15.6260   -2.0650 C.3    15  LYS15       0.1561
      3  C        -41.8080  -15.6330   -3.5860 C.2    15  LYS15       0.2260
      4  O        -41.5700  -16.6590   -4.2270 O.2    15  LYS15      -0.2867
      5  CB       -40.6180  -14.6860   -1.5930 C.3    15  LYS15       0.0271
      6  CG       -39.2120  -15.0660   -2.0490 C.3    15  LYS15       0.0035
      7  CD       -38.3180  -13.8500   -2.2710 C.3    15  LYS15       0.0206
      8  CE       -36.9960  -14.2540   -2.9200 C.3    15  LYS15       0.1093
      9  NZ       -36.1390  -13.1060   -3.3380 N.3    15  LYS15      -0.1314
     10  N        -40.2050  -14.5700   -6.9470 N.3    17  ILE17      -0.1231
     11  CA       -38.8990  -14.2410   -7.5280 C.3    17  ILE17       0.1692
     12  C        -39.0260  -13.0500   -8.4870 C.2    17  ILE17       0.2592
     13  O        -38.2030  -12.1310   -8.4610 O.2    17  ILE17      -0.2718
     14  CB       -38.2810  -15.4350   -8.2980 C.3    17  ILE17       0.0266
     15  CG1      -38.0740  -16.6410   -7.3760 C.3    17  ILE17       0.0019
     16  CG2      -36.9470  -15.0340   -8.9180 C.3    17  ILE17       0.0020
     17  CD1      -37.6530  -17.9030   -8.0980 C.3    17  ILE17       0.0001
     18  N        -40.0500  -13.0820   -9.3360 N.am   18  GLY18      -0.1957
     19  CA       -40.2410  -12.0530  -10.3530 C.3    18  GLY18       0.1869
     20  C        -41.4620  -12.2910  -11.2190 C.2    18  GLY18       0.2309
     21  O        -42.0150  -13.3950  -11.2430 O.2    18  GLY18      -0.2863
     22  N        -43.2530  -16.1060  -11.3490 N.3    25  VAL25      -0.1245
     23  CA       -42.4490  -17.2370  -10.8610 C.3    25  VAL25       0.1561
     24  C        -42.1870  -17.1100   -9.3500 C.2    25  VAL25       0.2260
     25  O        -41.8570  -16.0300   -8.8500 O.2    25  VAL25      -0.2867
     26  CB       -41.1390  -17.4120  -11.6670 C.3    25  VAL25       0.0252
     27  CG1      -40.3080  -16.1360  -11.6540 C.3    25  VAL25       0.0019
     28  CG2      -40.3370  -18.6150  -11.1670 C.3    25  VAL25       0.0019
     29  N        -38.6200  -23.8090   -8.1790 N.3    37  ALA37      -0.1245
     30  CA       -39.2140  -22.5940   -8.7160 C.3    37  ALA37       0.1562
     31  C        -40.4340  -23.0180   -9.5110 C.2    37  ALA37       0.2260
     32  O        -40.3540  -23.9690  -10.2890 O.2    37  ALA37      -0.2867
     33  CB       -38.2220  -21.8640   -9.6020 C.3    37  ALA37       0.0290
     34  N        -32.6240  -25.6240  -18.3790 N.3    72  ILE72      -0.1245
     35  CA       -33.2780  -25.7190  -17.0710 C.3    72  ILE72       0.1561
     36  C        -34.1420  -26.9760  -16.9980 C.2    72  ILE72       0.2260
     37  O        -34.8110  -27.3440  -17.9690 O.2    72  ILE72      -0.2867
     38  CB       -34.1010  -24.4390  -16.7260 C.3    72  ILE72       0.0252
     39  CG1      -34.3360  -24.3160  -15.2170 C.3    72  ILE72       0.0019
     40  CG2      -35.4300  -24.3960  -17.4700 C.3    72  ILE72       0.0019
     41  CD1      -33.1300  -23.8320  -14.4410 C.3    72  ILE72       0.0001
     42  N        -40.0210  -26.0930  -12.1210 N.3    88  MET88      -0.1230
     43  CA       -38.6200  -26.1340  -12.5510 C.3    88  MET88       0.1702
     44  C        -37.6880  -26.2390  -11.3410 C.2    88  MET88       0.2592
     45  O        -38.1140  -26.0430  -10.2000 O.2    88  MET88      -0.2718
     46  CB       -38.2720  -24.8660  -13.3340 C.3    88  MET88       0.0401
     47  CG       -39.0880  -24.6260  -14.5980 C.3    88  MET88       0.0596
     48  SD       -39.2150  -22.8590  -14.9450 S.3    88  MET88      -0.1393
     49  CE       -39.2950  -22.8540  -16.7380 C.3    88  MET88       0.0692
     50  N        -36.4150  -26.5450  -11.5990 N.am   89  GLU89      -0.1966
     51  CA       -35.3830  -26.5320  -10.5570 C.3    89  GLU89       0.1733
     52  C        -35.0870  -25.0960  -10.1600 C.2    89  GLU89       0.2616
     53  O        -35.1490  -24.2040  -10.9960 O.2    89  GLU89      -0.2715
     54  CB       -34.0920  -27.2420  -11.0110 C.3    89  GLU89       0.0429
     55  CG       -33.2150  -26.4920  -12.0110 C.3    89  GLU89       0.1163
     56  CD       -31.8730  -27.1630  -12.2520 C.2    89  GLU89       0.3649
     57  OE1      -31.6470  -28.3000  -11.7860 O.co2  89  GLU89      -0.2457
     58  OE2      -31.0260  -26.5380  -12.9100 O.co2  89  GLU89      -0.2457
     59  N        -34.7610  -24.8870   -8.8870 N.am   90  TYR90      -0.1960
     60  CA       -34.4660  -23.5540   -8.3790 C.3    90  TYR90       0.1771
     61  C        -33.0230  -23.1690   -8.7040 C.2    90  TYR90       0.2620
     62  O        -32.1050  -23.9800   -8.5520 O.2    90  TYR90      -0.2715
     63  CB       -34.7100  -23.4910   -6.8720 C.3    90  TYR90       0.0574
     64  CG       -34.3980  -22.1430   -6.2670 C.ar   90  TYR90      -0.0198
     65  CD1      -35.1310  -21.0130   -6.6210 C.ar   90  TYR90      -0.0009
     66  CD2      -33.3630  -21.9920   -5.3430 C.ar   90  TYR90      -0.0009
     67  CE1      -34.8450  -19.7710   -6.0710 C.ar   90  TYR90       0.0417
     68  CE2      -33.0690  -20.7540   -4.7880 C.ar   90  TYR90       0.0417
     69  CZ       -33.8130  -19.6490   -5.1510 C.ar   90  TYR90       0.1957
     70  OH       -33.5210  -18.4270   -4.5990 O.3    90  TYR90      -0.2866
     71  N        -32.8400  -21.9330   -9.1590 N.am   91  GLY91      -0.1940
     72  CA       -31.5170  -21.3720   -9.3910 C.3    91  GLY91       0.2014
     73  C        -31.2160  -20.2960   -8.3770 C.2    91  GLY91       0.2639
     74  O        -32.1280  -19.6740   -7.8310 O.2    91  GLY91      -0.2714
     75  N        -29.9270  -20.0620   -8.1470 N.am   92  ASN92      -0.1958
     76  CA       -29.4760  -19.0740   -7.1670 C.3    92  ASN92       0.1819
     77  C        -29.8400  -17.6640   -7.6250 C.2    92  ASN92       0.2621
     78  O        -30.3870  -16.8740   -6.8520 O.2    92  ASN92      -0.2715
     79  CB       -27.9580  -19.1700   -6.9390 C.3    92  ASN92       0.1195
     80  CG       -27.5110  -20.5590   -6.5050 C.2    92  ASN92       0.2630
     81  OD1      -28.2560  -21.2950   -5.8560 O.2    92  ASN92      -0.2716
     82  ND2      -26.2880  -20.9240   -6.8720 N.am   92  ASN92      -0.0877
     83  N        -29.5410  -17.3650   -8.8870 N.am   93  ILE93      -0.1963
     84  CA       -29.7720  -16.0390   -9.4510 C.3    93  ILE93       0.1727
     85  C        -29.6660  -16.0700  -10.9820 C.2    93  ILE93       0.2616
     86  O        -28.9230  -16.8780  -11.5500 O.2    93  ILE93      -0.2715
     87  CB       -28.7710  -15.0080   -8.8570 C.3    93  ILE93       0.0290
     88  CG1      -29.1860  -13.5700   -9.1910 C.3    93  ILE93       0.0022
     89  CG2      -27.3400  -15.3040   -9.3050 C.3    93  ILE93       0.0023
     90  CD1      -28.2450  -12.5260   -8.6320 C.3    93  ILE93       0.0001
     91  N        -30.4240  -15.1930  -11.6370 N.am   94  ASP94      -0.1971
     92  CA       -30.2720  -14.9440  -13.0710 C.3    94  ASP94       0.1709
     93  C        -28.9640  -14.2030  -13.3520 C.2    94  ASP94       0.2293
     94  O        -28.5000  -13.4140  -12.5300 O.2    94  ASP94      -0.2864
     95  CB       -31.4620  -14.1460  -13.6260 C.3    94  ASP94       0.1436
     96  CG       -31.4990  -12.6990  -13.1270 C.2    94  ASP94       0.3671
     97  OD1      -31.3150  -12.4820  -11.9110 O.co2  94  ASP94      -0.2456
     98  OD2      -31.7230  -11.7850  -13.9540 O.co2  94  ASP94      -0.2456
     99  N        -28.7910  -10.0300  -13.1020 N.3    97  SER97      -0.1217
    100  CA       -28.6610   -9.4640  -11.7540 C.3    97  SER97       0.1889
    101  C        -27.2580   -9.6970  -11.2130 C.2    97  SER97       0.2288
    102  O        -26.6420   -8.7820  -10.6740 O.2    97  SER97      -0.2866
    103  CB       -29.6800  -10.0730  -10.7950 C.3    97  SER97       0.2089
    104  OG       -31.0020   -9.9340  -11.2820 O.3    97  SER97      -0.2183
    105  N        -24.3300   -6.8170  -10.0950 N.3   101  LYS101     -0.1245
    106  CA       -23.6180   -6.7940   -8.8050 C.3   101  LYS101      0.1561
    107  C        -22.0970   -6.9340   -8.9560 C.2   101  LYS101      0.2260
    108  O        -21.3450   -6.2390   -8.2680 O.2   101  LYS101     -0.2867
    109  CB       -24.1590   -7.8760   -7.8610 C.3   101  LYS101      0.0271
    110  CG       -25.5780   -7.6050   -7.3900 C.3   101  LYS101      0.0035
    111  CD       -26.2050   -8.8260   -6.7440 C.3   101  LYS101      0.0206
    112  CE       -27.6480   -8.5580   -6.3430 C.3   101  LYS101      0.1093
    113  NZ       -27.7610   -7.5430   -5.2560 N.3   101  LYS101     -0.1314
    114  N        -30.4230  -12.3170  -18.9110 N.3   137  ALA137     -0.1245
    115  CA       -31.5870  -12.7720  -18.1260 C.3   137  ALA137      0.1562
    116  C        -32.1770  -14.1320  -18.5420 C.2   137  ALA137      0.2260
    117  O        -32.8520  -14.7770  -17.7380 O.2   137  ALA137     -0.2867
    118  CB       -32.6770  -11.7070  -18.1510 C.3   137  ALA137      0.0290
    119  N        -29.5290  -18.7100  -16.1630 N.3   140  LEU140     -0.1245
    120  CA       -29.7270  -18.8560  -14.7300 C.3   140  LEU140      0.1561
    121  C        -28.5620  -19.6390  -14.1300 C.2   140  LEU140      0.2260
    122  O        -28.2240  -20.7140  -14.6290 O.2   140  LEU140     -0.2867
    123  CB       -31.0220  -19.6260  -14.5050 C.3   140  LEU140      0.0270
    124  CG       -31.5750  -19.6630  -13.0850 C.3   140  LEU140      0.0019
    125  CD1      -32.3230  -18.3700  -12.7850 C.3   140  LEU140      0.0001
    126  CD2      -32.4710  -20.8790  -12.9010 C.3   140  LEU140      0.0001
    127  N        -33.0450  -20.7940  -19.1040 N.3   149  ILE149     -0.1245
    128  CA       -34.4160  -20.8430  -18.5720 C.3   149  ILE149      0.1561
    129  C        -35.5010  -20.5640  -19.6040 C.2   149  ILE149      0.2260
    130  O        -36.5830  -21.1500  -19.5360 O.2   149  ILE149     -0.2867
    131  CB       -34.6490  -19.8880  -17.3650 C.3   149  ILE149      0.0252
    132  CG1      -34.1880  -18.4410  -17.6400 C.3   149  ILE149      0.0019
    133  CG2      -33.9720  -20.4460  -16.1260 C.3   149  ILE149      0.0019
    134  CD1      -34.8680  -17.3990  -16.7700 C.3   149  ILE149      0.0001
    135  N        -40.0340  -11.2020  -18.4300 N.3   157  MET157     -0.1230
    136  CA       -39.7010  -11.4450  -17.0200 C.3   157  MET157      0.1702
    137  C        -38.5960  -10.5470  -16.4590 C.2   157  MET157      0.2592
    138  O        -37.5110  -10.4390  -17.0370 O.2   157  MET157     -0.2718
    139  CB       -39.3170  -12.9160  -16.7950 C.3   157  MET157      0.0401
    140  CG       -40.4940  -13.8760  -16.7960 C.3   157  MET157      0.0596
    141  SD       -41.4900  -13.7160  -15.3020 S.3   157  MET157     -0.1393
    142  CE       -42.3690  -15.2690  -15.3230 C.3   157  MET157      0.0692
    143  N        -38.9080   -9.9050  -15.3310 N.am  158  GLN158     -0.1966
    144  CA       -37.9430   -9.1700  -14.5220 C.3   158  GLN158      0.1718
    145  C        -38.0690   -9.6400  -13.0760 C.2   158  GLN158      0.2458
    146  O        -39.1390  -10.1250  -12.6870 O.2   158  GLN158     -0.2730
    147  CB       -38.2300   -7.6770  -14.5750 C.3   158  GLN158      0.0407
    148  CG       -38.1030   -7.0620  -15.9530 C.3   158  GLN158      0.0908
    149  CD       -38.2010   -5.5490  -15.9110 C.2   158  GLN158      0.2608
    150  OE1      -39.0560   -4.9880  -15.2200 O.2   158  GLN158     -0.2717
    151  NE2      -37.3240   -4.8780  -16.6510 N.am  158  GLN158     -0.0878
    152  N        -36.9930   -9.4990  -12.2730 N.am  159  PRO159     -0.2716
    153  CA       -37.1230   -9.7580  -10.8340 C.3   159  PRO159      0.1536
    154  C        -37.9930   -8.7130  -10.1220 C.2   159  PRO159      0.2599
    155  O        -37.9970   -7.5490  -10.5270 O.2   159  PRO159     -0.2715
    156  CB       -35.6770   -9.6880  -10.3340 C.3   159  PRO159      0.0310
    157  CG       -34.8350   -9.9140  -11.5400 C.3   159  PRO159      0.0237
    158  CD       -35.5880   -9.2540  -12.6470 C.3   159  PRO159      0.0939
    159  N        -38.7090   -9.1310   -9.0750 N.am  160  ASP160     -0.1958
    160  CA       -39.6820   -8.2750   -8.3830 C.3   160  ASP160      0.1840
    161  C        -39.3680   -8.1720   -6.8810 C.2   160  ASP160      0.2622
    162  O        -39.6700   -9.0900   -6.1140 O.2   160  ASP160     -0.2715
    163  CB       -41.1070   -8.8150   -8.6190 C.3   160  ASP160      0.1450
    164  CG       -42.1970   -7.7680   -8.3740 C.2   160  ASP160      0.3671
    165  OD1      -42.0550   -6.9150   -7.4690 O.co2 160  ASP160     -0.2456
    166  OD2      -43.2190   -7.8080   -9.0950 O.co2 160  ASP160     -0.2456
    167  N        -38.7460   -7.0550   -6.4840 N.am  161  THR161     -0.1951
    168  CA       -38.5410   -6.6970   -5.0710 C.3   161  THR161      0.1897
    169  C        -39.5470   -5.6120   -4.6830 C.2   161  THR161      0.2313
    170  O        -40.0150   -5.5560   -3.5450 O.2   161  THR161     -0.2863
    171  CB       -37.1090   -6.1730   -4.8050 C.3   161  THR161      0.1794
    172  OG1      -36.1440   -7.0870   -5.3410 O.3   161  THR161     -0.2208
    173  CG2      -36.8530   -5.9970   -3.3020 C.3   161  THR161      0.0378
@<TRIPOS>BOND
     1   129   130    2
     2   129   128    1
     3   127   128    1
     4   114   115    1
     5   128   131    1
     6   116   115    1
     7   116   117    2
     8   135   136    1
     9    34    35    1
    10   118   115    1
    11    37    36    2
    12   132   131    1
    13   132   134    1
    14    40    38    1
    15   131   133    1
    16    35    36    1
    17    35    38    1
    18   138   137    2
    19   136   139    1
    20   136   137    1
    21   140   139    1
    22   140   141    1
    23    49    48    1
    24    38    39    1
    25   151   149   am
    26   137   143   am
    27   119   120    1
    28   148   149    1
    29   148   147    1
    30   149   150    2
    31   143   144    1
    32   142   141    1
    33    39    41    1
    34    48    47    1
    35   120   123    1
    36   120   121    1
    37   122   121    2
    38    47    46    1
    39   147   144    1
    40   144   145    1
    41   123   124    1
    42    98    96   ar
    43    95    96    1
    44    95    92    1
    45    93    92    1
    46    93    94    2
    47    46    43    1
    48    96    97   ar
    49    99   100    1
    50   124   126    1
    51   124   125    1
    52   145   146    2
    53   145   152   am
    54    92    91    1
    55    58    56   ar
    56   158   152    1
    57   158   157    1
    58    43    42    1
    59    43    44    1
    60   152   153    1
    61    56    55    1
    62    56    57   ar
    63    55    54    1
    64   100   101    1
    65   100   103    1
    66    26    27    1
    67    26    28    1
    68    26    23    1
    69    91    85   am
    70    50    44   am
    71    50    51    1
    72    86    85    2
    73   157   156    1
    74    22    23    1
    75    44    45    2
    76   104   103    1
    77    21    20    2
    78    20    19    1
    79   101   102    2
    80    54    51    1
    81    53    52    2
    82    85    84    1
    83    23    24    1
    84   153   156    1
    85   153   154    1
    86    51    52    1
    87   155   154    2
    88    19    18    1
    89    32    31    2
    90    52    59   am
    91   154   159   am
    92   105   106    1
    93    33    30    1
    94    31    30    1
    95    84    83    1
    96    84    87    1
    97    72    71    1
    98    72    73    1
    99    24    25    2
   100    18    12   am
   101    89    87    1
   102    88    87    1
   103    88    90    1
   104    71    61   am
   105   166   164   ar
   106   159   160    1
   107   107   106    1
   108   107   108    2
   109    16    14    1
   110    83    77   am
   111    59    60    1
   112   106   109    1
   113    30    29    1
   114    61    62    2
   115    61    60    1
   116   163   160    1
   117   163   164    1
   118    12    13    2
   119    12    11    1
   120   160   161    1
   121    60    63    1
   122    73    75   am
   123    73    74    2
   124   164   165   ar
   125    14    11    1
   126    14    15    1
   127    75    76    1
   128    17    15    1
   129   109   110    1
   130    77    76    1
   131    77    78    2
   132    11    10    1
   133   110   111    1
   134    76    79    1
   135    79    80    1
   136   161   167   am
   137   161   162    2
   138    82    80   am
   139    63    64    1
   140   111   112    1
   141    65    64   ar
   142    65    67   ar
   143    80    81    2
   144   167   168    1
   145   112   113    1
   146    64    66   ar
   147    67    69   ar
   148    66    68   ar
   149   172   171    1
   150    69    68   ar
   151    69    70    1
   152   168   171    1
   153   168   169    1
   154   171   173    1
   155   169   170    2
   156     4     3    2
   157     3     2    1
   158     9     8    1
   159     8     7    1
   160     7     6    1
   161     2     5    1
   162     2     1    1
   163     6     5    1
