@<TRIPOS>MOLECULE
tmp/5ljqA00.pdb
 133 130 0 0 0
SMALL
GASTEIGER

@<TRIPOS>ATOM
      1  N        -12.7010    6.1260   11.1600 N.3    90  GLN90      -0.1245
      2  CA       -12.4290    4.9620   10.3260 C.3    90  GLN90       0.1566
      3  C        -12.6910    3.6960   11.1060 C.2    90  GLN90       0.2260
      4  O        -12.7170    3.7190   12.3410 O.2    90  GLN90      -0.2867
      5  CB       -10.9740    4.9750    9.8320 C.3    90  GLN90       0.0367
      6  CG        -9.9280    5.0970   10.9380 C.3    90  GLN90       0.0905
      7  CD        -9.1570    3.8190   11.2160 C.2    90  GLN90       0.2608
      8  OE1       -9.6870    2.7140   11.1210 O.2    90  GLN90      -0.2717
      9  NE2       -7.8970    3.9730   11.5910 N.am   90  GLN90      -0.0878
     10  N        -11.2560   -0.5820   10.8720 N.3    92  HIS92      -0.1241
     11  CA       -10.3760   -1.5650   10.2640 C.3    92  HIS92       0.1621
     12  C        -10.4470   -2.8330   11.1060 C.2    92  HIS92       0.2264
     13  O        -11.0800   -2.8590   12.1640 O.2    92  HIS92      -0.2867
     14  CB        -8.9500   -1.0280   10.2230 C.3    92  HIS92       0.0745
     15  CG        -8.3990   -0.7620   11.5810 C.ar   92  HIS92       0.0817
     16  ND1       -8.5710    0.4390   12.2320 N.ar   92  HIS92      -0.2268
     17  CD2       -7.7510   -1.5710   12.4490 C.ar   92  HIS92       0.1154
     18  CE1       -8.0320    0.3620   13.4350 C.ar   92  HIS92       0.1986
     19  NE2       -7.5320   -0.8480   13.5920 N.ar   92  HIS92      -0.2212
     20  N         -8.0880   -6.5250   12.4460 N.3    94  HIS94      -0.1241
     21  CA        -6.8730   -7.3320   12.5940 C.3    94  HIS94       0.1621
     22  C         -7.3180   -8.7800   12.4950 C.2    94  HIS94       0.2264
     23  O         -8.3840   -9.1280   13.0010 O.2    94  HIS94      -0.2867
     24  CB        -6.1940   -7.0720   13.9410 C.3    94  HIS94       0.0745
     25  CG        -5.9230   -5.6270   14.1970 C.ar   94  HIS94       0.0817
     26  ND1       -4.7010   -5.0430   13.9480 N.ar   94  HIS94      -0.2268
     27  CD2       -6.7320   -4.6300   14.6280 C.ar   94  HIS94       0.1154
     28  CE1       -4.7610   -3.7570   14.2410 C.ar   94  HIS94       0.1986
     29  NE2       -5.9820   -3.4810   14.6510 N.ar   94  HIS94      -0.2212
     30  N        -12.0640   -2.7500   14.8100 N.3   117  HIS117     -0.1241
     31  CA       -11.8240   -1.5170   15.5490 C.3   117  HIS117      0.1621
     32  C        -12.4990   -0.3440   14.8670 C.2   117  HIS117      0.2264
     33  O        -12.1290    0.0080   13.7510 O.2   117  HIS117     -0.2867
     34  CB       -10.3220   -1.2470   15.6480 C.3   117  HIS117      0.0745
     35  CG        -9.6230   -2.2030   16.5490 C.ar  117  HIS117      0.0817
     36  ND1       -8.2640   -2.4200   16.5270 N.ar  117  HIS117     -0.2268
     37  CD2      -10.1230   -3.0230   17.5020 C.ar  117  HIS117      0.1154
     38  CE1       -7.9570   -3.3210   17.4410 C.ar  117  HIS117      0.1986
     39  NE2       -9.0670   -3.7040   18.0470 N.ar  117  HIS117     -0.2212
     40  N        -12.8110    3.4480   15.1660 N.3   119  VAL119     -0.1245
     41  CA       -11.9510    4.4580   15.7750 C.3   119  VAL119      0.1561
     42  C        -12.6570    5.8100   15.7990 C.2   119  VAL119      0.2260
     43  O        -13.1210    6.2840   14.7610 O.2   119  VAL119     -0.2867
     44  CB       -10.6300    4.5760   14.9830 C.3   119  VAL119      0.0252
     45  CG1       -9.7120    5.6220   15.6030 C.3   119  VAL119      0.0019
     46  CG2       -9.9370    3.2200   14.8790 C.3   119  VAL119      0.0019
     47  N         -8.1150   14.9260   14.7190 N.3   128  PHE128     -0.1227
     48  CA        -7.5830   13.6390   15.1320 C.3   128  PHE128      0.1736
     49  C         -6.1370   13.7580   15.6060 C.2   128  PHE128      0.2596
     50  O         -5.7620   13.1540   16.6050 O.2   128  PHE128     -0.2718
     51  CB        -7.6980   12.6460   13.9740 C.3   128  PHE128      0.0547
     52  CG        -7.1560   11.2820   14.2800 C.ar  128  PHE128     -0.0202
     53  CD1       -7.9600   10.3200   14.8660 C.ar  128  PHE128     -0.0042
     54  CD2       -5.8440   10.9510   13.9680 C.ar  128  PHE128     -0.0042
     55  CE1       -7.4670    9.0570   15.1430 C.ar  128  PHE128     -0.0003
     56  CE2       -5.3430    9.6910   14.2490 C.ar  128  PHE128     -0.0003
     57  CZ        -6.1580    8.7400   14.8380 C.ar  128  PHE128     -0.0000
     58  N         -5.3310   14.5340   14.8830 N.am  129  GLY129     -0.1957
     59  CA        -3.9210   14.6990   15.2230 C.3   129  GLY129      0.1869
     60  C         -3.6950   15.3150   16.5890 C.2   129  GLY129      0.2309
     61  O         -2.7510   14.9620   17.2880 O.2   129  GLY129     -0.2863
     62  N         -4.8890   12.5440   19.4400 N.3   132  VAL132     -0.1245
     63  CA        -3.9700   11.4570   19.8130 C.3   132  VAL132      0.1561
     64  C         -2.8800   11.8840   20.7950 C.2   132  VAL132      0.2260
     65  O         -2.1900   11.0350   21.3490 O.2   132  VAL132     -0.2867
     66  CB        -3.3130   10.7530   18.6050 C.3   132  VAL132      0.0252
     67  CG1       -4.3720   10.1100   17.7260 C.3   132  VAL132      0.0019
     68  CG2       -2.4310   11.7030   17.8050 C.3   132  VAL132      0.0019
     69  N        -11.9270    3.6770   21.0180 N.3   140  VAL140     -0.1245
     70  CA       -11.9720    2.6160   20.0240 C.3   140  VAL140      0.1561
     71  C        -12.9300    1.5500   20.5270 C.2   140  VAL140      0.2260
     72  O        -12.7910    1.0360   21.6440 O.2   140  VAL140     -0.2867
     73  CB       -10.5860    2.0280   19.6770 C.3   140  VAL140      0.0252
     74  CG1      -10.7320    0.9990   18.5620 C.3   140  VAL140      0.0019
     75  CG2       -9.6410    3.1330   19.2280 C.3   140  VAL140      0.0019
     76  N         -3.0280    3.0820   21.2020 N.3   195  LEU195     -0.1231
     77  CA        -3.0310    2.5460   19.8470 C.3   195  LEU195      0.1693
     78  C         -2.2860    1.2130   19.8680 C.2   195  LEU195      0.2593
     79  O         -1.2840    1.0690   20.5740 O.2   195  LEU195     -0.2718
     80  CB        -2.3160    3.4960   18.8930 C.3   195  LEU195      0.0284
     81  CG        -2.8500    4.9210   18.7970 C.3   195  LEU195      0.0019
     82  CD1       -2.0140    5.7230   17.8170 C.3   195  LEU195      0.0001
     83  CD2       -4.3160    4.9370   18.3920 C.3   195  LEU195      0.0001
     84  N         -2.7440    0.2460   19.0830 N.am  196  THR196     -0.1939
     85  CA        -2.0910   -1.0630   19.0540 C.3   196  THR196      0.2028
     86  C         -1.0730   -1.1900   17.9250 C.2   196  THR196      0.2643
     87  O         -0.4810   -2.2550   17.7550 O.2   196  THR196     -0.2714
     88  CB        -3.0990   -2.2080   18.9100 C.3   196  THR196      0.1808
     89  OG1       -3.6760   -2.1470   17.6070 O.3   196  THR196     -0.2208
     90  CG2       -4.1710   -2.1620   19.9990 C.3   196  THR196      0.0379
     91  N         -0.8640   -0.1160   17.1600 N.am  197  THR197     -0.1937
     92  CA         0.2430   -0.0590   16.2060 C.3   197  THR197      0.2013
     93  C          1.0250    1.2060   16.4910 C.2   197  THR197      0.2484
     94  O          0.5000    2.1340   17.1080 O.2   197  THR197     -0.2729
     95  CB        -0.2100   -0.0090   14.7300 C.3   197  THR197      0.1807
     96  OG1       -0.6980    1.2980   14.4220 O.3   197  THR197     -0.2208
     97  CG2       -1.2740   -1.0200   14.4410 C.3   197  THR197      0.0379
     98  N          2.2780    1.2680   16.0160 N.am  198  PRO198     -0.2715
     99  CA         2.9940    2.5390   16.0540 C.3   198  PRO198      0.1521
    100  C          2.1010    3.6610   15.5140 C.2   198  PRO198      0.2440
    101  O          1.3850    3.4430   14.5320 O.2   198  PRO198     -0.2731
    102  CB         4.2040    2.2610   15.1680 C.3   198  PRO198      0.0310
    103  CG         4.4870    0.8230   15.4380 C.3   198  PRO198      0.0237
    104  CD         3.1210    0.1950   15.4580 C.3   198  PRO198      0.0939
    105  N          2.0910    4.8340   16.1480 N.am  199  PRO199     -0.2727
    106  CA         3.0340    5.2590   17.1960 C.3   199  PRO199      0.1402
    107  C          2.7130    4.8280   18.6430 C.2   199  PRO199      0.2269
    108  O          3.3720    5.3040   19.5690 O.2   199  PRO199     -0.2865
    109  CB         2.9870    6.7910   17.0750 C.3   199  PRO199      0.0296
    110  CG         1.6040    7.0740   16.5860 C.3   199  PRO199      0.0237
    111  CD         1.2900    5.9580   15.6320 C.3   199  PRO199      0.0939
    112  N          0.5120    5.4570   20.8220 N.3   201  LEU201     -0.1245
    113  CA         0.2110    6.5530   21.7310 C.3   201  LEU201      0.1561
    114  C         -0.8470    6.1440   22.7480 C.2   201  LEU201      0.2260
    115  O         -1.8060    5.4440   22.4240 O.2   201  LEU201     -0.2867
    116  CB        -0.2430    7.7910   20.9460 C.3   201  LEU201      0.0270
    117  CG         0.8330    8.3970   20.0340 C.3   201  LEU201      0.0019
    118  CD1        0.2430    9.4560   19.1210 C.3   201  LEU201      0.0001
    119  CD2        1.9710    8.9900   20.8480 C.3   201  LEU201      0.0001
    120  N        -10.5280    2.2190   25.5890 N.3   206  TRP206     -0.1241
    121  CA       -10.9750    1.0070   24.9160 C.3   206  TRP206      0.1605
    122  C        -12.3380    0.5880   25.4260 C.2   206  TRP206      0.2264
    123  O        -12.5710    0.5580   26.6290 O.2   206  TRP206     -0.2867
    124  CB        -9.9540   -0.1290   25.1000 C.3   206  TRP206      0.0550
    125  CG        -8.8610   -0.0050   24.1170 C.ar  206  TRP206      0.0003
    126  CD1       -7.6440    0.5890   24.2930 C.ar  206  TRP206      0.0946
    127  CD2       -8.9150   -0.4120   22.7520 C.ar  206  TRP206      0.0152
    128  NE1       -6.9340    0.5600   23.1200 N.ar  206  TRP206     -0.2442
    129  CE2       -7.6900   -0.0520   22.1570 C.ar  206  TRP206      0.0810
    130  CE3       -9.8780   -1.0630   21.9770 C.ar  206  TRP206      0.0012
    131  CZ2       -7.4060   -0.3150   20.8230 C.ar  206  TRP206      0.0191
    132  CZ3       -9.5920   -1.3320   20.6570 C.ar  206  TRP206      0.0001
    133  CH2       -8.3620   -0.9650   20.0940 C.ar  206  TRP206      0.0015
@<TRIPOS>BOND
     1     5     2    1
     2     5     6    1
     3    14    11    1
     4    14    15    1
     5    11    10    1
     6    11    12    1
     7     2     3    1
     8     2     1    1
     9     6     7    1
    10     3     4    2
    11    12    13    2
    12     8     7    2
    13     7     9   am
    14    15    16   ar
    15    15    17   ar
    16    16    18   ar
    17    20    21    1
    18    17    19   ar
    19    22    21    1
    20    22    23    2
    21    21    24    1
    22    18    19   ar
    23    33    32    2
    24    24    25    1
    25    26    25   ar
    26    26    28   ar
    27    54    56   ar
    28    54    52   ar
    29    51    52    1
    30    51    48    1
    31    25    27   ar
    32    28    29   ar
    33    56    57   ar
    34    52    53   ar
    35    96    95    1
    36    97    95    1
    37   101   100    2
    38    27    29   ar
    39    47    48    1
    40    95    92    1
    41    43    42    2
    42    30    31    1
    43    57    55   ar
    44    53    55   ar
    45    32    31    1
    46    46    44    1
    47    58    59    1
    48    58    49   am
    49    44    45    1
    50    44    41    1
    51    48    49    1
    52    40    41    1
    53   102   103    1
    54   102    99    1
    55    59    60    1
    56   103   104    1
    57   104    98    1
    58   100    99    1
    59   100   105   am
    60    31    34    1
    61    49    50    2
    62   111   105    1
    63   111   110    1
    64    34    35    1
    65    41    42    1
    66    98    99    1
    67    98    93   am
    68   105   106    1
    69    92    93    1
    70    92    91    1
    71    93    94    2
    72    36    35   ar
    73    36    38   ar
    74    35    37   ar
    75   110   109    1
    76    60    61    2
    77   109   106    1
    78    91    86   am
    79   106   107    1
    80    38    39   ar
    81    37    39   ar
    82    89    88    1
    83    67    66    1
    84    87    86    2
    85    68    66    1
    86    82    81    1
    87    86    85    1
    88    83    81    1
    89    74    73    1
    90    66    63    1
    91   107   108    2
    92    81    80    1
    93    80    77    1
    94    88    85    1
    95    88    90    1
    96    85    84    1
    97    84    78   am
    98   118   117    1
    99    75    73    1
   100    62    63    1
   101    73    70    1
   102    63    64    1
   103    77    78    1
   104    77    76    1
   105    78    79    2
   106    70    71    1
   107    70    69    1
   108   117   119    1
   109   117   116    1
   110   133   132   ar
   111   133   131   ar
   112    71    72    2
   113   132   130   ar
   114    64    65    2
   115   112   113    1
   116   131   129   ar
   117   116   113    1
   118   113   114    1
   119   130   127   ar
   120   129   127   ar
   121   129   128   ar
   122   115   114    2
   123   127   125   ar
   124   128   126   ar
   125   125   126   ar
   126   125   124    1
   127   121   124    1
   128   121   122    1
   129   121   120    1
   130   122   123    2
