@<TRIPOS>MOLECULE
tmp/5ljtA00.pdb
 143 140 0 0 0
SMALL
GASTEIGER

@<TRIPOS>ATOM
      1  N         -0.7320   -2.2130    6.4490 N.3    62  HIS62      -0.1241
      2  CA        -0.8710   -2.9930    7.6930 C.3    62  HIS62       0.1621
      3  C         -2.2970   -3.4590    7.9960 C.2    62  HIS62       0.2264
      4  O         -2.4830   -4.3310    8.8450 O.2    62  HIS62      -0.2867
      5  CB        -0.2840   -2.2540    8.9080 C.3    62  HIS62       0.0745
      6  CG        -0.6620   -0.8100    8.9970 C.ar   62  HIS62       0.0817
      7  ND1       -1.8080   -0.3740    9.6270 N.ar   62  HIS62      -0.2268
      8  CD2       -0.0240    0.3030    8.5640 C.ar   62  HIS62       0.1154
      9  CE1       -1.8730    0.9430    9.5550 C.ar   62  HIS62       0.1986
     10  NE2       -0.8000    1.3800    8.9210 N.ar   62  HIS62      -0.2212
     11  N        -12.6980    6.1250   11.1430 N.3    90  GLN90      -0.1245
     12  CA       -12.4240    4.9630   10.3080 C.3    90  GLN90       0.1566
     13  C        -12.6820    3.7000   11.0950 C.2    90  GLN90       0.2260
     14  O        -12.7110    3.7240   12.3280 O.2    90  GLN90      -0.2867
     15  CB       -10.9690    4.9810    9.8130 C.3    90  GLN90       0.0367
     16  CG        -9.9190    5.1060   10.9140 C.3    90  GLN90       0.0905
     17  CD        -9.1610    3.8240   11.2120 C.2    90  GLN90       0.2608
     18  OE1       -9.7010    2.7220   11.1400 O.2    90  GLN90      -0.2717
     19  NE2       -7.9100    3.9720   11.6100 N.am   90  GLN90      -0.0878
     20  N        -11.2620   -0.5780   10.8760 N.3    92  HIS92      -0.1241
     21  CA       -10.3800   -1.5580   10.2670 C.3    92  HIS92       0.1621
     22  C        -10.4430   -2.8240   11.1120 C.2    92  HIS92       0.2264
     23  O        -11.0700   -2.8480   12.1750 O.2    92  HIS92      -0.2867
     24  CB        -8.9540   -1.0250   10.2240 C.3    92  HIS92       0.0745
     25  CG        -8.4000   -0.7600   11.5800 C.ar   92  HIS92       0.0817
     26  ND1       -8.5680    0.4410   12.2320 N.ar   92  HIS92      -0.2268
     27  CD2       -7.7520   -1.5700   12.4480 C.ar   92  HIS92       0.1154
     28  CE1       -8.0280    0.3640   13.4360 C.ar   92  HIS92       0.1986
     29  NE2       -7.5390   -0.8500   13.5950 N.ar   92  HIS92      -0.2212
     30  N         -8.0870   -6.5180   12.4510 N.3    94  HIS94      -0.1241
     31  CA        -6.8720   -7.3210   12.5990 C.3    94  HIS94       0.1621
     32  C         -7.3150   -8.7680   12.5030 C.2    94  HIS94       0.2264
     33  O         -8.3800   -9.1180   13.0130 O.2    94  HIS94      -0.2867
     34  CB        -6.1880   -7.0600   13.9470 C.3    94  HIS94       0.0745
     35  CG        -5.9210   -5.6110   14.2090 C.ar   94  HIS94       0.0817
     36  ND1       -4.6920   -5.0290   13.9870 N.ar   94  HIS94      -0.2268
     37  CD2       -6.7340   -4.6130   14.6340 C.ar   94  HIS94       0.1154
     38  CE1       -4.7580   -3.7400   14.2750 C.ar   94  HIS94       0.1986
     39  NE2       -5.9840   -3.4620   14.6690 N.ar   94  HIS94      -0.2212
     40  N        -12.0570   -2.7400   14.8130 N.3   117  HIS117     -0.1241
     41  CA       -11.8130   -1.5120   15.5610 C.3   117  HIS117      0.1621
     42  C        -12.4870   -0.3460   14.8750 C.2   117  HIS117      0.2264
     43  O        -12.1150    0.0100   13.7550 O.2   117  HIS117     -0.2867
     44  CB       -10.3160   -1.2420   15.6520 C.3   117  HIS117      0.0745
     45  CG        -9.6160   -2.1930   16.5550 C.ar  117  HIS117      0.0817
     46  ND1       -8.2550   -2.4050   16.5350 N.ar  117  HIS117     -0.2268
     47  CD2      -10.1130   -3.0200   17.5040 C.ar  117  HIS117      0.1154
     48  CE1       -7.9440   -3.3090   17.4430 C.ar  117  HIS117      0.1986
     49  NE2       -9.0520   -3.6960   18.0480 N.ar  117  HIS117     -0.2212
     50  N        -12.8310    3.4350   15.1700 N.3   119  VAL119     -0.1245
     51  CA       -11.9680    4.4490   15.7740 C.3   119  VAL119      0.1561
     52  C        -12.6690    5.8040   15.7940 C.2   119  VAL119      0.2260
     53  O        -13.1300    6.2800   14.7540 O.2   119  VAL119     -0.2867
     54  CB       -10.6530    4.5660   14.9750 C.3   119  VAL119      0.0252
     55  CG1       -9.7250    5.5970   15.6050 C.3   119  VAL119      0.0019
     56  CG2       -9.9680    3.2080   14.8600 C.3   119  VAL119      0.0019
     57  N         -8.1280   14.8690   14.6860 N.3   128  PHE128     -0.1227
     58  CA        -7.5890   13.5830   15.0890 C.3   128  PHE128      0.1736
     59  C         -6.1400   13.6920   15.5470 C.2   128  PHE128      0.2596
     60  O         -5.7590   13.0880   16.5470 O.2   128  PHE128     -0.2718
     61  CB        -7.7210   12.6020   13.9240 C.3   128  PHE128      0.0547
     62  CG        -7.1450   11.2460   14.1990 C.ar  128  PHE128     -0.0202
     63  CD1       -7.9050   10.2660   14.8130 C.ar  128  PHE128     -0.0042
     64  CD2       -5.8390   10.9440   13.8400 C.ar  128  PHE128     -0.0042
     65  CE1       -7.3760    9.0130   15.0680 C.ar  128  PHE128     -0.0003
     66  CE2       -5.3050    9.6950   14.0960 C.ar  128  PHE128     -0.0003
     67  CZ        -6.0770    8.7280   14.7080 C.ar  128  PHE128     -0.0000
     68  N         -5.3360   14.4630   14.8170 N.am  129  GLY129     -0.1957
     69  CA        -3.9230   14.6150   15.1430 C.3   129  GLY129      0.1869
     70  C         -3.6900   15.2200   16.5150 C.2   129  GLY129      0.2309
     71  O         -2.7520   14.8500   17.2130 O.2   129  GLY129     -0.2863
     72  N         -4.8870   12.4580   19.3750 N.3   132  VAL132     -0.1245
     73  CA        -3.9890   11.3540   19.7480 C.3   132  VAL132      0.1561
     74  C         -2.8870   11.7770   20.7170 C.2   132  VAL132      0.2260
     75  O         -2.1970   10.9230   21.2690 O.2   132  VAL132     -0.2867
     76  CB        -3.3560   10.6240   18.5390 C.3   132  VAL132      0.0252
     77  CG1       -4.4300    9.9740   17.6840 C.3   132  VAL132      0.0019
     78  CG2       -2.4790   11.5550   17.7080 C.3   132  VAL132      0.0019
     79  N        -11.9460    3.6740   21.0190 N.3   140  VAL140     -0.1245
     80  CA       -11.9940    2.6150   20.0200 C.3   140  VAL140      0.1561
     81  C        -12.9470    1.5500   20.5210 C.2   140  VAL140      0.2260
     82  O        -12.8090    1.0400   21.6400 O.2   140  VAL140     -0.2867
     83  CB       -10.6060    2.0340   19.6750 C.3   140  VAL140      0.0252
     84  CG1      -10.7380    1.0060   18.5620 C.3   140  VAL140      0.0019
     85  CG2       -9.6530    3.1430   19.2420 C.3   140  VAL140      0.0019
     86  N         -3.0410    3.0690   21.2120 N.3   195  LEU195     -0.1231
     87  CA        -3.0460    2.5350   19.8580 C.3   195  LEU195      0.1693
     88  C         -2.3120    1.1950   19.8730 C.2   195  LEU195      0.2593
     89  O         -1.3100    1.0440   20.5800 O.2   195  LEU195     -0.2718
     90  CB        -2.3290    3.4740   18.8930 C.3   195  LEU195      0.0284
     91  CG        -2.7750    4.9320   18.8700 C.3   195  LEU195      0.0019
     92  CD1       -1.9510    5.7110   17.8590 C.3   195  LEU195      0.0001
     93  CD2       -4.2550    5.0480   18.5580 C.3   195  LEU195      0.0001
     94  N         -2.7700    0.2380   19.0720 N.am  196  THR196     -0.1939
     95  CA        -2.1050   -1.0660   19.0280 C.3   196  THR196      0.2028
     96  C         -1.0930   -1.1660   17.8900 C.2   196  THR196      0.2643
     97  O         -0.4860   -2.2200   17.7120 O.2   196  THR196     -0.2714
     98  CB        -3.1020   -2.2160   18.8850 C.3   196  THR196      0.1808
     99  OG1       -3.7020   -2.1480   17.5910 O.3   196  THR196     -0.2208
    100  CG2       -4.1620   -2.1770   19.9790 C.3   196  THR196      0.0379
    101  N         -0.9120   -0.0890   17.1240 N.am  197  THR197     -0.1937
    102  CA         0.1740   -0.0060   16.1490 C.3   197  THR197      0.2013
    103  C          0.9690    1.2490   16.4410 C.2   197  THR197      0.2484
    104  O          0.4510    2.1890   17.0460 O.2   197  THR197     -0.2729
    105  CB        -0.3250    0.0790   14.6970 C.3   197  THR197      0.1807
    106  OG1       -1.0540    1.2930   14.5050 O.3   197  THR197     -0.2208
    107  CG2       -1.2040   -1.0820   14.3530 C.3   197  THR197      0.0379
    108  N          2.2330    1.2920   15.9950 N.am  198  PRO198     -0.2715
    109  CA         2.9770    2.5470   16.0560 C.3   198  PRO198      0.1521
    110  C          2.1180    3.6900   15.5120 C.2   198  PRO198      0.2440
    111  O          1.4310    3.4950   14.5120 O.2   198  PRO198     -0.2731
    112  CB         4.1890    2.2520   15.1810 C.3   198  PRO198      0.0310
    113  CG         4.4300    0.8020   15.4300 C.3   198  PRO198      0.0237
    114  CD         3.0510    0.2110   15.4180 C.3   198  PRO198      0.0939
    115  N          2.1160    4.8620   16.1470 N.am  199  PRO199     -0.2727
    116  CA         3.0450    5.2640   17.2110 C.3   199  PRO199      0.1402
    117  C          2.7170    4.8100   18.6520 C.2   199  PRO199      0.2269
    118  O          3.3740    5.2750   19.5810 O.2   199  PRO199     -0.2865
    119  CB         3.0190    6.7950   17.1070 C.3   199  PRO199      0.0296
    120  CG         1.6540    7.1060   16.5830 C.3   199  PRO199      0.0237
    121  CD         1.3420    6.0000   15.6190 C.3   199  PRO199      0.0939
    122  N          0.5110    5.4380   20.8090 N.3   201  LEU201     -0.1245
    123  CA         0.2080    6.5270   21.7240 C.3   201  LEU201      0.1561
    124  C         -0.8480    6.1230   22.7440 C.2   201  LEU201      0.2260
    125  O         -1.8150    5.4260   22.4250 O.2   201  LEU201     -0.2867
    126  CB        -0.2480    7.7590   20.9400 C.3   201  LEU201      0.0270
    127  CG         0.8230    8.3560   20.0220 C.3   201  LEU201      0.0019
    128  CD1        0.2100    9.4010   19.1080 C.3   201  LEU201      0.0001
    129  CD2        1.9610    8.9680   20.8230 C.3   201  LEU201      0.0001
    130  N        -10.5460    2.2100   25.5990 N.3   206  TRP206     -0.1241
    131  CA       -10.9810    0.9960   24.9200 C.3   206  TRP206      0.1605
    132  C        -12.3450    0.5750   25.4280 C.2   206  TRP206      0.2264
    133  O        -12.5820    0.5550   26.6350 O.2   206  TRP206     -0.2867
    134  CB        -9.9600   -0.1400   25.1170 C.3   206  TRP206      0.0550
    135  CG        -8.8610   -0.0180   24.1310 C.ar  206  TRP206      0.0003
    136  CD1       -7.6480    0.5680   24.3100 C.ar  206  TRP206      0.0946
    137  CD2       -8.9160   -0.4260   22.7650 C.ar  206  TRP206      0.0152
    138  NE1       -6.9350    0.5410   23.1380 N.ar  206  TRP206     -0.2442
    139  CE2       -7.6910   -0.0720   22.1730 C.ar  206  TRP206      0.0810
    140  CE3       -9.8840   -1.0730   21.9860 C.ar  206  TRP206      0.0012
    141  CZ2       -7.4110   -0.3330   20.8370 C.ar  206  TRP206      0.0191
    142  CZ3       -9.6020   -1.3430   20.6710 C.ar  206  TRP206      0.0001
    143  CH2       -8.3750   -0.9740   20.1040 C.ar  206  TRP206      0.0015
@<TRIPOS>BOND
     1     1     2    1
     2     2     3    1
     3     2     5    1
     4     3     4    2
     5     8    10   ar
     6     8     6   ar
     7     5     6    1
     8    10     9   ar
     9     6     7   ar
    10     9     7   ar
    11    15    12    1
    12    15    16    1
    13    24    21    1
    14    24    25    1
    15    21    20    1
    16    21    22    1
    17    12    13    1
    18    12    11    1
    19    16    17    1
    20    13    14    2
    21    22    23    2
    22    18    17    2
    23    17    19   am
    24    25    26   ar
    25    25    27   ar
    26    26    28   ar
    27    27    29   ar
    28    30    31    1
    29    32    31    1
    30    32    33    2
    31    31    34    1
    32    28    29   ar
    33    43    42    2
    34    64    66   ar
    35    64    62   ar
    36    61    62    1
    37    61    58    1
    38    34    35    1
    39    36    35   ar
    40    36    38   ar
    41    66    67   ar
    42    62    63   ar
    43    35    37   ar
    44    38    39   ar
    45   107   105    1
    46   106   105    1
    47   111   110    2
    48    37    39   ar
    49    57    58    1
    50   105   102    1
    51    67    65   ar
    52    53    52    2
    53    40    41    1
    54    63    65   ar
    55    68    69    1
    56    68    59   am
    57    56    54    1
    58    42    41    1
    59    54    55    1
    60    54    51    1
    61    58    59    1
    62    69    70    1
    63    50    51    1
    64   112   113    1
    65   112   109    1
    66   114   113    1
    67   114   108    1
    68   110   109    1
    69   110   115   am
    70    59    60    2
    71    41    44    1
    72   121   115    1
    73   121   120    1
    74    44    45    1
    75    51    52    1
    76   108   109    1
    77   108   103   am
    78   115   116    1
    79   102   103    1
    80   102   101    1
    81   103   104    2
    82    70    71    2
    83    46    45   ar
    84    46    48   ar
    85    45    47   ar
    86   120   119    1
    87   119   116    1
    88   101    96   am
    89   116   117    1
    90    48    49   ar
    91    47    49   ar
    92    99    98    1
    93    77    76    1
    94    78    76    1
    95    97    96    2
    96    92    91    1
    97    96    95    1
    98    76    73    1
    99    93    91    1
   100    84    83    1
   101   117   118    2
   102    91    90    1
   103    98    95    1
   104    98   100    1
   105    90    87    1
   106    95    94    1
   107    94    88   am
   108   128   127    1
   109    85    83    1
   110    72    73    1
   111    83    80    1
   112    73    74    1
   113    87    88    1
   114    87    86    1
   115    88    89    2
   116    80    81    1
   117    80    79    1
   118   127   129    1
   119   127   126    1
   120   143   142   ar
   121   143   141   ar
   122    81    82    2
   123   142   140   ar
   124    74    75    2
   125   122   123    1
   126   141   139   ar
   127   126   123    1
   128   123   124    1
   129   140   137   ar
   130   139   137   ar
   131   139   138   ar
   132   125   124    2
   133   137   135   ar
   134   138   136   ar
   135   135   136   ar
   136   135   134    1
   137   131   134    1
   138   131   132    1
   139   131   130    1
   140   132   133    2
