@<TRIPOS>MOLECULE
tmp/5ljwA00.pdb
 161 149 0 0 0
SMALL
GASTEIGER

@<TRIPOS>ATOM
      1  N          1.1910  -16.8290   -6.0700 N.3    16  GLY16      -0.1210
      2  CA         1.2080  -15.7140   -6.9940 C.3    16  GLY16       0.1956
      3  C          0.4520  -14.4980   -6.5310 C.2    16  GLY16       0.2613
      4  O         -0.3320  -14.5330   -5.5500 O.2    16  GLY16      -0.2717
      5  N          0.6140  -13.4310   -7.3040 N.am   17  THR17      -0.1938
      6  CA        -0.0460  -12.1610   -7.0360 C.3    17  THR17       0.2028
      7  C         -1.5560  -12.2950   -7.1620 C.2    17  THR17       0.2643
      8  O         -2.2730  -11.8070   -6.3250 O.2    17  THR17      -0.2714
      9  CB         0.4310  -11.0600   -8.0070 C.3    17  THR17       0.1808
     10  OG1        0.2130  -11.5330   -9.3220 O.3    17  THR17      -0.2208
     11  CG2        1.9580  -10.7580   -7.8230 C.3    17  THR17       0.0379
     12  N         -2.0340  -12.9270   -8.2210 N.am   18  SER18      -0.1935
     13  CA        -3.4760  -13.0110   -8.4630 C.3    18  SER18       0.2055
     14  C         -4.0730  -14.3610   -8.0270 C.2    18  SER18       0.2643
     15  O         -5.2230  -14.4220   -7.5650 O.2    18  SER18      -0.2714
     16  CB        -3.7640  -12.7380   -9.9310 C.3    18  SER18       0.2130
     17  OG        -3.4500  -13.8790  -10.6810 O.3    18  SER18      -0.2179
     18  N         -3.2890  -15.4240   -8.1070 N.am   19  HIS19      -0.1973
     19  CA        -3.7650  -16.7710   -7.8150 C.3    19  HIS19       0.1656
     20  C         -2.7240  -17.5790   -7.0800 C.2    19  HIS19       0.2291
     21  O         -1.5070  -17.4020   -7.2860 O.2    19  HIS19      -0.2864
     22  CB        -4.1480  -17.5200   -9.1010 C.3    19  HIS19       0.0771
     23  CG        -5.4010  -17.0210   -9.7370 C.ar   19  HIS19       0.0820
     24  ND1       -5.4010  -16.0060  -10.6680 N.ar   19  HIS19      -0.2267
     25  CD2       -6.6930  -17.4000   -9.5890 C.ar   19  HIS19       0.1154
     26  CE1       -6.6420  -15.7780  -11.0700 C.ar   19  HIS19       0.1986
     27  NE2       -7.4470  -16.5970  -10.4180 N.ar   19  HIS19      -0.2212
     28  N          0.6480   -6.4590   -6.3580 N.3    73  ASP73      -0.1239
     29  CA         1.1620   -6.6840   -7.7170 C.3    73  ASP73       0.1674
     30  C          2.5520   -6.1020   -7.9710 C.2    73  ASP73       0.2266
     31  O          2.7100   -5.1070   -8.6810 O.2    73  ASP73      -0.2867
     32  CB         0.1970   -6.1100   -8.7600 C.3    73  ASP73       0.1410
     33  CG         0.5830   -6.4930  -10.2100 C.2    73  ASP73       0.3668
     34  OD1        1.6280   -7.1610  -10.4060 O.co2  73  ASP73      -0.2456
     35  OD2       -0.1500   -6.1160  -11.1580 O.co2  73  ASP73      -0.2456
     36  N          9.5130  -17.7430   -9.0370 N.3   140  GLU140     -0.1245
     37  CA         8.6350  -18.3680  -10.0110 C.3   140  GLU140      0.1567
     38  C          9.3630  -18.9580  -11.2320 C.2   140  GLU140      0.2260
     39  O          9.0970  -20.1010  -11.6060 O.2   140  GLU140     -0.2867
     40  CB         7.5860  -17.3540  -10.4760 C.3   140  GLU140      0.0388
     41  CG         6.7250  -17.9210  -11.5550 C.3   140  GLU140      0.1160
     42  CD         5.4100  -17.2120  -11.6560 C.2   140  GLU140      0.3649
     43  OE1        5.3440  -16.0060  -11.3340 O.co2 140  GLU140     -0.2457
     44  OE2        4.4550  -17.8610  -12.0750 O.co2 140  GLU140     -0.2457
     45  N          7.5430  -14.8100  -18.9600 N.3   158  ASP158     -0.1239
     46  CA         6.3140  -15.0020  -18.2090 C.3   158  ASP158      0.1674
     47  C          5.3860  -13.7860  -18.4370 C.2   158  ASP158      0.2266
     48  O          5.5770  -12.7300  -17.8190 O.2   158  ASP158     -0.2867
     49  CB         6.6830  -15.2130  -16.7370 C.3   158  ASP158      0.1410
     50  CG         5.4930  -15.5050  -15.8550 C.2   158  ASP158      0.3668
     51  OD1        4.3680  -15.6990  -16.3900 O.co2 158  ASP158     -0.2456
     52  OD2        5.7010  -15.5220  -14.5990 O.co2 158  ASP158     -0.2456
     53  N          2.1850  -11.9590  -17.8100 N.3   160  GLY160     -0.1210
     54  CA         1.0800  -11.8980  -16.8760 C.3   160  GLY160      0.1956
     55  C          0.1370  -10.7520  -17.2430 C.2   160  GLY160      0.2612
     56  O         -0.0580  -10.4270  -18.4260 O.2   160  GLY160     -0.2717
     57  N         -0.5040  -10.1780  -16.2240 N.am  161  ALA161     -0.1965
     58  CA        -1.4380   -9.0650  -16.3950 C.3   161  ALA161      0.1728
     59  C         -0.7240   -7.7150  -16.2750 C.2   161  ALA161      0.2617
     60  O         -0.7560   -6.8840  -17.1900 O.2   161  ALA161     -0.2715
     61  CB        -2.5910   -9.1620  -15.3410 C.3   161  ALA161      0.0334
     62  N         -0.0740   -7.4860  -15.1330 N.am  162  GLY162     -0.1940
     63  CA         0.6120   -6.2250  -14.8930 C.3   162  GLY162      0.2014
     64  C          2.0310   -6.1480  -15.4600 C.2   162  GLY162      0.2639
     65  O          2.4970   -5.0820  -15.8530 O.2   162  GLY162     -0.2714
     66  N          2.7170   -7.2840  -15.5100 N.am  163  THR163     -0.1950
     67  CA         4.0740   -7.3220  -15.9940 C.3   163  THR163      0.1897
     68  C          4.3350   -8.5490  -16.8540 C.2   163  THR163      0.2313
     69  O          3.6670   -9.5620  -16.7080 O.2   163  THR163     -0.2863
     70  CB         5.0890   -7.3480  -14.8230 C.3   163  THR163      0.1794
     71  OG1        4.7760   -8.4520  -13.9610 O.3   163  THR163     -0.2208
     72  CG2        4.9800   -6.0840  -14.0090 C.3   163  THR163      0.0378
     73  N          7.5430  -10.8280  -17.0820 N.3   165  ASP165     -0.1239
     74  CA         8.7740  -11.0630  -16.3500 C.3   165  ASP165      0.1674
     75  C          9.6290  -12.0560  -17.1130 C.2   165  ASP165      0.2266
     76  O          9.2150  -13.1740  -17.4050 O.2   165  ASP165     -0.2867
     77  CB         8.4460  -11.5570  -14.9440 C.3   165  ASP165      0.1410
     78  CG         7.5990  -10.5530  -14.1810 C.2   165  ASP165      0.3668
     79  OD1        8.1480   -9.5100  -13.7700 O.co2 165  ASP165     -0.2456
     80  OD2        6.4000  -10.7980  -13.9940 O.co2 165  ASP165     -0.2456
     81  N         -0.6680   -8.2360  -20.1570 N.3   186  GLY186     -0.1210
     82  CA        -2.0730   -8.4270  -20.4590 C.3   186  GLY186      0.1956
     83  C         -2.9420   -7.1860  -20.2810 C.2   186  GLY186      0.2611
     84  O         -3.8380   -6.9200  -21.0790 O.2   186  GLY186     -0.2717
     85  N         -2.7210   -6.4330  -19.2070 N.am  187  ASN187     -0.1974
     86  CA        -3.5280   -5.2290  -18.9640 C.3   187  ASN187      0.1688
     87  C         -3.3450   -4.2120  -20.0860 C.2   187  ASN187      0.2292
     88  O         -4.2940   -3.5800  -20.5390 O.2   187  ASN187     -0.2864
     89  CB        -3.1520   -4.5820  -17.6270 C.3   187  ASN187      0.1181
     90  CG        -3.5140   -5.4310  -16.4520 C.2   187  ASN187      0.2629
     91  OD1       -4.3100   -6.3540  -16.5490 O.2   187  ASN187     -0.2716
     92  ND2       -2.9440   -5.0970  -15.2950 N.am  187  ASN187     -0.0877
     93  N         -5.2340   -5.2330  -23.0640 N.3   190  ASP190     -0.1239
     94  CA        -6.6330   -4.9030  -22.8800 C.3   190  ASP190      0.1674
     95  C         -6.8860   -3.4590  -23.3060 C.2   190  ASP190      0.2266
     96  O         -7.8770   -3.1600  -24.0000 O.2   190  ASP190     -0.2867
     97  CB        -7.0900   -5.0950  -21.4300 C.3   190  ASP190      0.1410
     98  CG        -7.0190   -6.5380  -20.9580 C.2   190  ASP190      0.3668
     99  OD1       -6.8640   -7.4540  -21.8010 O.co2 190  ASP190     -0.2456
    100  OD2       -7.1210   -6.7460  -19.7140 O.co2 190  ASP190     -0.2456
    101  N        -10.8600   -7.3130  -22.3710 N.3   212  CYS212     -0.1235
    102  CA       -10.1720   -8.4860  -21.8390 C.3   212  CYS212      0.1677
    103  C        -10.8900   -9.7680  -22.2720 C.2   212  CYS212      0.2270
    104  O        -10.2460  -10.7350  -22.6410 O.2   212  CYS212     -0.2867
    105  CB       -10.0750   -8.4070  -20.3130 C.3   212  CYS212      0.0956
    106  SG        -9.2910   -9.9130  -19.6090 S.3   212  CYS212     -0.0801
    107  N        -10.1240  -10.4170  -25.9310 N.3   215  LYS215     -0.1231
    108  CA        -8.7520  -10.9310  -25.9360 C.3   215  LYS215      0.1693
    109  C         -8.7000  -12.4020  -25.5440 C.2   215  LYS215      0.2591
    110  O         -8.1120  -13.2210  -26.2420 O.2   215  LYS215     -0.2718
    111  CB        -7.9180  -10.0950  -24.9930 C.3   215  LYS215      0.0285
    112  CG        -6.4990  -10.5760  -24.8480 C.3   215  LYS215      0.0035
    113  CD        -5.7930   -9.8790  -23.6910 C.3   215  LYS215      0.0206
    114  CE        -6.2140  -10.4650  -22.3850 C.3   215  LYS215      0.1093
    115  NZ        -5.5920   -9.6800  -21.2540 N.3   215  LYS215     -0.1314
    116  N         -9.3140  -12.7460  -24.4290 N.am  216  GLU216     -0.1979
    117  CA        -9.2160  -14.1060  -23.9180 C.3   216  GLU216      0.1602
    118  C         -9.9300  -15.0780  -24.8420 C.2   216  GLU216      0.2287
    119  O         -9.5460  -16.2370  -24.9340 O.2   216  GLU216     -0.2864
    120  CB        -9.7580  -14.1920  -22.4830 C.3   216  GLU216      0.0415
    121  CG        -8.7930  -13.5160  -21.4570 C.3   216  GLU216      0.1163
    122  CD        -9.1820  -13.7090  -20.0160 C.2   216  GLU216      0.3649
    123  OE1      -10.2550  -14.3020  -19.7770 O.co2 216  GLU216     -0.2457
    124  OE2       -8.4600  -13.2050  -19.1160 O.co2 216  GLU216     -0.2457
    125  N         -7.4300  -14.1150  -28.7040 N.3   219  SER219     -0.1217
    126  CA        -6.0420  -13.6330  -28.8170 C.3   219  SER219      0.1889
    127  C         -5.2360  -14.4230  -29.8320 C.2   219  SER219      0.2288
    128  O         -5.2690  -15.6460  -29.8640 O.2   219  SER219     -0.2866
    129  CB        -5.3140  -13.7170  -27.4770 C.3   219  SER219      0.2089
    130  OG        -5.3450  -15.0580  -27.0520 O.3   219  SER219     -0.2183
    131  N          2.8120  -18.0720  -18.1620 N.3   285  GLY285     -0.1210
    132  CA         1.8400  -17.0800  -17.7350 C.3   285  GLY285      0.1956
    133  C          0.6010  -17.0670  -18.6060 C.2   285  GLY285      0.2612
    134  O          0.5500  -17.7440  -19.6210 O.2   285  GLY285     -0.2717
    135  N         -0.3990  -16.2890  -18.2110 N.am  286  GLY286     -0.1942
    136  CA        -1.6490  -16.2430  -18.9750 C.3   286  GLY286      0.2014
    137  C         -1.4770  -15.8720  -20.4220 C.2   286  GLY286      0.2639
    138  O         -2.2000  -16.3750  -21.3060 O.2   286  GLY286     -0.2714
    139  N         -0.5000  -15.0070  -20.6880 N.am  287  GLY287     -0.1954
    140  CA        -0.2410  -14.5190  -22.0300 C.3   287  GLY287      0.1869
    141  C          0.4010  -15.5370  -22.9680 C.2   287  GLY287      0.2309
    142  O          0.3660  -15.3680  -24.1850 O.2   287  GLY287     -0.2863
    143  N         -0.8180  -18.2100  -23.5750 N.3   289  ARG289     -0.1231
    144  CA        -1.9470  -18.8440  -24.2850 C.3   289  ARG289      0.1694
    145  C         -2.3060  -18.1760  -25.6260 C.2   289  ARG289      0.2591
    146  O         -3.1740  -18.6930  -26.3540 O.2   289  ARG289     -0.2718
    147  CB        -3.1990  -18.8360  -23.4190 C.3   289  ARG289      0.0321
    148  CG        -3.0720  -19.5860  -22.0610 C.3   289  ARG289      0.0489
    149  CD        -4.3020  -19.3820  -21.3000 C.3   289  ARG289      0.2205
    150  NE        -4.2030  -19.7970  -19.9030 N.pl3 289  ARG289     -0.0865
    151  CZ        -4.3040  -21.0590  -19.5180 C.cat 289  ARG289      0.5346
    152  NH1       -4.4660  -22.0400  -20.4280 N.pl3 289  ARG289      0.1354
    153  NH2       -4.2400  -21.3350  -18.2320 N.pl3 289  ARG289      0.1354
    154  N         -1.6760  -17.0420  -25.9430 N.am  290  ILE290     -0.1980
    155  CA        -1.9750  -16.3210  -27.1950 C.3   290  ILE290      0.1595
    156  C         -1.7670  -17.2380  -28.4240 C.2   290  ILE290      0.2287
    157  O         -0.7370  -17.8900  -28.5850 O.2   290  ILE290     -0.2864
    158  CB        -1.1160  -15.0490  -27.3480 C.3   290  ILE290      0.0276
    159  CG1       -1.5380  -13.9910  -26.3140 C.3   290  ILE290      0.0022
    160  CG2       -1.2150  -14.4580  -28.7360 C.3   290  ILE290      0.0022
    161  CD1       -0.5180  -12.8660  -26.1660 C.3   290  ILE290      0.0001
@<TRIPOS>BOND
     1   128   127    2
     2   127   126    1
     3   126   125    1
     4   126   129    1
     5   160   158    1
     6   157   156    2
     7   156   155    1
     8   129   130    1
     9   158   155    1
    10   158   159    1
    11   155   154    1
    12   146   145    2
    13   159   161    1
    14   110   109    2
    15   154   145   am
    16   108   107    1
    17   108   109    1
    18   108   111    1
    19   145   144    1
    20   109   116   am
    21   111   112    1
    22   119   118    2
    23   112   113    1
    24   118   117    1
    25   116   117    1
    26   144   143    1
    27   144   147    1
    28   142   141    2
    29    96    95    2
    30   117   120    1
    31   113   114    1
    32   147   148    1
    33    95    94    1
    34    93    94    1
    35   141   140    1
    36    94    97    1
    37   104   103    2
    38   120   121    1
    39   114   115    1
    40   101   102    1
    41   103   102    1
    42   148   149    1
    43   140   139    1
    44   102   105    1
    45    99    98   ar
    46   121   122    1
    47    97    98    1
    48   138   137    2
    49   149   150    1
    50    84    83    2
    51    98   100   ar
    52   139   137   am
    53    88    87    2
    54    82    83    1
    55    82    81    1
    56   152   151    1
    57   137   136    1
    58   105   106    1
    59    83    85   am
    60    87    86    1
    61   122   123   ar
    62   122   124   ar
    63   150   151    2
    64   134   133    2
    65   151   153    1
    66    85    86    1
    67   136   135    1
    68    86    89    1
    69    45    46    1
    70   133   135   am
    71   133   132    1
    72    47    46    1
    73    47    48    2
    74    56    55    2
    75    46    49    1
    76   131   132    1
    77    53    54    1
    78    89    90    1
    79    76    75    2
    80    55    54    1
    81    55    57   am
    82    60    59    2
    83    75    74    1
    84    73    74    1
    85    68    69    2
    86    68    67    1
    87    49    50    1
    88    91    90    2
    89    90    92   am
    90    58    59    1
    91    58    57    1
    92    58    61    1
    93    51    50   ar
    94    74    77    1
    95    59    62   am
    96    67    66    1
    97    67    70    1
    98    50    52   ar
    99    65    64    2
   100    66    64   am
   101    64    63    1
   102    62    63    1
   103    77    78    1
   104    70    72    1
   105    70    71    1
   106    78    80   ar
   107    78    79   ar
   108    44    42   ar
   109    42    41    1
   110    42    43   ar
   111    39    38    2
   112    41    40    1
   113    38    37    1
   114    35    33   ar
   115    26    24   ar
   116    26    27   ar
   117    17    16    1
   118    24    23   ar
   119    40    37    1
   120    27    25   ar
   121    34    33   ar
   122    33    32    1
   123    37    36    1
   124    16    13    1
   125    23    25   ar
   126    23    22    1
   127    10     9    1
   128    22    19    1
   129    32    29    1
   130    31    30    2
   131    13    12    1
   132    13    14    1
   133    12     7   am
   134    18    14   am
   135    18    19    1
   136    14    15    2
   137     9    11    1
   138     9     6    1
   139    30    29    1
   140    19    20    1
   141    29    28    1
   142     5     6    1
   143     5     3   am
   144    21    20    2
   145     7     6    1
   146     7     8    2
   147     2     3    1
   148     2     1    1
   149     3     4    2
