@<TRIPOS>MOLECULE
tmp/5ljzA01.pdb
 68 66 0 0 0
SMALL
GASTEIGER

@<TRIPOS>ATOM
      1  N        -15.8220   13.8730   -2.0390 N.3   196  PHE196     -0.1227
      2  CA       -16.1160   14.7380   -0.8750 C.3   196  PHE196      0.1736
      3  C        -17.4060   15.4910   -1.0180 C.2   196  PHE196      0.2596
      4  O        -18.0190   15.9220   -0.0330 O.2   196  PHE196     -0.2718
      5  CB       -15.0090   15.7500   -0.6470 C.3   196  PHE196      0.0547
      6  CG       -13.7870   15.1900   -0.0230 C.ar  196  PHE196     -0.0202
      7  CD1      -13.8280   14.5640    1.1990 C.ar  196  PHE196     -0.0042
      8  CD2      -12.5790   15.3010   -0.6780 C.ar  196  PHE196     -0.0042
      9  CE1      -12.6900   14.0740    1.7710 C.ar  196  PHE196     -0.0003
     10  CE2      -11.4330   14.8030   -0.1170 C.ar  196  PHE196     -0.0003
     11  CZ       -11.4860   14.1890    1.1160 C.ar  196  PHE196     -0.0000
     12  N        -17.8400   15.7040   -2.2390 N.am  197  GLY197     -0.1957
     13  CA       -19.1230   16.3460   -2.3800 C.3   197  GLY197      0.1869
     14  C        -19.8930   15.6020   -3.4200 C.2   197  GLY197      0.2309
     15  O        -19.5700   14.4390   -3.7070 O.2   197  GLY197     -0.2863
     16  N        -19.3990   15.0230   -6.2000 N.3   199  LEU199     -0.1245
     17  CA       -18.0690   15.2600   -6.7080 C.3   199  LEU199      0.1561
     18  C        -17.9770   14.8340   -8.1770 C.2   199  LEU199      0.2260
     19  O        -16.9540   14.3250   -8.6770 O.2   199  LEU199     -0.2867
     20  CB       -17.0310   14.5890   -5.7970 C.3   199  LEU199      0.0270
     21  CG       -16.3290   15.5240   -4.7810 C.3   199  LEU199      0.0019
     22  CD1      -14.8680   15.1520   -4.3720 C.3   199  LEU199      0.0001
     23  CD2      -16.3920   16.9910   -5.1740 C.3   199  LEU199      0.0001
     24  N        -16.9860   16.9150  -10.7400 N.3   201  GLY201     -0.1209
     25  CA       -15.9250   17.8140  -10.3630 C.3   201  GLY201      0.1959
     26  C        -14.7400   16.9230  -10.3050 C.2   201  GLY201      0.2652
     27  O        -13.9520   16.9210  -11.2610 O.2   201  GLY201     -0.2714
     28  N        -14.6600   16.1470   -9.2070 N.am  202  GLY202     -0.1718
     29  CA       -13.5770   15.1810   -9.0190 C.2   202  GLY202      0.1480
     30  C        -13.5740   14.4270   -7.7060 C.2   202  GLY202      0.2821
     31  O        -14.5630   14.3780   -7.0240 O.2   202  GLY202     -0.2669
     32  N        -12.4450   13.8230   -7.3690 N.am  203  GLY203     -0.1905
     33  CA       -12.2850   13.1080   -6.1050 C.3   203  GLY203      0.2017
     34  C        -10.8250   12.8320   -5.8360 C.2   203  GLY203      0.2638
     35  O         -9.9080   13.3990   -6.4900 O.2   203  GLY203     -0.2714
     36  N        -10.6030   11.9660   -4.8450 N.am  204  LEU204     -0.1977
     37  CA        -9.2650   11.5400   -4.4490 C.3   204  LEU204      0.1596
     38  C         -9.1280   10.0530   -4.5930 C.2   204  LEU204      0.2287
     39  O        -10.0810    9.3180   -4.3720 O.2   204  LEU204     -0.2864
     40  CB        -8.9580   11.9340   -2.9990 C.3   204  LEU204      0.0297
     41  CG        -8.8080   13.4110   -2.6430 C.3   204  LEU204      0.0022
     42  CD1       -8.5400   13.5100   -1.1350 C.3   204  LEU204      0.0001
     43  CD2       -7.6730   14.0230   -3.4470 C.3   204  LEU204      0.0001
     44  N         -5.5130   13.6650   -6.6990 N.3   273  SER273     -0.1202
     45  CA        -6.8490   14.0120   -7.1600 C.3   273  SER273      0.2020
     46  C         -7.0900   13.5570   -8.6020 C.2   273  SER273      0.2619
     47  O         -6.1440   13.3470   -9.3830 O.2   273  SER273     -0.2717
     48  CB        -7.0680   15.5130   -7.0670 C.3   273  SER273      0.2103
     49  OG        -6.2640   16.1950   -8.0280 O.3   273  SER273     -0.2182
     50  N         -8.3630   13.3990   -8.9360 N.am  274  PHE274     -0.1961
     51  CA        -8.7660   13.2300  -10.3360 C.3   274  PHE274      0.1771
     52  C         -9.9740   14.0910  -10.5840 C.2   274  PHE274      0.2619
     53  O        -10.7040   14.4430   -9.6560 O.2   274  PHE274     -0.2715
     54  CB        -9.0660   11.7580  -10.6820 C.3   274  PHE274      0.0574
     55  CG       -10.1820   11.1560   -9.8630 C.ar  274  PHE274     -0.0200
     56  CD1       -9.9430   10.6930   -8.5570 C.ar  274  PHE274     -0.0042
     57  CD2      -11.4670   11.0620  -10.3820 C.ar  274  PHE274     -0.0042
     58  CE1      -10.9690   10.1600   -7.8180 C.ar  274  PHE274     -0.0003
     59  CE2      -12.5080   10.4930   -9.6680 C.ar  274  PHE274     -0.0003
     60  CZ       -12.2740   10.0550   -8.3660 C.ar  274  PHE274     -0.0000
     61  N        -10.2090   14.4330  -11.8500 N.am  275  ASN275     -0.1972
     62  CA       -11.3830   15.1960  -12.2230 C.3   275  ASN275      0.1688
     63  C        -12.3210   14.3470  -13.0650 C.2   275  ASN275      0.2292
     64  O        -11.9270   13.3500  -13.7090 O.2   275  ASN275     -0.2864
     65  CB       -11.0190   16.4690  -13.0070 C.3   275  ASN275      0.1181
     66  CG       -10.4850   17.5830  -12.1330 C.2   275  ASN275      0.2629
     67  OD1       -9.3410   17.5390  -11.7190 O.2   275  ASN275     -0.2716
     68  ND2      -11.3130   18.6250  -11.9140 N.am  275  ASN275     -0.0877
@<TRIPOS>BOND
     1    64    63    2
     2    63    62    1
     3    65    62    1
     4    65    66    1
     5    62    61    1
     6    66    68   am
     7    66    67    2
     8    61    52   am
     9    27    26    2
    10    24    25    1
    11    54    51    1
    12    54    55    1
    13    52    51    1
    14    52    53    2
    15    57    55   ar
    16    57    59   ar
    17    25    26    1
    18    51    50    1
    19    26    28    1
    20    55    56   ar
    21    59    60   ar
    22    47    46    2
    23    28    29    2
    24    29    30    1
    25    50    46   am
    26    19    18    2
    27    46    45    1
    28    56    58   ar
    29    60    58   ar
    30    18    17    1
    31    49    48    1
    32    30    32   am
    33    30    31    2
    34    32    33    1
    35    45    48    1
    36    45    44    1
    37    17    16    1
    38    17    20    1
    39    35    34    2
    40    33    34    1
    41    34    36   am
    42    20    21    1
    43    23    21    1
    44    36    37    1
    45    21    22    1
    46    38    37    1
    47    38    39    2
    48    37    40    1
    49    15    14    2
    50    43    41    1
    51    14    13    1
    52    40    41    1
    53    41    42    1
    54    13    12    1
    55    12     3   am
    56     1     2    1
    57     3     2    1
    58     3     4    2
    59     2     5    1
    60     8    10   ar
    61     8     6   ar
    62     5     6    1
    63    10    11   ar
    64     6     7   ar
    65    11     9   ar
    66     7     9   ar
