@<TRIPOS>MOLECULE
tmp/5lk3A01.pdb
 68 66 0 0 0
SMALL
GASTEIGER

@<TRIPOS>ATOM
      1  N         37.7540  -44.7590    1.9660 N.3   168  PHE168     -0.1227
      2  CA        37.4320  -45.5870    0.7870 C.3   168  PHE168      0.1736
      3  C         36.1000  -46.3240    0.9340 C.2   168  PHE168      0.2596
      4  O         35.2440  -46.3020    0.0390 O.2   168  PHE168     -0.2718
      5  CB        38.5330  -46.6070    0.5240 C.3   168  PHE168      0.0547
      6  CG        39.8000  -46.0390   -0.0290 C.ar  168  PHE168     -0.0202
      7  CD1       40.9620  -46.0910    0.7290 C.ar  168  PHE168     -0.0042
      8  CD2       39.8530  -45.5090   -1.3080 C.ar  168  PHE168     -0.0042
      9  CE1       42.1430  -45.6120    0.2340 C.ar  168  PHE168     -0.0003
     10  CE2       41.0280  -45.0290   -1.8160 C.ar  168  PHE168     -0.0003
     11  CZ        42.1910  -45.0820   -1.0390 C.ar  168  PHE168     -0.0000
     12  N         35.9100  -47.0170    2.0400 N.am  169  GLY169     -0.1957
     13  CA        34.6960  -47.8070    2.1500 C.3   169  GLY169      0.1869
     14  C         33.6710  -47.0180    2.9230 C.2   169  GLY169      0.2309
     15  O         33.7900  -45.8010    3.0340 O.2   169  GLY169     -0.2863
     16  N         33.8110  -46.0540    5.5760 N.3   171  LEU171     -0.1245
     17  CA        35.0260  -46.1750    6.3460 C.3   171  LEU171      0.1561
     18  C         34.9050  -45.5590    7.7310 C.2   171  LEU171      0.2260
     19  O         35.4600  -44.5040    8.0480 O.2   171  LEU171     -0.2867
     20  CB        36.2350  -45.6060    5.5850 C.3   171  LEU171      0.0270
     21  CG        37.0840  -46.7210    4.9370 C.3   171  LEU171      0.0019
     22  CD1       38.3930  -46.2290    4.3520 C.3   171  LEU171      0.0001
     23  CD2       37.3550  -47.8860    5.8930 C.3   171  LEU171      0.0001
     24  N         36.4130  -47.7590   10.8220 N.3   173  GLY173     -0.1209
     25  CA        37.5680  -48.5950   10.5640 C.3   173  GLY173      0.1959
     26  C         38.7940  -47.7490   10.3250 C.2   173  GLY173      0.2652
     27  O         39.6830  -47.7720   11.1750 O.2   173  GLY173     -0.2714
     28  N         38.8380  -47.0040    9.2060 N.am  174  GLY174     -0.1718
     29  CA        40.0010  -46.1580    8.9250 C.2   174  GLY174      0.1480
     30  C         39.9950  -45.3490    7.6370 C.2   174  GLY174      0.2821
     31  O         38.9900  -45.2710    6.9650 O.2   174  GLY174     -0.2669
     32  N         41.1310  -44.7460    7.2890 N.am  175  GLY175     -0.1905
     33  CA        41.2900  -44.0040    6.0450 C.3   175  GLY175      0.2017
     34  C         42.7590  -43.7260    5.7540 C.2   175  GLY175      0.2638
     35  O         43.6620  -44.2650    6.4060 O.2   175  GLY175     -0.2714
     36  N         43.0160  -42.9080    4.7380 N.am  176  LEU176     -0.1977
     37  CA        44.3610  -42.4520    4.3480 C.3   176  LEU176      0.1596
     38  C         44.4620  -40.9790    4.5130 C.2   176  LEU176      0.2287
     39  O         43.4980  -40.2260    4.2770 O.2   176  LEU176     -0.2864
     40  CB        44.6760  -42.7820    2.8800 C.3   176  LEU176      0.0297
     41  CG        44.8310  -44.2540    2.5290 C.3   176  LEU176      0.0022
     42  CD1       45.1250  -44.4220    1.0480 C.3   176  LEU176      0.0001
     43  CD2       45.9990  -44.8420    3.3510 C.3   176  LEU176      0.0001
     44  N         48.0900  -44.5580    6.5980 N.3   239  SER239     -0.1202
     45  CA        46.7430  -44.9100    7.0550 C.3   239  SER239      0.2020
     46  C         46.5010  -44.4420    8.4900 C.2   239  SER239      0.2619
     47  O         47.4450  -44.1970    9.2700 O.2   239  SER239     -0.2717
     48  CB        46.4980  -46.4280    6.9640 C.3   239  SER239      0.2103
     49  OG        47.3320  -47.0650    7.9330 O.3   239  SER239     -0.2182
     50  N         45.2250  -44.3260    8.8440 N.am  240  PHE240     -0.1961
     51  CA        44.8450  -44.1440   10.2410 C.3   240  PHE240      0.1771
     52  C         43.6360  -44.9660   10.5010 C.2   240  PHE240      0.2619
     53  O         42.8810  -45.2800    9.5750 O.2   240  PHE240     -0.2715
     54  CB        44.5850  -42.6660   10.5780 C.3   240  PHE240      0.0574
     55  CG        43.4570  -42.0500    9.7880 C.ar  240  PHE240     -0.0200
     56  CD1       42.1940  -41.9290   10.3290 C.ar  240  PHE240     -0.0042
     57  CD2       43.6510  -41.6100    8.4840 C.ar  240  PHE240     -0.0042
     58  CE1       41.1420  -41.3770    9.6180 C.ar  240  PHE240     -0.0003
     59  CE2       42.6090  -41.0610    7.7520 C.ar  240  PHE240     -0.0003
     60  CZ        41.3410  -40.9740    8.3290 C.ar  240  PHE240     -0.0000
     61  N         43.4060  -45.3040   11.7720 N.am  241  ASN241     -0.1972
     62  CA        42.2380  -46.0630   12.1390 C.3   241  ASN241      0.1688
     63  C         41.2860  -45.2300   12.9640 C.2   241  ASN241      0.2292
     64  O         41.6840  -44.2170   13.5790 O.2   241  ASN241     -0.2864
     65  CB        42.6380  -47.3210   12.9330 C.3   241  ASN241      0.1181
     66  CG        43.1210  -48.4550   12.0570 C.2   241  ASN241      0.2629
     67  OD1       44.2780  -48.5130   11.7060 O.2   241  ASN241     -0.2716
     68  ND2       42.2310  -49.3670   11.7130 N.am  241  ASN241     -0.0877
@<TRIPOS>BOND
     1    10     8   ar
     2    10    11   ar
     3     8     6   ar
     4    11     9   ar
     5     6     5    1
     6     6     7   ar
     7     4     3    2
     8     9     7   ar
     9     5     2    1
    10     2     3    1
    11     2     1    1
    12     3    12   am
    13    42    41    1
    14    12    13    1
    15    13    14    1
    16    41    40    1
    17    41    43    1
    18    40    37    1
    19    14    15    2
    20    39    38    2
    21    37    38    1
    22    37    36    1
    23    22    21    1
    24    36    34   am
    25    21    20    1
    26    21    23    1
    27    16    17    1
    28    20    17    1
    29    34    33    1
    30    34    35    2
    31    33    32    1
    32    17    18    1
    33    44    45    1
    34    48    45    1
    35    48    49    1
    36    31    30    2
    37    45    46    1
    38    32    30   am
    39    30    29    1
    40    18    19    2
    41    59    60   ar
    42    59    57   ar
    43    60    58   ar
    44    57    55   ar
    45    46    50   am
    46    46    47    2
    47    50    51    1
    48    29    28    2
    49    28    26    1
    50    53    52    2
    51    58    56   ar
    52    55    56   ar
    53    55    54    1
    54    51    52    1
    55    51    54    1
    56    26    25    1
    57    26    27    2
    58    52    61   am
    59    25    24    1
    60    67    66    2
    61    68    66   am
    62    61    62    1
    63    66    65    1
    64    62    65    1
    65    62    63    1
    66    63    64    2
