@<TRIPOS>MOLECULE
tmp/5lk4A02.pdb
 112 109 0 0 0
SMALL
GASTEIGER

@<TRIPOS>ATOM
      1  N         -9.7410  -21.2870   17.4610 N.3    49  LEU49      -0.1245
      2  CA        -9.2370  -20.2080   16.6290 C.3    49  LEU49       0.1561
      3  C         -9.3120  -20.5720   15.1450 C.2    49  LEU49       0.2260
      4  O         -8.9070  -21.6680   14.7670 O.2    49  LEU49      -0.2867
      5  CB        -7.8000  -19.8750   17.0010 C.3    49  LEU49       0.0270
      6  CG        -7.5720  -19.5080   18.4630 C.3    49  LEU49       0.0019
      7  CD1       -6.0840  -19.3820   18.7400 C.3    49  LEU49       0.0001
      8  CD2       -8.3180  -18.2410   18.8460 C.3    49  LEU49       0.0001
      9  N         -7.4590  -19.8150   12.7420 N.3    51  PHE51      -0.1227
     10  CA        -6.1570  -19.4720   12.1880 C.3    51  PHE51       0.1736
     11  C         -5.0930  -20.2690   12.9400 C.2    51  PHE51       0.2596
     12  O         -5.3280  -20.8150   14.0320 O.2    51  PHE51      -0.2718
     13  CB        -5.8620  -17.9700   12.2600 C.3    51  PHE51       0.0547
     14  CG        -5.8740  -17.4160   13.6530 C.ar   51  PHE51      -0.0202
     15  CD1       -4.7510  -17.5270   14.4620 C.ar   51  PHE51      -0.0042
     16  CD2       -7.0170  -16.8150   14.1750 C.ar   51  PHE51      -0.0042
     17  CE1       -4.7470  -17.0280   15.7530 C.ar   51  PHE51      -0.0003
     18  CE2       -7.0290  -16.3370   15.4710 C.ar   51  PHE51      -0.0003
     19  CZ        -5.8910  -16.4400   16.2590 C.ar   51  PHE51      -0.0000
     20  N         -3.9140  -20.3130   12.3510 N.am   52  SER52      -0.1938
     21  CA        -2.8110  -21.0490   12.9130 C.3    52  SER52       0.2055
     22  C         -2.3500  -20.5370   14.2800 C.2    52  SER52       0.2643
     23  O         -2.0660  -19.3560   14.4380 O.2    52  SER52      -0.2714
     24  CB        -1.6110  -20.9760   11.9720 C.3    52  SER52       0.2130
     25  OG        -0.5350  -21.6960   12.5380 O.3    52  SER52      -0.2179
     26  N         -2.1740  -21.4550   15.2210 N.am   53  TRP53      -0.1959
     27  CA        -1.5920  -21.1630   16.5170 C.3    53  TRP53       0.1771
     28  C         -0.2010  -20.5860   16.3750 C.2    53  TRP53       0.2619
     29  O          0.2490  -19.8230   17.2260 O.2    53  TRP53      -0.2715
     30  CB        -1.4800  -22.4360   17.3740 C.3    53  TRP53       0.0590
     31  CG        -1.0200  -22.1440   18.7400 C.ar   53  TRP53       0.0006
     32  CD1        0.2560  -22.1880   19.2070 C.ar   53  TRP53       0.0946
     33  CD2       -1.8280  -21.7080   19.8220 C.ar   53  TRP53       0.0152
     34  NE1        0.3010  -21.7910   20.5120 N.ar   53  TRP53      -0.2442
     35  CE2       -0.9700  -21.5050   20.9250 C.ar   53  TRP53       0.0810
     36  CE3       -3.2010  -21.5130   19.9860 C.ar   53  TRP53       0.0012
     37  CZ2       -1.4350  -21.0950   22.1550 C.ar   53  TRP53       0.0191
     38  CZ3       -3.6620  -21.0920   21.2180 C.ar   53  TRP53       0.0001
     39  CH2       -2.7720  -20.8980   22.2890 C.ar   53  TRP53       0.0015
     40  N          0.5080  -20.9910   15.3210 N.am   54  ASP54      -0.1971
     41  CA         1.8740  -20.5470   15.1480 C.3    54  ASP54       0.1709
     42  C          2.0120  -19.0220   15.1320 C.2    54  ASP54       0.2293
     43  O          3.0710  -18.5200   15.4800 O.2    54  ASP54      -0.2864
     44  CB         2.5110  -21.1380   13.8860 C.3    54  ASP54       0.1436
     45  CG         2.6800  -22.6500   13.9470 C.2    54  ASP54       0.3671
     46  OD1        2.9030  -23.2140   15.0510 O.co2  54  ASP54      -0.2456
     47  OD2        2.5950  -23.2800   12.8500 O.co2  54  ASP54      -0.2456
     48  N         -4.7430  -22.8720    8.3160 N.3   130  LYS130     -0.1245
     49  CA        -4.0810  -23.7430    9.2810 C.3   130  LYS130      0.1561
     50  C         -3.2010  -24.7940    8.6060 C.2   130  LYS130      0.2260
     51  O         -3.2530  -25.9860    8.9230 O.2   130  LYS130     -0.2867
     52  CB        -5.1020  -24.4020   10.2000 C.3   130  LYS130      0.0271
     53  CG        -5.9240  -23.4200   11.0020 C.3   130  LYS130      0.0035
     54  CD        -6.8780  -24.2050   11.9030 C.3   130  LYS130      0.0206
     55  CE        -8.2270  -23.5680   11.9780 C.3   130  LYS130      0.1093
     56  NZ        -9.1050  -24.3690   12.8770 N.3   130  LYS130     -0.1314
     57  N          0.2330  -24.4070    8.5620 N.3   132  THR132     -0.1203
     58  CA         1.5800  -24.2620    9.0860 C.3   132  THR132      0.1994
     59  C          1.8630  -25.3670   10.0950 C.2   132  THR132      0.2618
     60  O          0.9300  -25.9380   10.6620 O.2   132  THR132     -0.2717
     61  CB         1.8360  -22.8780    9.6790 C.3   132  THR132      0.1784
     62  OG1        1.0030  -22.6670   10.8120 O.3   132  THR132     -0.2211
     63  CG2        1.5600  -21.7990    8.6390 C.3   132  THR132      0.0376
     64  N          3.1520  -25.6680   10.2710 N.am  133  MET133     -0.1965
     65  CA         3.6170  -26.7800   11.1260 C.3   133  MET133      0.1736
     66  C          4.8380  -26.3820   11.9570 C.2   133  MET133      0.2617
     67  O          5.7940  -27.1290   12.0990 O.2   133  MET133     -0.2715
     68  CB         3.9530  -28.0130   10.2860 C.3   133  MET133      0.0427
     69  CG         2.7930  -28.5750    9.5060 C.3   133  MET133      0.0599
     70  SD         3.2480  -30.2120    8.9080 S.3   133  MET133     -0.1393
     71  CE         4.9640  -29.9860    8.4610 C.3   133  MET133      0.0692
     72  N          4.7710  -25.1860   12.5140 N.am  134  GLY134     -0.1955
     73  CA         5.7610  -24.6910   13.4380 C.3   134  GLY134      0.1869
     74  C          6.8900  -23.9060   12.8140 C.2   134  GLY134      0.2309
     75  O          7.1350  -23.9350   11.6000 O.2   134  GLY134     -0.2863
     76  N          2.5790  -27.6410    5.7390 N.3   160  LYS160     -0.1245
     77  CA         2.1600  -29.0450    5.6580 C.3   160  LYS160      0.1561
     78  C          2.5860  -29.7010    4.3400 C.2   160  LYS160      0.2260
     79  O          2.8670  -30.9090    4.3070 O.2   160  LYS160     -0.2867
     80  CB         0.6420  -29.1890    5.8620 C.3   160  LYS160      0.0271
     81  CG         0.1950  -29.0380    7.3110 C.3   160  LYS160      0.0035
     82  CD        -1.3190  -29.1220    7.4490 C.3   160  LYS160      0.0206
     83  CE        -1.7600  -28.8600    8.8850 C.3   160  LYS160      0.1093
     84  NZ        -3.2410  -28.9210    9.0460 N.3   160  LYS160     -0.1314
     85  N          5.5420  -26.4310   19.5470 N.3   193  ILE193     -0.1245
     86  CA         4.3080  -26.8680   20.1900 C.3   193  ILE193      0.1561
     87  C          4.5550  -28.3230   20.5900 C.2   193  ILE193      0.2260
     88  O          4.9030  -29.1750   19.7540 O.2   193  ILE193     -0.2867
     89  CB         3.0920  -26.7490   19.2560 C.3   193  ILE193      0.0252
     90  CG1        2.8280  -25.2750   18.9040 C.3   193  ILE193      0.0019
     91  CG2        1.8650  -27.4070   19.8840 C.3   193  ILE193      0.0019
     92  CD1        1.6710  -25.0700   17.9460 C.3   193  ILE193      0.0001
     93  N         -8.6600  -29.2780   19.0060 N.3   199  ASP199     -0.1225
     94  CA        -8.9690  -28.0190   18.3250 C.3   199  ASP199      0.1805
     95  C         -8.0530  -26.8740   18.7200 C.2   199  ASP199      0.2597
     96  O         -8.3730  -25.7200   18.4430 O.2   199  ASP199     -0.2718
     97  CB       -10.4380  -27.6280   18.5600 C.3   199  ASP199      0.1424
     98  CG       -10.7830  -27.4400   20.0220 C.2   199  ASP199      0.3668
     99  OD1       -9.8920  -27.5300   20.8970 O.co2 199  ASP199     -0.2456
    100  OD2      -11.9940  -27.2220   20.3070 O.co2 199  ASP199     -0.2456
    101  N         -6.9290  -27.2040   19.3620 N.am  200  TYR200     -0.1976
    102  CA        -5.9410  -26.2130   19.8040 C.3   200  TYR200      0.1639
    103  C         -6.5510  -25.1400   20.7170 C.2   200  TYR200      0.2290
    104  O         -6.1260  -23.9920   20.7070 O.2   200  TYR200     -0.2864
    105  CB        -5.2190  -25.5720   18.6100 C.3   200  TYR200      0.0560
    106  CG        -4.2270  -26.4670   17.9430 C.ar  200  TYR200     -0.0198
    107  CD1       -4.6460  -27.4500   17.0410 C.ar  200  TYR200     -0.0009
    108  CD2       -2.8520  -26.3300   18.1890 C.ar  200  TYR200     -0.0009
    109  CE1       -3.7260  -28.2730   16.4060 C.ar  200  TYR200      0.0417
    110  CE2       -1.9430  -27.1530   17.5660 C.ar  200  TYR200      0.0417
    111  CZ        -2.3800  -28.1250   16.6820 C.ar  200  TYR200      0.1957
    112  OH        -1.4440  -28.9220   16.0620 O.3   200  TYR200     -0.2866
@<TRIPOS>BOND
     1    79    78    2
     2    78    77    1
     3    77    76    1
     4    77    80    1
     5    80    81    1
     6    81    82    1
     7    82    83    1
     8    48    49    1
     9    71    70    1
    10    57    58    1
    11    50    51    2
    12    50    49    1
    13    63    61    1
    14    83    84    1
    15    70    69    1
    16    58    61    1
    17    58    59    1
    18    49    52    1
    19    69    68    1
    20    61    62    1
    21    59    64   am
    22    59    60    2
    23    52    53    1
    24    64    65    1
    25    68    65    1
    26    53    54    1
    27    65    66    1
    28    75    74    2
    29    54    55    1
    30    66    67    2
    31    66    72   am
    32    24    25    1
    33    24    21    1
    34    55    56    1
    35    10    13    1
    36    10     9    1
    37    10    11    1
    38    13    14    1
    39    20    21    1
    40    20    11   am
    41    72    73    1
    42    74    73    1
    43    47    45   ar
    44    21    22    1
    45    11    12    2
    46    14    16   ar
    47    14    15   ar
    48    44    45    1
    49    44    41    1
    50    45    46   ar
    51    16    18   ar
    52    22    23    2
    53    22    26   am
    54    15    17   ar
    55     4     3    2
    56    42    41    1
    57    42    43    2
    58     3     2    1
    59    41    40    1
    60    26    27    1
    61    40    28   am
    62    18    19   ar
    63    17    19   ar
    64   112   111    1
    65    28    27    1
    66    28    29    2
    67   109   111   ar
    68   109   107   ar
    69    27    30    1
    70     2     5    1
    71     2     1    1
    72   111   110   ar
    73     5     6    1
    74   107   106   ar
    75    30    31    1
    76   110   108   ar
    77   106   108   ar
    78   106   105    1
    79    92    90    1
    80    94    97    1
    81    94    95    1
    82    94    93    1
    83    96    95    2
    84     6     7    1
    85     6     8    1
    86    97    98    1
    87   105   102    1
    88    95   101   am
    89    31    32   ar
    90    31    33   ar
    91    90    89    1
    92    32    34   ar
    93    89    91    1
    94    89    86    1
    95   101   102    1
    96    85    86    1
    97    88    87    2
    98   102   103    1
    99    33    36   ar
   100    33    35   ar
   101    36    38   ar
   102    98   100   ar
   103    98    99   ar
   104    86    87    1
   105    34    35   ar
   106   104   103    2
   107    35    37   ar
   108    38    39   ar
   109    37    39   ar
