@<TRIPOS>MOLECULE
tmp/5lk9A01.pdb
 98 97 0 0 0
SMALL
GASTEIGER

@<TRIPOS>ATOM
      1  N        -10.1860   -3.3880   21.2200 N.3    21  PHE21      -0.1241
      2  CA        -9.2810   -2.2380   20.9650 C.3    21  PHE21       0.1605
      3  C         -8.5590   -1.7960   22.2520 C.2    21  PHE21       0.2264
      4  O         -7.3460   -1.5150   22.2170 O.2    21  PHE21      -0.2867
      5  CB       -10.0170   -1.0820   20.2870 C.3    21  PHE21       0.0534
      6  CG        -9.1190    0.1000   19.8450 C.ar   21  PHE21      -0.0203
      7  CD1       -7.9410   -0.0740   19.1110 C.ar   21  PHE21      -0.0042
      8  CD2       -9.4850    1.4150   20.1930 C.ar   21  PHE21      -0.0042
      9  CE1       -7.2030    1.0280   18.7020 C.ar   21  PHE21      -0.0003
     10  CE2       -8.7600    2.5170   19.7870 C.ar   21  PHE21      -0.0003
     11  CZ        -7.5960    2.3170   19.0650 C.ar   21  PHE21      -0.0000
     12  N         -5.7340   -4.2120   22.9430 N.3    24  PHE24      -0.1241
     13  CA        -4.6060   -3.8340   22.0680 C.3    24  PHE24       0.1605
     14  C         -3.8140   -2.6320   22.5800 C.2    24  PHE24       0.2264
     15  O         -2.5940   -2.6930   22.7200 O.2    24  PHE24      -0.2867
     16  CB        -5.1620   -3.5480   20.6450 C.3    24  PHE24       0.0534
     17  CG        -4.2000   -2.8690   19.7160 C.ar   24  PHE24      -0.0203
     18  CD1       -3.0630   -3.5410   19.2340 C.ar   24  PHE24      -0.0042
     19  CD2       -4.4550   -1.5800   19.2470 C.ar   24  PHE24      -0.0042
     20  CE1       -2.1990   -2.8940   18.3590 C.ar   24  PHE24      -0.0003
     21  CE2       -3.5860   -0.9430   18.3720 C.ar   24  PHE24      -0.0003
     22  CZ        -2.4630   -1.6150   17.9080 C.ar   24  PHE24      -0.0000
     23  N         -2.9350    7.6150   17.9350 N.3    35  PHE35      -0.1241
     24  CA        -4.2260    8.1170   18.4570 C.3    35  PHE35       0.1605
     25  C         -4.0410    9.1820   19.5810 C.2    35  PHE35       0.2264
     26  O         -4.2830    8.9310   20.7860 O.2    35  PHE35      -0.2867
     27  CB        -5.0780    6.9540   18.9760 C.3    35  PHE35       0.0534
     28  CG        -5.1080    5.7500   18.0370 C.ar   35  PHE35      -0.0203
     29  CD1       -6.0030    5.6750   16.9970 C.ar   35  PHE35      -0.0042
     30  CD2       -4.2170    4.6880   18.2160 C.ar   35  PHE35      -0.0042
     31  CE1       -6.0370    4.5460   16.1670 C.ar   35  PHE35      -0.0003
     32  CE2       -4.2350    3.5640   17.3860 C.ar   35  PHE35      -0.0003
     33  CZ        -5.1370    3.5070   16.3460 C.ar   35  PHE35      -0.0000
     34  N         -6.4730    9.9860   22.4820 N.3    38  TYR38      -0.1241
     35  CA        -6.6740    8.9370   23.4760 C.3    38  TYR38       0.1605
     36  C         -5.5860    8.8660   24.5710 C.2    38  TYR38       0.2264
     37  O         -5.7420    8.2200   25.5970 O.2    38  TYR38      -0.2867
     38  CB        -6.8260    7.5680   22.7690 C.3    38  TYR38       0.0534
     39  CG        -7.9240    7.4650   21.7270 C.ar   38  TYR38      -0.0201
     40  CD1       -9.0100    8.3390   21.7040 C.ar   38  TYR38      -0.0009
     41  CD2       -7.8990    6.4340   20.7900 C.ar   38  TYR38      -0.0009
     42  CE1      -10.0180    8.2110   20.7360 C.ar   38  TYR38       0.0417
     43  CE2       -8.9080    6.3030   19.8430 C.ar   38  TYR38       0.0417
     44  CZ        -9.9470    7.1850   19.7950 C.ar   38  TYR38       0.1957
     45  OH       -10.9580    7.0410   18.8340 O.3    38  TYR38      -0.2866
     46  N        -15.8860    5.5200   16.1910 N.3    55  HIS55      -0.1226
     47  CA       -14.8010    5.1310   15.2810 C.3    55  HIS55       0.1752
     48  C        -14.3410    3.6720   15.5390 C.2    55  HIS55       0.2596
     49  O        -14.0280    2.9260   14.6010 O.2    55  HIS55      -0.2718
     50  CB       -13.6000    6.0840   15.3690 C.3    55  HIS55       0.0759
     51  CG       -13.8260    7.4550   14.8240 C.ar   55  HIS55       0.0818
     52  ND1      -12.7930    8.1810   14.2780 N.ar   55  HIS55      -0.2268
     53  CD2      -14.9230    8.2360   14.7250 C.ar   55  HIS55       0.1154
     54  CE1      -13.2380    9.3550   13.8670 C.ar   55  HIS55       0.1986
     55  NE2      -14.5190    9.4300   14.1650 N.ar   55  HIS55      -0.2212
     56  N        -14.2830    3.2360   16.7950 N.am   56  THR56      -0.1953
     57  CA       -13.8900    1.8590   17.0690 C.3    56  THR56       0.1897
     58  C        -14.8980    0.8340   16.4820 C.2    56  THR56       0.2313
     59  O        -14.4950   -0.1770   15.8590 O.2    56  THR56      -0.2863
     60  CB       -13.6330    1.6930   18.5760 C.3    56  THR56       0.1794
     61  OG1      -12.6560    2.6810   18.9930 O.3    56  THR56      -0.2208
     62  CG2      -13.1310    0.2890   18.8790 C.3    56  THR56       0.0378
     63  N        -14.2650    0.6960   12.6250 N.3    59  VAL59      -0.1231
     64  CA       -13.1140   -0.1500   12.3360 C.3    59  VAL59       0.1692
     65  C        -13.5050   -1.6490   12.3180 C.2    59  VAL59       0.2592
     66  O        -13.2070   -2.4020   11.3740 O.2    59  VAL59      -0.2718
     67  CB       -11.9980    0.1100   13.3670 C.3    59  VAL59       0.0266
     68  CG1      -10.8840   -0.9540   13.2930 C.3    59  VAL59       0.0020
     69  CG2      -11.4220    1.5050   13.2400 C.3    59  VAL59       0.0020
     70  N        -14.2020   -2.0790   13.3790 N.am   60  PHE60      -0.1976
     71  CA       -14.5740   -3.5060   13.4890 C.3    60  PHE60       0.1639
     72  C        -15.6650   -3.9150   12.5040 C.2    60  PHE60       0.2290
     73  O        -15.6670   -5.0690   12.0520 O.2    60  PHE60      -0.2864
     74  CB       -14.8690   -3.8810   14.9670 C.3    60  PHE60       0.0560
     75  CG       -13.6320   -4.1220   15.7820 C.ar   60  PHE60      -0.0200
     76  CD1      -12.8280   -3.0590   16.1810 C.ar   60  PHE60      -0.0042
     77  CD2      -13.2230   -5.4230   16.0860 C.ar   60  PHE60      -0.0042
     78  CE1      -11.6330   -3.2790   16.8760 C.ar   60  PHE60      -0.0003
     79  CE2      -12.0290   -5.6410   16.8090 C.ar   60  PHE60      -0.0003
     80  CZ       -11.2450   -4.5710   17.1890 C.ar   60  PHE60      -0.0000
     81  N         -4.6460    5.5510    6.9670 N.3    89  HIS89      -0.1241
     82  CA        -3.5800    4.5340    7.1310 C.3    89  HIS89       0.1621
     83  C         -2.2280    4.9040    6.5140 C.2    89  HIS89       0.2264
     84  O         -1.3190    4.0430    6.4710 O.2    89  HIS89      -0.2867
     85  CB        -4.0810    3.1440    6.6070 C.3    89  HIS89       0.0745
     86  CG        -5.2110    2.5500    7.3960 C.ar   89  HIS89       0.0817
     87  ND1       -5.9250    1.4560    6.9660 N.ar   89  HIS89      -0.2268
     88  CD2       -5.7330    2.8770    8.6000 C.ar   89  HIS89       0.1154
     89  CE1       -6.8260    1.1310    7.8770 C.ar   89  HIS89       0.1986
     90  NE2       -6.7170    1.9620    8.8840 N.ar   89  HIS89      -0.2212
     91  N         -2.2900   -5.8490   16.4170 N.3   100  LEU100     -0.1245
     92  CA        -3.7430   -5.8350   16.6420 C.3   100  LEU100      0.1561
     93  C         -4.2950   -7.2740   16.7170 C.2   100  LEU100      0.2260
     94  O         -5.1230   -7.6200   17.6080 O.2   100  LEU100     -0.2867
     95  CB        -4.4630   -4.9990   15.5720 C.3   100  LEU100      0.0270
     96  CG        -6.0040   -5.0050   15.6530 C.3   100  LEU100      0.0019
     97  CD1       -6.5350   -4.4700   17.0050 C.3   100  LEU100      0.0001
     98  CD2       -6.6110   -4.2210   14.4750 C.3   100  LEU100      0.0001
@<TRIPOS>BOND
     1    84    83    2
     2    83    82    1
     3    85    82    1
     4    85    86    1
     5    87    86   ar
     6    87    89   ar
     7    81    82    1
     8    86    88   ar
     9    89    90   ar
    10    88    90   ar
    11    66    65    2
    12    73    72    2
    13    65    64    1
    14    65    70   am
    15    64    63    1
    16    64    67    1
    17    72    71    1
    18    69    67    1
    19    68    67    1
    20    70    71    1
    21    71    74    1
    22    54    55   ar
    23    54    52   ar
    24    55    53   ar
    25    52    51   ar
    26    98    96    1
    27    49    48    2
    28    53    51   ar
    29    51    50    1
    30    74    75    1
    31    47    50    1
    32    47    48    1
    33    47    46    1
    34    48    56   am
    35    95    96    1
    36    95    92    1
    37    96    97    1
    38    75    77   ar
    39    75    76   ar
    40    59    58    2
    41    77    79   ar
    42    31    33   ar
    43    31    29   ar
    44    76    78   ar
    45    33    32   ar
    46    91    92    1
    47    58    57    1
    48    92    93    1
    49    93    94    2
    50    56    57    1
    51    79    80   ar
    52    78    80   ar
    53    29    28   ar
    54    57    60    1
    55    32    30   ar
    56    22    20   ar
    57    22    21   ar
    58    23    24    1
    59    28    30   ar
    60    28    27    1
    61    20    18   ar
    62    21    19   ar
    63    24    27    1
    64    24    25    1
    65    60    62    1
    66    60    61    1
    67     9    11   ar
    68     9     7   ar
    69    45    44    1
    70    11    10   ar
    71     7     6   ar
    72    18    17   ar
    73    19    17   ar
    74    25    26    2
    75    17    16    1
    76    10     8   ar
    77    44    43   ar
    78    44    42   ar
    79    43    41   ar
    80     6     8   ar
    81     6     5    1
    82     5     2    1
    83    16    13    1
    84    42    40   ar
    85    41    39   ar
    86     2     1    1
    87     2     3    1
    88    40    39   ar
    89    39    38    1
    90    13    14    1
    91    13    12    1
    92     4     3    2
    93    34    35    1
    94    14    15    2
    95    38    35    1
    96    35    36    1
    97    36    37    2
