@<TRIPOS>MOLECULE
tmp/5lkmB00.pdb
 134 130 0 0 0
SMALL
GASTEIGER

@<TRIPOS>ATOM
      1  N        -28.2670  -71.7580  -50.5810 N.3    40  PRO40      -0.2102
      2  CA       -27.6620  -70.4540  -50.8600 C.3    40  PRO40       0.1504
      3  C        -27.0920  -69.7690  -49.6080 C.2    40  PRO40       0.2576
      4  O        -27.7020  -69.8220  -48.5250 O.2    40  PRO40      -0.2718
      5  CB       -28.8110  -69.6460  -51.4630 C.3    40  PRO40       0.0282
      6  CG       -30.0450  -70.3590  -51.0630 C.3    40  PRO40       0.0208
      7  CD       -29.6810  -71.8010  -50.9800 C.3    40  PRO40       0.0893
      8  N        -25.9040  -69.1790  -49.7830 N.am   41  GLY41      -0.1943
      9  CA       -25.1810  -68.4560  -48.7240 C.3    41  GLY41       0.2014
     10  C        -24.0180  -69.1850  -48.0720 C.2    41  GLY41       0.2639
     11  O        -23.2070  -68.5890  -47.3700 O.2    41  GLY41      -0.2714
     12  N        -23.9480  -70.4820  -48.3260 N.am   42  ILE42      -0.1963
     13  CA       -23.0190  -71.4040  -47.6970 C.3    42  ILE42       0.1727
     14  C        -21.5560  -71.1940  -48.1370 C.2    42  ILE42       0.2617
     15  O        -20.6390  -71.3020  -47.3090 O.2    42  ILE42      -0.2715
     16  CB       -23.6450  -72.8260  -47.9370 C.3    42  ILE42       0.0290
     17  CG1      -24.1670  -73.4510  -46.6480 C.3    42  ILE42       0.0022
     18  CG2      -22.8650  -73.7720  -48.8680 C.3    42  ILE42       0.0023
     19  CD1      -25.3550  -72.7130  -46.0990 C.3    42  ILE42       0.0001
     20  N        -21.3480  -70.8530  -49.4110 N.am   43  GLY43      -0.1940
     21  CA       -20.0090  -70.5510  -49.9500 C.3    43  GLY43       0.2014
     22  C        -19.5020  -71.4120  -51.1050 C.2    43  GLY43       0.2639
     23  O        -18.3040  -71.7000  -51.1800 O.2    43  GLY43      -0.2714
     24  N        -20.3960  -71.8110  -52.0110 N.am   44  LYS44      -0.1963
     25  CA       -20.0290  -72.6380  -53.1780 C.3    44  LYS44       0.1728
     26  C        -19.2590  -71.7620  -54.2330 C.2    44  LYS44       0.2617
     27  O        -18.1620  -72.1320  -54.7000 O.2    44  LYS44      -0.2715
     28  CB       -21.2630  -73.4600  -53.6760 C.3    44  LYS44       0.0311
     29  CG       -22.4740  -72.6680  -54.1390 C.3    44  LYS44       0.0038
     30  CD       -23.7110  -73.5570  -54.1170 C.3    44  LYS44       0.0206
     31  CE       -24.4100  -73.5840  -52.7740 C.3    44  LYS44       0.1093
     32  NZ       -25.1880  -72.3340  -52.6360 N.3    44  LYS44      -0.1314
     33  N        -19.7510  -70.5460  -54.4870 N.am   45  SER45      -0.1936
     34  CA       -19.0020  -69.5350  -55.2620 C.3    45  SER45       0.2055
     35  C        -17.6400  -69.2040  -54.6250 C.2    45  SER45       0.2643
     36  O        -16.6240  -69.1860  -55.3220 O.2    45  SER45      -0.2714
     37  CB       -19.8100  -68.2330  -55.4430 C.3    45  SER45       0.2130
     38  OG       -21.1380  -68.4640  -55.8810 O.3    45  SER45      -0.2179
     39  N        -17.6260  -68.9830  -53.3050 N.am   46  THR46      -0.1950
     40  CA       -16.4010  -68.7040  -52.5300 C.3    46  THR46       0.1897
     41  C        -15.4030  -69.8570  -52.5970 C.2    46  THR46       0.2313
     42  O        -14.2190  -69.6260  -52.7870 O.2    46  THR46      -0.2863
     43  CB       -16.7100  -68.4370  -51.0350 C.3    46  THR46       0.1794
     44  OG1      -17.7540  -67.4670  -50.9270 O.3    46  THR46      -0.2208
     45  CG2      -15.4770  -67.9410  -50.2750 C.3    46  THR46       0.0378
     46  N        -24.7550  -65.0140  -62.2040 N.3    61  GLU61      -0.1231
     47  CA       -25.3600  -64.7400  -60.9050 C.3    61  GLU61       0.1699
     48  C        -24.8160  -63.4220  -60.3670 C.2    61  GLU61       0.2592
     49  O        -25.5640  -62.5930  -59.8820 O.2    61  GLU61      -0.2718
     50  CB       -25.0270  -65.8890  -59.9690 C.3    61  GLU61       0.0402
     51  CG       -25.7450  -65.8780  -58.6540 C.3    61  GLU61       0.1161
     52  CD       -25.0080  -66.7960  -57.7090 C.2    61  GLU61       0.3649
     53  OE1      -25.1080  -68.0050  -57.9180 O.co2  61  GLU61      -0.2457
     54  OE2      -24.2570  -66.3030  -56.8180 O.co2  61  GLU61      -0.2457
     55  N        -23.4980  -63.2600  -60.4480 N.am   62  GLU62      -0.1979
     56  CA       -22.8180  -62.0320  -60.0610 C.3    62  GLU62       0.1602
     57  C        -22.1210  -61.4170  -61.2660 C.2    62  GLU62       0.2287
     58  O        -21.7840  -62.1150  -62.2310 O.2    62  GLU62      -0.2864
     59  CB       -21.8010  -62.3470  -58.9660 C.3    62  GLU62       0.0415
     60  CG       -22.4560  -62.6370  -57.6360 C.3    62  GLU62       0.1163
     61  CD       -21.7190  -63.5430  -56.6920 C.2    62  GLU62       0.3649
     62  OE1      -20.7520  -64.2690  -57.0000 O.co2  62  GLU62      -0.2457
     63  OE2      -22.2290  -63.5800  -55.5870 O.co2  62  GLU62      -0.2457
     64  N        -14.1530  -59.8370  -54.6220 N.3    70  ARG70      -0.1245
     65  CA       -14.1620  -61.0470  -53.7850 C.3    70  ARG70       0.1563
     66  C        -12.8610  -61.8190  -53.9010 C.2    70  ARG70       0.2260
     67  O        -12.2040  -62.0730  -52.8970 O.2    70  ARG70      -0.2867
     68  CB       -15.3220  -61.9740  -54.1460 C.3    70  ARG70       0.0307
     69  CG       -16.6760  -61.4450  -53.7340 C.3    70  ARG70       0.0489
     70  CD       -17.7660  -62.3780  -54.2140 C.3    70  ARG70       0.2205
     71  NE       -17.7470  -63.6410  -53.4830 N.pl3  70  ARG70      -0.0865
     72  CZ       -18.3470  -64.7640  -53.8790 C.cat  70  ARG70       0.5346
     73  NH1      -19.0040  -64.8260  -55.0350 N.pl3  70  ARG70       0.1354
     74  NH2      -18.2690  -65.8480  -53.1120 N.pl3  70  ARG70       0.1354
     75  N         -9.2100  -60.8700  -52.1180 N.3    73  ARG73      -0.1231
     76  CA        -9.1030  -61.3180  -50.7060 C.3    73  ARG73       0.1694
     77  C         -8.7460  -62.8020  -50.5850 C.2    73  ARG73       0.2591
     78  O         -8.0290  -63.2150  -49.6700 O.2    73  ARG73      -0.2718
     79  CB       -10.4320  -61.1430  -49.9680 C.3    73  ARG73       0.0321
     80  CG       -10.9550  -59.7290  -49.8050 C.3    73  ARG73       0.0489
     81  CD       -12.3630  -59.7670  -49.2140 C.3    73  ARG73       0.2205
     82  NE       -12.9550  -58.4200  -49.1200 N.pl3  73  ARG73      -0.0865
     83  CZ       -14.1320  -58.0220  -49.6340 C.cat  73  ARG73       0.5346
     84  NH1      -14.9240  -58.8200  -50.3580 N.pl3  73  ARG73       0.1354
     85  NH2      -14.5160  -56.7630  -49.4350 N.pl3  73  ARG73       0.1354
     86  N         -9.2900  -63.5860  -51.5100 N.am   74  LEU74      -0.1980
     87  CA        -9.1720  -65.0350  -51.5070 C.3    74  LEU74       0.1596
     88  C         -7.8220  -65.4970  -52.0430 C.2    74  LEU74       0.2287
     89  O         -7.2100  -66.3930  -51.4630 O.2    74  LEU74      -0.2864
     90  CB       -10.3050  -65.6510  -52.3390 C.3    74  LEU74       0.0297
     91  CG       -11.7390  -65.3090  -51.9030 C.3    74  LEU74       0.0022
     92  CD1      -12.7420  -65.7180  -52.9660 C.3    74  LEU74       0.0001
     93  CD2      -12.0670  -65.9660  -50.5770 C.3    74  LEU74       0.0001
     94  N        -27.8170  -74.7450  -56.4880 N.3   131  HIS131     -0.1241
     95  CA       -28.5070  -74.1740  -55.3280 C.3   131  HIS131      0.1621
     96  C        -29.7040  -75.0010  -54.9040 C.2   131  HIS131      0.2264
     97  O        -30.5700  -75.2650  -55.7200 O.2   131  HIS131     -0.2867
     98  CB       -28.9420  -72.7480  -55.6640 C.3   131  HIS131      0.0745
     99  CG       -27.8040  -71.7820  -55.6880 C.ar  131  HIS131      0.0817
    100  ND1      -26.9040  -71.7060  -56.7310 N.ar  131  HIS131     -0.2268
    101  CD2      -27.3880  -70.8860  -54.7650 C.ar  131  HIS131      0.1154
    102  CE1      -25.9850  -70.8020  -56.4490 C.ar  131  HIS131      0.1986
    103  NE2      -26.2520  -70.2940  -55.2600 N.ar  131  HIS131     -0.2212
    104  N        -15.8800  -70.7340  -42.5600 N.3   159  MET159     -0.1230
    105  CA       -15.9660  -69.4300  -43.2540 C.3   159  MET159      0.1702
    106  C        -15.5320  -68.3180  -42.3130 C.2   159  MET159      0.2592
    107  O        -16.1230  -68.1330  -41.2530 O.2   159  MET159     -0.2718
    108  CB       -17.3910  -69.1480  -43.7470 C.3   159  MET159      0.0401
    109  CG       -17.5950  -67.8320  -44.5010 C.3   159  MET159      0.0596
    110  SD       -16.8560  -67.7950  -46.1510 S.3   159  MET159     -0.1393
    111  CE       -18.2630  -68.1140  -47.2200 C.3   159  MET159      0.0692
    112  N        -14.4960  -67.5870  -42.7190 N.am  160  GLN160     -0.1966
    113  CA       -13.9920  -66.4460  -41.9580 C.3   160  GLN160      0.1733
    114  C        -14.1780  -65.1330  -42.7420 C.2   160  GLN160      0.2617
    115  O        -14.8040  -65.1190  -43.7980 O.2   160  GLN160     -0.2715
    116  CB       -12.5360  -66.7360  -41.5620 C.3   160  GLN160      0.0408
    117  CG       -12.4350  -67.7320  -40.4150 C.3   160  GLN160      0.0908
    118  CD       -11.0150  -67.9790  -39.9600 C.2   160  GLN160      0.2608
    119  OE1      -10.0860  -67.2850  -40.3790 O.2   160  GLN160     -0.2717
    120  NE2      -10.8380  -68.9790  -39.1050 N.am  160  GLN160     -0.0878
    121  N        -13.6280  -64.0340  -42.2290 N.am  161  SER161     -0.1936
    122  CA       -13.7170  -62.7300  -42.8860 C.3   161  SER161      0.2055
    123  C        -13.1140  -62.7240  -44.3090 C.2   161  SER161      0.2644
    124  O        -13.7330  -62.1790  -45.2150 O.2   161  SER161     -0.2714
    125  CB       -13.0810  -61.6400  -42.0140 C.3   161  SER161      0.2130
    126  OG       -11.8480  -62.0570  -41.4590 O.3   161  SER161     -0.2179
    127  N        -11.9570  -63.3600  -44.5150 N.am  162  GLY162     -0.1939
    128  CA       -11.3590  -63.4980  -45.8610 C.3   162  GLY162      0.2014
    129  C        -12.1510  -64.3840  -46.8170 C.2   162  GLY162      0.2639
    130  O        -12.6810  -63.9250  -47.8300 O.2   162  GLY162     -0.2714
    131  N        -12.2760  -65.6540  -46.4490 N.am  163  GLY163     -0.1954
    132  CA       -13.1440  -66.6200  -47.1430 C.3   163  GLY163      0.1869
    133  C        -13.1360  -67.9160  -46.3580 C.2   163  GLY163      0.2309
    134  O        -13.1020  -67.8850  -45.1340 O.2   163  GLY163     -0.2863
@<TRIPOS>BOND
     1    58    57    2
     2    46    47    1
     3    57    56    1
     4    47    48    1
     5    47    50    1
     6    55    48   am
     7    55    56    1
     8    48    49    2
     9    56    59    1
    10    50    51    1
    11    59    60    1
    12    51    52    1
    13    53    52   ar
    14    52    54   ar
    15    60    61    1
    16    62    61   ar
    17   100   102   ar
    18   100    99   ar
    19    61    63   ar
    20    94    95    1
    21   102   103   ar
    22    38    37    1
    23    97    96    2
    24    99    98    1
    25    99   101   ar
    26    98    95    1
    27    37    34    1
    28    95    96    1
    29    36    35    2
    30    34    35    1
    31    34    33    1
    32   103   101   ar
    33    73    72    1
    34    27    26    2
    35    35    39   am
    36    64    65    1
    37    33    26   am
    38    26    25    1
    39    70    69    1
    40    70    71    1
    41    68    65    1
    42    68    69    1
    43    29    30    1
    44    29    28    1
    45    30    31    1
    46    66    65    1
    47    66    67    2
    48    72    71    2
    49    72    74    1
    50    28    25    1
    51    39    40    1
    52    25    24    1
    53    92    91    1
    54    42    41    2
    55    31    32    1
    56    41    40    1
    57    40    43    1
    58    90    91    1
    59    90    87    1
    60    75    76    1
    61    88    87    1
    62    88    89    2
    63    24    22   am
    64    91    93    1
    65    86    87    1
    66    86    77   am
    67     5     6    1
    68     5     2    1
    69    23    22    2
    70    22    21    1
    71     6     7    1
    72    43    44    1
    73    43    45    1
    74     7     1    1
    75     2     1    1
    76     2     3    1
    77    76    77    1
    78    76    79    1
    79    77    78    2
    80    84    83    1
    81    79    80    1
    82    21    20    1
    83    80    81    1
    84     8     3   am
    85     8     9    1
    86    83    85    1
    87    83    82    2
    88     3     4    2
    89    20    14   am
    90    81    82    1
    91    18    16    1
    92     9    10    1
    93    12    10   am
    94    12    13    1
    95    14    13    1
    96    14    15    2
    97    10    11    2
    98    16    13    1
    99    16    17    1
   100   130   129    2
   101   111   110    1
   102   132   131    1
   103   132   133    1
   104   129   131   am
   105   129   128    1
   106    17    19    1
   107   133   134    2
   108   110   109    1
   109   128   127    1
   110   124   123    2
   111   127   123   am
   112   109   108    1
   113   123   122    1
   114   115   114    2
   115   108   105    1
   116   105   104    1
   117   105   106    1
   118   122   121    1
   119   122   125    1
   120   114   121   am
   121   114   113    1
   122   112   106   am
   123   112   113    1
   124   106   107    2
   125   125   126    1
   126   113   116    1
   127   116   117    1
   128   117   118    1
   129   119   118    2
   130   118   120   am
