@<TRIPOS>MOLECULE
tmp/5lkmA00.pdb
 141 136 0 0 0
SMALL
GASTEIGER

@<TRIPOS>ATOM
      1  N        -29.4930  -99.2000  -48.7910 N.3    45  PRO45      -0.2102
      2  CA       -28.1140  -98.8940  -49.1930 C.3    45  PRO45       0.1504
      3  C        -27.1510  -98.8970  -48.0090 C.2    45  PRO45       0.2576
      4  O        -27.4870  -98.4010  -46.9230 O.2    45  PRO45      -0.2718
      5  CB       -28.2230  -97.5080  -49.8320 C.3    45  PRO45       0.0282
      6  CG       -29.5180  -96.9660  -49.3570 C.3    45  PRO45       0.0208
      7  CD       -30.4220  -98.1360  -49.1810 C.3    45  PRO45       0.0893
      8  N        -25.9740  -99.4840  -48.2350 N.am   46  GLY46      -0.1943
      9  CA       -24.9100  -99.6000  -47.2370 C.3    46  GLY46       0.2014
     10  C        -24.7590 -100.9640  -46.5720 C.2    46  GLY46       0.2639
     11  O        -23.7460 -101.1800  -45.8720 O.2    46  GLY46      -0.2714
     12  N        -25.7610 -101.8450  -46.7470 N.am   47  ILE47      -0.1963
     13  CA       -25.8150 -103.1700  -46.0650 C.3    47  ILE47       0.1727
     14  C        -24.7230 -104.1020  -46.5570 C.2    47  ILE47       0.2617
     15  O        -24.1430 -104.8530  -45.7540 O.2    47  ILE47      -0.2715
     16  CB       -27.2200 -103.8490  -46.1140 C.3    47  ILE47       0.0290
     17  CG1      -27.2980 -105.0380  -45.1270 C.3    47  ILE47       0.0022
     18  CG2      -27.5870 -104.2110  -47.5400 C.3    47  ILE47       0.0023
     19  CD1      -27.5500 -104.6120  -43.7150 C.3    47  ILE47       0.0001
     20  N        -24.4290 -104.0350  -47.8610 N.am   48  GLY48      -0.1940
     21  CA       -23.3580 -104.8540  -48.4580 C.3    48  GLY48       0.2014
     22  C        -23.7630 -105.8050  -49.5770 C.2    48  GLY48       0.2639
     23  O        -23.2320 -106.9140  -49.6750 O.2    48  GLY48      -0.2714
     24  N        -24.6560 -105.3640  -50.4480 N.am   49  LYS49      -0.1963
     25  CA       -25.0700 -106.1840  -51.5720 C.3    49  LYS49       0.1728
     26  C        -23.9570 -106.2720  -52.6080 C.2    49  LYS49       0.2617
     27  O        -23.6730 -107.3520  -53.1460 O.2    49  LYS49      -0.2715
     28  CB       -26.3410 -105.6270  -52.2240 C.3    49  LYS49       0.0311
     29  CG       -27.5150 -105.4030  -51.2630 C.3    49  LYS49       0.0038
     30  CD       -28.6900 -104.6240  -51.8820 C.3    49  LYS49       0.0206
     31  CE       -28.3520 -103.1360  -51.9880 C.3    49  LYS49       0.1093
     32  NZ       -28.4030 -102.5270  -50.6490 N.3    49  LYS49      -0.1314
     33  N        -23.3690 -105.1310  -52.9290 N.am   50  SER50      -0.1936
     34  CA       -22.2030 -105.0960  -53.8060 C.3    50  SER50       0.2055
     35  C        -21.0740 -105.9510  -53.2270 C.2    50  SER50       0.2643
     36  O        -20.4660 -106.7310  -53.9550 O.2    50  SER50      -0.2714
     37  CB       -21.7150 -103.6490  -54.0460 C.3    50  SER50       0.2130
     38  OG       -22.7600 -102.7580  -54.4600 O.3    50  SER50      -0.2179
     39  N        -20.8180 -105.8020  -51.9300 N.am   51  THR51      -0.1950
     40  CA       -19.7860 -106.5570  -51.2220 C.3    51  THR51       0.1897
     41  C        -20.0700 -108.0430  -51.2550 C.2    51  THR51       0.2313
     42  O        -19.1550 -108.8340  -51.4630 O.2    51  THR51      -0.2863
     43  CB       -19.6770 -106.1290  -49.7430 C.3    51  THR51       0.1794
     44  OG1      -19.5740 -104.7030  -49.6530 O.3    51  THR51      -0.2208
     45  CG2      -18.4720 -106.7710  -49.0340 C.3    51  THR51       0.0378
     46  N        -22.8330  -97.9290  -60.9230 N.3    72  GLU72      -0.1231
     47  CA       -22.8640  -97.2350  -59.6480 C.3    72  GLU72       0.1699
     48  C        -21.4550  -96.8060  -59.2060 C.2    72  GLU72       0.2592
     49  O        -21.2480  -95.6640  -58.8370 O.2    72  GLU72      -0.2718
     50  CB       -23.4860  -98.1490  -58.5940 C.3    72  GLU72       0.0402
     51  CG       -23.8570  -97.4270  -57.3270 C.3    72  GLU72       0.1161
     52  CD       -24.3570  -98.2680  -56.2110 C.2    72  GLU72       0.3649
     53  OE1      -24.4520  -99.5150  -56.2400 O.co2  72  GLU72      -0.2457
     54  OE2      -24.6640  -97.5790  -55.2530 O.co2  72  GLU72      -0.2457
     55  N        -20.5090  -97.7440  -59.2260 N.am   73  GLU73      -0.1979
     56  CA       -19.1100  -97.4860  -58.9090 C.3    73  GLU73       0.1602
     57  C        -18.2660  -97.6710  -60.1660 C.2    73  GLU73       0.2287
     58  O        -18.6540  -98.3820  -61.1130 O.2    73  GLU73      -0.2864
     59  CB       -18.6420  -98.4500  -57.8240 C.3    73  GLU73       0.0415
     60  CG       -19.1610  -98.1450  -56.4310 C.3    73  GLU73       0.1163
     61  CD       -18.8900  -99.3020  -55.4730 C.2    73  GLU73       0.3649
     62  OE1      -19.3530 -100.4420  -55.7650 O.co2  73  GLU73      -0.2457
     63  OE2      -18.1600  -99.0870  -54.4660 O.co2  73  GLU73      -0.2457
     64  N        -11.6430 -102.7510  -53.8240 N.3    81  ARG81      -0.1245
     65  CA       -12.5300 -103.5040  -52.9270 C.3    81  ARG81       0.1563
     66  C        -12.3020 -104.9970  -53.0390 C.2    81  ARG81       0.2260
     67  O        -12.0340 -105.6620  -52.0430 O.2    81  ARG81      -0.2867
     68  CB       -14.0030 -103.2010  -53.2080 C.3    81  ARG81       0.0307
     69  CG       -14.4300 -101.8060  -52.7870 C.3    81  ARG81       0.0489
     70  CD       -15.8640 -101.5350  -53.1780 C.3    81  ARG81       0.2205
     71  NE       -16.7810 -102.3220  -52.3690 N.pl3  81  ARG81      -0.0865
     72  CZ       -18.0430 -102.5810  -52.6990 C.cat  81  ARG81       0.5346
     73  NH1      -18.5700 -102.1230  -53.8360 N.pl3  81  ARG81       0.1354
     74  NH2      -18.7810 -103.3200  -51.8900 N.pl3  81  ARG81       0.1354
     75  N         -9.1500 -107.1720  -51.4220 N.3    84  ARG84      -0.1231
     76  CA        -9.3530 -107.5410  -49.9970 C.3    84  ARG84       0.1694
     77  C        -10.2620 -108.7710  -49.8060 C.2    84  ARG84       0.2591
     78  O        -10.0650 -109.5790  -48.8940 O.2    84  ARG84      -0.2718
     79  CB       -10.0200 -106.4020  -49.2230 C.3    84  ARG84       0.0321
     80  CG        -9.2550 -105.0980  -49.1100 C.3    84  ARG84       0.0489
     81  CD       -10.1480 -104.0340  -48.4790 C.3    84  ARG84       0.2205
     82  NE        -9.4860 -102.7250  -48.4400 N.pl3  84  ARG84      -0.0865
     83  CZ        -9.9600 -101.5720  -48.9390 C.cat  84  ARG84       0.5346
     84  NH1      -11.1180 -101.4730  -49.5990 N.pl3  84  ARG84       0.1354
     85  NH2       -9.2190 -100.4750  -48.7910 N.pl3  84  ARG84       0.1354
     86  N        -11.2780 -108.8610  -50.6570 N.am   85  LEU85      -0.1980
     87  CA       -12.3300 -109.8690  -50.5620 C.3    85  LEU85       0.1596
     88  C        -11.9070 -111.2540  -51.0550 C.2    85  LEU85       0.2287
     89  O        -12.1970 -112.2490  -50.3880 O.2    85  LEU85      -0.2864
     90  CB       -13.5720 -109.4000  -51.3360 C.3    85  LEU85       0.0297
     91  CG       -14.1870 -108.0670  -50.8850 C.3    85  LEU85       0.0022
     92  CD1      -15.1990 -107.5640  -51.9010 C.3    85  LEU85       0.0001
     93  CD2      -14.8310 -108.1940  -49.5180 C.3    85  LEU85       0.0001
     94  N        -29.5220 -106.2210  -58.4610 N.3   153  VAL153     -0.1245
     95  CA       -29.4870 -105.5100  -57.1750 C.3   153  VAL153      0.1561
     96  C        -30.5830 -104.4270  -57.1170 C.2   153  VAL153      0.2260
     97  O        -30.7370 -103.6140  -58.0600 O.2   153  VAL153     -0.2867
     98  CB       -28.1190 -104.8850  -56.9380 C.3   153  VAL153      0.0252
     99  CG1      -28.0620 -104.0690  -55.6610 C.3   153  VAL153      0.0019
    100  CG2      -27.0530 -105.9470  -56.9090 C.3   153  VAL153      0.0019
    101  N        -31.8990 -101.4860  -54.5380 N.3   155  HIS155     -0.1241
    102  CA       -31.8070 -100.6660  -53.3250 C.3   155  HIS155      0.1621
    103  C        -33.2020 -100.2450  -52.8780 C.2   155  HIS155      0.2264
    104  O        -33.9900  -99.8090  -53.7030 O.2   155  HIS155     -0.2867
    105  CB       -30.9350  -99.4300  -53.5620 C.3   155  HIS155      0.0745
    106  CG       -29.4720  -99.7290  -53.6400 C.ar  155  HIS155      0.0817
    107  ND1      -28.8400 -100.0500  -54.8220 N.ar  155  HIS155     -0.2268
    108  CD2      -28.5160  -99.7540  -52.6850 C.ar  155  HIS155      0.1154
    109  CE1      -27.5630 -100.2910  -54.5820 C.ar  155  HIS155      0.1986
    110  NE2      -27.3390 -100.1130  -53.2930 N.ar  155  HIS155     -0.2212
    111  N        -20.4390 -108.0930  -41.1920 N.3   203  MET203     -0.1230
    112  CA       -19.4900 -107.2370  -41.9400 C.3   203  MET203      0.1702
    113  C        -18.2990 -106.8780  -41.0770 C.2   203  MET203      0.2592
    114  O        -18.4510 -106.2830  -40.0210 O.2   203  MET203     -0.2718
    115  CB       -20.1560 -105.9490  -42.4110 C.3   203  MET203      0.0401
    116  CG       -19.3020 -104.9830  -43.2240 C.3   203  MET203      0.0596
    117  SD       -18.9420 -105.5560  -44.8830 S.3   203  MET203     -0.1393
    118  CE       -20.1520 -104.6590  -45.8980 C.3   203  MET203      0.0692
    119  N        -17.1220 -107.2640  -41.5350 N.am  204  GLN204     -0.1966
    120  CA       -15.8770 -106.9750  -40.8700 C.3   204  GLN204      0.1733
    121  C        -15.0280 -106.1110  -41.8000 C.2   204  GLN204      0.2617
    122  O        -15.4720 -105.7140  -42.8890 O.2   204  GLN204     -0.2715
    123  CB       -15.1820 -108.2670  -40.4810 C.3   204  GLN204      0.0408
    124  CG       -15.8370 -108.9220  -39.2900 C.3   204  GLN204      0.0908
    125  CD       -15.1370 -110.1900  -38.8690 C.2   204  GLN204      0.2608
    126  OE1      -14.0360 -110.5110  -39.3410 O.2   204  GLN204     -0.2717
    127  NE2      -15.7710 -110.9320  -37.9670 N.am  204  GLN204     -0.0878
    128  N        -13.8360 -105.7580  -41.3370 N.am  205  SER205     -0.1936
    129  CA       -12.9980 -104.8110  -42.0280 C.3   205  SER205      0.2055
    130  C        -12.6850 -105.2780  -43.4460 C.2   205  SER205      0.2644
    131  O        -12.6820 -104.4600  -44.3730 O.2   205  SER205     -0.2714
    132  CB       -11.7290 -104.5380  -41.2170 C.3   205  SER205      0.2130
    133  OG       -11.2000 -105.7320  -40.6550 O.3   205  SER205     -0.2179
    134  N        -12.4410 -106.5790  -43.6240 N.am  206  GLY206     -0.1939
    135  CA       -12.2130 -107.1460  -44.9690 C.3   206  GLY206      0.2014
    136  C        -13.4580 -107.0840  -45.8390 C.2   206  GLY206      0.2639
    137  O        -13.4790 -106.4060  -46.8750 O.2   206  GLY206     -0.2714
    138  N        -14.4970 -107.7840  -45.3980 N.am  207  GLY207     -0.1954
    139  CA       -15.8230 -107.7280  -46.0200 C.3   207  GLY207      0.1869
    140  C        -16.7710 -108.5430  -45.1800 C.2   207  GLY207      0.2309
    141  O        -16.6400 -108.5550  -43.9710 O.2   207  GLY207     -0.2863
@<TRIPOS>BOND
     1    58    57    2
     2    46    47    1
     3    57    56    1
     4    47    48    1
     5    47    50    1
     6    55    48   am
     7    55    56    1
     8    48    49    2
     9    56    59    1
    10    50    51    1
    11    94    95    1
    12    97    96    2
    13    59    60    1
    14    51    52    1
    15    95    96    1
    16    95    98    1
    17    98   100    1
    18    98    99    1
    19    60    61    1
    20    53    52   ar
    21    52    54   ar
    22    62    61   ar
    23    61    63   ar
    24   107   109   ar
    25   107   106   ar
    26   109   110   ar
    27   101   102    1
    28    38    37    1
    29    37    34    1
    30    36    35    2
    31    73    72    1
    32    64    65    1
    33    34    35    1
    34    34    33    1
    35   104   103    2
    36   106   105    1
    37   106   108   ar
    38   105   102    1
    39   102   103    1
    40   110   108   ar
    41    35    39   am
    42    68    65    1
    43    68    69    1
    44    70    69    1
    45    70    71    1
    46    27    26    2
    47    66    65    1
    48    66    67    2
    49    33    26   am
    50    72    71    2
    51    72    74    1
    52    26    25    1
    53    28    25    1
    54    28    29    1
    55    31    30    1
    56    31    32    1
    57    39    40    1
    58    92    91    1
    59    30    29    1
    60    25    24    1
    61    42    41    2
    62    75    76    1
    63    90    91    1
    64    90    87    1
    65    41    40    1
    66    40    43    1
    67    88    87    1
    68    88    89    2
    69    91    93    1
    70    86    87    1
    71    86    77   am
    72    24    22   am
    73    76    77    1
    74    76    79    1
    75     5     6    1
    76     5     2    1
    77    77    78    2
    78    43    44    1
    79    43    45    1
    80    23    22    2
    81    84    83    1
    82    22    21    1
    83     6     7    1
    84    79    80    1
    85     2     1    1
    86     2     3    1
    87     7     1    1
    88    80    81    1
    89    83    85    1
    90    83    82    2
    91    81    82    1
    92    21    20    1
    93     8     3   am
    94     8     9    1
    95     3     4    2
    96    20    14   am
    97    18    16    1
    98     9    10    1
    99   137   136    2
   100    12    10   am
   101    12    13    1
   102    10    11    2
   103    14    13    1
   104    14    15    2
   105    16    13    1
   106    16    17    1
   107   139   138    1
   108   139   140    1
   109   118   117    1
   110   136   138   am
   111   136   135    1
   112   140   141    2
   113    17    19    1
   114   135   134    1
   115   117   116    1
   116   131   130    2
   117   134   130   am
   118   130   129    1
   119   116   115    1
   120   122   121    2
   121   115   112    1
   122   129   128    1
   123   129   132    1
   124   112   111    1
   125   112   113    1
   126   121   128   am
   127   121   120    1
   128   119   113   am
   129   119   120    1
   130   132   133    1
   131   113   114    2
   132   120   123    1
   133   123   124    1
   134   126   125    2
   135   124   125    1
   136   125   127   am
