@<TRIPOS>MOLECULE
tmp/5lkrB07.pdb
 165 162 0 0 0
SMALL
GASTEIGER

@<TRIPOS>ATOM
      1  N        -16.6730   21.3200  -34.2810 N.3    65  ASN65      -0.1225
      2  CA       -18.1150   21.4400  -34.1480 C.3    65  ASN65       0.1785
      3  C        -18.7350   20.0650  -33.9260 C.2    65  ASN65       0.2597
      4  O        -18.3750   19.0970  -34.5950 O.2    65  ASN65      -0.2718
      5  CB       -18.6990   22.1140  -35.3860 C.3    65  ASN65       0.1169
      6  CG       -18.3460   23.6000  -35.4530 C.2    65  ASN65       0.2627
      7  OD1      -18.3380   24.2930  -34.4300 O.2    65  ASN65      -0.2716
      8  ND2      -18.0380   24.0870  -36.6500 N.am   65  ASN65      -0.0877
      9  N        -19.6460   19.9780  -32.9720 N.am   66  ILE66      -0.1966
     10  CA       -20.2870   18.7220  -32.6150 C.3    66  ILE66       0.1727
     11  C        -21.5640   18.5860  -33.4270 C.2    66  ILE66       0.2616
     12  O        -22.3510   19.5350  -33.5170 O.2    66  ILE66      -0.2715
     13  CB       -20.5940   18.6760  -31.1110 C.3    66  ILE66       0.0290
     14  CG1      -19.3680   19.0930  -30.2980 C.3    66  ILE66       0.0022
     15  CG2      -21.0530   17.2950  -30.7140 C.3    66  ILE66       0.0023
     16  CD1      -18.1410   18.2950  -30.6130 C.3    66  ILE66       0.0001
     17  N        -21.7830   17.4070  -34.0110 N.am   67  ASP67      -0.1971
     18  CA       -23.0060   17.1500  -34.7680 C.3    67  ASP67       0.1709
     19  C        -24.1500   16.9190  -33.7890 C.2    67  ASP67       0.2293
     20  O        -24.1890   15.8880  -33.1080 O.2    67  ASP67      -0.2864
     21  CB       -22.8380   15.9520  -35.6970 C.3    67  ASP67       0.1436
     22  CG       -24.1210   15.6090  -36.4550 C.2    67  ASP67       0.3671
     23  OD1      -24.9990   16.4920  -36.5950 O.co2  67  ASP67      -0.2456
     24  OD2      -24.2530   14.4540  -36.9170 O.co2  67  ASP67      -0.2456
     25  N        -27.5770   17.4480  -34.8510 N.3    69  SER69      -0.1217
     26  CA       -28.8060   17.4770  -35.6390 C.3    69  SER69       0.1889
     27  C        -29.8980   16.5740  -35.0650 C.2    69  SER69       0.2288
     28  O        -31.0880   16.8860  -35.2060 O.2    69  SER69      -0.2866
     29  CB       -28.5000   17.0710  -37.0770 C.3    69  SER69       0.2089
     30  OG       -27.1260   17.2570  -37.3580 O.3    69  SER69      -0.2183
     31  N        -20.3760    9.3790  -33.4010 N.3    79  TRP79      -0.1241
     32  CA       -19.2390    9.9940  -34.0690 C.3    79  TRP79       0.1605
     33  C        -18.7360   11.2420  -33.3620 C.2    79  TRP79       0.2264
     34  O        -17.6610   11.7310  -33.7180 O.2    79  TRP79      -0.2867
     35  CB       -19.5900   10.3340  -35.5210 C.3    79  TRP79       0.0550
     36  CG       -20.0850    9.1450  -36.2950 C.ar   79  TRP79       0.0003
     37  CD1      -21.3700    8.8970  -36.6780 C.ar   79  TRP79       0.0946
     38  CD2      -19.3060    8.0300  -36.7590 C.ar   79  TRP79       0.0152
     39  NE1      -21.4380    7.7110  -37.3650 N.ar   79  TRP79      -0.2442
     40  CE2      -20.1870    7.1550  -37.4220 C.ar   79  TRP79       0.0810
     41  CE3      -17.9510    7.6890  -36.6770 C.ar   79  TRP79       0.0012
     42  CZ2      -19.7590    5.9590  -38.0010 C.ar   79  TRP79       0.0191
     43  CZ3      -17.5260    6.5030  -37.2560 C.ar   79  TRP79       0.0001
     44  CH2      -18.4270    5.6540  -37.9110 C.ar   79  TRP79       0.0015
     45  N        -13.8950   12.3210  -41.0960 N.3   113  GLY113     -0.1210
     46  CA       -14.7740   13.3280  -40.5270 C.3   113  GLY113      0.1956
     47  C        -14.7350   14.6250  -41.3130 C.2   113  GLY113      0.2612
     48  O        -14.8960   15.7130  -40.7520 O.2   113  GLY113     -0.2717
     49  N        -14.4990   14.5030  -42.6190 N.am  114  GLY114     -0.1956
     50  CA       -14.5540   15.6130  -43.5460 C.3   114  GLY114      0.1869
     51  C        -13.5270   16.6910  -43.3100 C.2   114  GLY114      0.2309
     52  O        -13.7280   17.8240  -43.7500 O.2   114  GLY114     -0.2863
     53  N        -13.1920   18.2340  -40.8050 N.3   116  GLN116     -0.1231
     54  CA       -13.7830   19.1320  -39.8180 C.3   116  GLN116      0.1698
     55  C        -14.0250   18.4730  -38.4670 C.2   116  GLN116      0.2592
     56  O        -14.2710   19.1810  -37.4870 O.2   116  GLN116     -0.2718
     57  CB       -15.1180   19.6970  -40.3300 C.3   116  GLN116      0.0381
     58  CG       -15.1140   20.1130  -41.7990 C.3   116  GLN116      0.0905
     59  CD       -14.0380   21.1360  -42.1120 C.2   116  GLN116      0.2608
     60  OE1      -14.0520   22.2580  -41.5920 O.2   116  GLN116     -0.2717
     61  NE2      -13.0930   20.7530  -42.9610 N.am  116  GLN116     -0.0878
     62  N        -13.9590   17.1490  -38.3820 N.am  117  THR117     -0.1953
     63  CA       -14.3350   16.4540  -37.1620 C.3   117  THR117      0.1897
     64  C        -13.5210   15.1790  -37.0480 C.2   117  THR117      0.2313
     65  O        -12.8630   14.7400  -37.9970 O.2   117  THR117     -0.2863
     66  CB       -15.8380   16.1280  -37.1400 C.3   117  THR117      0.1794
     67  OG1      -16.2760   15.8120  -38.4700 O.3   117  THR117     -0.2208
     68  CG2      -16.6590   17.3080  -36.5950 C.3   117  THR117      0.0378
     69  N        -12.6010    7.7350  -45.3240 N.3   195  SER195     -0.1217
     70  CA       -13.2300    9.0130  -45.6770 C.3   195  SER195      0.1889
     71  C        -12.1430   10.0750  -45.8080 C.2   195  SER195      0.2288
     72  O        -11.2740    9.9360  -46.6860 O.2   195  SER195     -0.2866
     73  CB       -14.3420    9.3120  -44.6760 C.3   195  SER195      0.2089
     74  OG       -15.1230   10.4130  -45.1190 O.3   195  SER195     -0.2183
     75  N        -14.6590   16.6600  -53.0920 N.3   228  TRP228     -0.1241
     76  CA       -14.5970   17.3730  -51.8250 C.3   228  TRP228      0.1605
     77  C        -13.2040   17.4130  -51.2030 C.2   228  TRP228      0.2264
     78  O        -13.0390   18.0330  -50.1540 O.2   228  TRP228     -0.2867
     79  CB       -15.5650   16.7290  -50.8290 C.3   228  TRP228      0.0550
     80  CG       -15.4280   15.2140  -50.7480 C.ar  228  TRP228      0.0003
     81  CD1      -16.1620   14.2880  -51.4400 C.ar  228  TRP228      0.0946
     82  CD2      -14.4940   14.4670  -49.9550 C.ar  228  TRP228      0.0152
     83  NE1      -15.7430   13.0130  -51.1280 N.ar  228  TRP228     -0.2442
     84  CE2      -14.7260   13.0910  -50.2150 C.ar  228  TRP228      0.0810
     85  CE3      -13.4800   14.8220  -49.0560 C.ar  228  TRP228      0.0012
     86  CZ2      -13.9840   12.0710  -49.6050 C.ar  228  TRP228      0.0191
     87  CZ3      -12.7380   13.8020  -48.4470 C.ar  228  TRP228      0.0001
     88  CH2      -13.0000   12.4450  -48.7240 C.ar  228  TRP228      0.0015
     89  N        -24.1380   19.4920  -48.2920 N.3   282  PRO282     -0.2102
     90  CA       -23.8470   18.6370  -47.1280 C.3   282  PRO282      0.1504
     91  C        -22.4760   18.0000  -47.1930 C.2   282  PRO282      0.2576
     92  O        -22.0140   17.4580  -46.1800 O.2   282  PRO282     -0.2718
     93  CB       -24.9620   17.5860  -47.1710 C.3   282  PRO282      0.0282
     94  CG       -26.0800   18.2690  -47.9150 C.3   282  PRO282      0.0208
     95  CD       -25.3900   19.0930  -48.9620 C.3   282  PRO282      0.0893
     96  N        -21.8090   18.0670  -48.3450 N.am  283  LEU283     -0.1966
     97  CA       -20.4610   17.5500  -48.5250 C.3   283  LEU283      0.1728
     98  C        -19.4080   18.6480  -48.6150 C.2   283  LEU283      0.2617
     99  O        -18.2700   18.3630  -49.0010 O.2   283  LEU283     -0.2715
    100  CB       -20.3990   16.6800  -49.7770 C.3   283  LEU283      0.0311
    101  CG       -21.0840   15.3300  -49.6040 C.3   283  LEU283      0.0022
    102  CD1      -22.2250   15.1880  -50.5980 C.3   283  LEU283      0.0001
    103  CD2      -20.0670   14.2300  -49.7710 C.3   283  LEU283      0.0001
    104  N        -19.7570   19.8900  -48.2800 N.am  284  SER284     -0.1936
    105  CA       -18.7750   20.9650  -48.2710 C.3   284  SER284      0.2055
    106  C        -17.6750   20.6710  -47.2640 C.2   284  SER284      0.2642
    107  O        -17.9480   20.3590  -46.1010 O.2   284  SER284     -0.2714
    108  CB       -19.4410   22.3020  -47.9370 C.3   284  SER284      0.2130
    109  OG       -20.1860   22.7960  -49.0380 O.3   284  SER284     -0.2179
    110  N        -16.4330   20.7490  -47.7300 N.am  285  VAL285     -0.1977
    111  CA       -15.2510   20.7890  -46.8780 C.3   285  VAL285      0.1596
    112  C        -14.8060   22.2480  -46.8540 C.2   285  VAL285      0.2287
    113  O        -14.1740   22.7260  -47.7950 O.2   285  VAL285     -0.2864
    114  CB       -14.1500   19.8600  -47.3980 C.3   285  VAL285      0.0276
    115  CG1      -12.9600   19.8470  -46.4600 C.3   285  VAL285      0.0022
    116  CG2      -14.6960   18.4650  -47.5710 C.3   285  VAL285      0.0022
    117  N        -26.1670    8.7740  -46.3950 N.3   325  ALA325     -0.1231
    118  CA       -26.0540    9.4620  -45.1130 C.3   325  ALA325      0.1694
    119  C        -26.0920   10.9800  -45.2650 C.2   325  ALA325      0.2592
    120  O        -26.4640   11.6830  -44.3160 O.2   325  ALA325     -0.2718
    121  CB       -24.7770    9.0310  -44.3900 C.3   325  ALA325      0.0304
    122  N        -25.7410   11.5010  -46.4370 N.am  326  PHE326     -0.1976
    123  CA       -25.7750   12.9390  -46.6650 C.3   326  PHE326      0.1639
    124  C        -27.1290   13.4360  -47.1360 C.2   326  PHE326      0.2290
    125  O        -27.3440   14.6480  -47.1710 O.2   326  PHE326     -0.2864
    126  CB       -24.7000   13.3290  -47.6760 C.3   326  PHE326      0.0560
    127  CG       -23.3360   12.8680  -47.2850 C.ar  326  PHE326     -0.0200
    128  CD1      -22.8620   11.6380  -47.7100 C.ar  326  PHE326     -0.0042
    129  CD2      -22.5410   13.6420  -46.4560 C.ar  326  PHE326     -0.0042
    130  CE1      -21.6070   11.2000  -47.3310 C.ar  326  PHE326     -0.0003
    131  CE2      -21.2920   13.2130  -46.0750 C.ar  326  PHE326     -0.0003
    132  CZ       -20.8210   11.9920  -46.5110 C.ar  326  PHE326     -0.0000
    133  N        -29.1310   15.2360  -44.3160 N.3   329  TYR329     -0.1241
    134  CA       -28.5590   16.5020  -43.8730 C.3   329  TYR329      0.1605
    135  C        -28.7840   17.6300  -44.8750 C.2   329  TYR329      0.2264
    136  O        -27.9360   18.5210  -45.0040 O.2   329  TYR329     -0.2867
    137  CB       -27.0650   16.3390  -43.5870 C.3   329  TYR329      0.0534
    138  CG       -26.7810   15.5640  -42.3200 C.ar  329  TYR329     -0.0201
    139  CD1      -26.6220   14.1840  -42.3410 C.ar  329  TYR329     -0.0009
    140  CD2      -26.6930   16.2130  -41.0980 C.ar  329  TYR329     -0.0009
    141  CE1      -26.3780   13.4740  -41.1750 C.ar  329  TYR329      0.0417
    142  CE2      -26.4480   15.5130  -39.9310 C.ar  329  TYR329      0.0417
    143  CZ       -26.2900   14.1480  -39.9740 C.ar  329  TYR329      0.1957
    144  OH       -26.0420   13.4730  -38.8020 O.3   329  TYR329     -0.2866
    145  N        -17.6380    9.2980  -54.0680 N.3   395  PHE395     -0.1241
    146  CA       -16.8210    8.2920  -53.4120 C.3   395  PHE395      0.1605
    147  C        -16.4080    7.1960  -54.3770 C.2   395  PHE395      0.2264
    148  O        -15.2140    6.9390  -54.5430 O.2   395  PHE395     -0.2867
    149  CB       -17.5650    7.7160  -52.2060 C.3   395  PHE395      0.0534
    150  CG       -17.8240    8.7280  -51.1200 C.ar  395  PHE395     -0.0203
    151  CD1      -16.8050    9.1120  -50.2530 C.ar  395  PHE395     -0.0042
    152  CD2      -19.0800    9.2970  -50.9650 C.ar  395  PHE395     -0.0042
    153  CE1      -17.0350   10.0480  -49.2530 C.ar  395  PHE395     -0.0003
    154  CE2      -19.3180   10.2350  -49.9650 C.ar  395  PHE395     -0.0003
    155  CZ       -18.2950   10.6140  -49.1110 C.ar  395  PHE395     -0.0000
    156  N        -22.0140    4.9240  -45.3990 N.3   435  HIS435     -0.1241
    157  CA       -20.6770    5.4790  -45.2370 C.3   435  HIS435      0.1621
    158  C        -20.1370    5.2350  -43.8320 C.2   435  HIS435      0.2264
    159  O        -20.8300    5.4520  -42.8380 O.2   435  HIS435     -0.2867
    160  CB       -20.7460    6.9820  -45.5340 C.3   435  HIS435      0.0745
    161  CG       -19.4150    7.6530  -45.6280 C.ar  435  HIS435      0.0817
    162  ND1      -18.5490    7.4480  -46.6800 N.ar  435  HIS435     -0.2268
    163  CD2      -18.8080    8.5420  -44.8080 C.ar  435  HIS435      0.1154
    164  CE1      -17.4600    8.1710  -46.4980 C.ar  435  HIS435      0.1986
    165  NE2      -17.5930    8.8480  -45.3710 N.ar  435  HIS435     -0.2212
@<TRIPOS>BOND
     1   148   147    2
     2   147   146    1
     3   145   146    1
     4   146   149    1
     5    75    76    1
     6   149   150    1
     7    76    77    1
     8    76    79    1
     9    81    83   ar
    10    81    80   ar
    11    77    78    2
    12    83    84   ar
    13   150   152   ar
    14   150   151   ar
    15   152   154   ar
    16    79    80    1
    17    80    82   ar
    18   102   101    1
    19   151   153   ar
    20    84    82   ar
    21    84    86   ar
    22   154   155   ar
    23    82    85   ar
    24   100   101    1
    25   100    97    1
    26   103   101    1
    27    86    88   ar
    28   153   155   ar
    29    85    87   ar
    30   109   108    1
    31    99    98    2
    32    95    89    1
    33    95    94    1
    34    88    87   ar
    35    98    97    1
    36    98   104   am
    37    97    96    1
    38    96    91   am
    39    89    90    1
    40   104   105    1
    41   105   108    1
    42   105   106    1
    43    94    93    1
    44   113   112    2
    45   110   106   am
    46   110   111    1
    47   128   130   ar
    48   128   127   ar
    49   126   127    1
    50   126   123    1
    51   116   114    1
    52   114   111    1
    53   114   115    1
    54   130   132   ar
    55   127   129   ar
    56   106   107    2
    57    91    90    1
    58    91    92    2
    59   125   124    2
    60    93    90    1
    61   124   123    1
    62   111   112    1
    63    72    71    2
    64   162   164   ar
    65   162   161   ar
    66   123   122    1
    67   132   131   ar
    68   164   165   ar
    69   129   131   ar
    70   122   119   am
    71   117   118    1
    72    71    70    1
    73    70    69    1
    74    70    73    1
    75   161   160    1
    76   161   163   ar
    77   160   157    1
    78   156   157    1
    79   165   163   ar
    80   119   118    1
    81   119   120    2
    82   157   158    1
    83    74    73    1
    84   118   121    1
    85   136   135    2
    86   135   134    1
    87   133   134    1
    88   134   137    1
    89   158   159    2
    90    52    51    2
    91   137   138    1
    92    50    51    1
    93    50    49    1
    94    61    59   am
    95    49    47   am
    96   139   138   ar
    97   139   141   ar
    98   138   140   ar
    99    59    58    1
   100    59    60    2
   101    58    57    1
   102    47    48    2
   103    47    46    1
   104   141   143   ar
   105   140   142   ar
   106    45    46    1
   107    53    54    1
   108    57    54    1
   109   143   142   ar
   110   143   144    1
   111    54    55    1
   112    67    66    1
   113    55    62   am
   114    55    56    2
   115    62    63    1
   116    42    44   ar
   117    42    40   ar
   118    65    64    2
   119    44    43   ar
   120    40    39   ar
   121    40    38   ar
   122    39    37   ar
   123    30    29    1
   124    43    41   ar
   125    63    66    1
   126    63    64    1
   127    66    68    1
   128    29    26    1
   129    24    22   ar
   130    38    41   ar
   131    38    36   ar
   132    37    36   ar
   133     8     6   am
   134    23    22   ar
   135    22    21    1
   136    36    35    1
   137    21    18    1
   138    26    27    1
   139    26    25    1
   140    35    32    1
   141     6     5    1
   142     6     7    2
   143     5     2    1
   144    28    27    2
   145    18    17    1
   146    18    19    1
   147     4     3    2
   148     1     2    1
   149     2     3    1
   150    32    31    1
   151    32    33    1
   152    17    11   am
   153     3     9   am
   154    19    20    2
   155    34    33    2
   156    12    11    2
   157    11    10    1
   158     9    10    1
   159    10    13    1
   160    13    15    1
   161    13    14    1
   162    16    14    1
