@<TRIPOS>MOLECULE
tmp/5lkwB00.pdb
 99 94 0 0 0
SMALL
GASTEIGER

@<TRIPOS>ATOM
      1  N         -5.4120   -8.3490    6.1390 N.3    19  PHE19      -0.1227
      2  CA        -5.6000   -8.5610    4.7390 C.3    19  PHE19       0.1736
      3  C         -6.6450   -9.6690    4.5730 C.2    19  PHE19       0.2595
      4  O         -6.5530  -10.7510    5.2110 O.2    19  PHE19      -0.2718
      5  CB        -4.2220   -8.9250    4.1690 C.3    19  PHE19       0.0547
      6  CG        -4.2620   -9.9580    3.1280 C.ar   19  PHE19      -0.0202
      7  CD1       -4.4140   -9.5900    1.7890 C.ar   19  PHE19      -0.0042
      8  CD2       -4.1550  -11.3170    3.4760 C.ar   19  PHE19      -0.0042
      9  CE1       -4.4560  -10.5710    0.7920 C.ar   19  PHE19      -0.0003
     10  CE2       -4.1980  -12.2930    2.4980 C.ar   19  PHE19      -0.0003
     11  CZ        -4.3420  -11.9210    1.1490 C.ar   19  PHE19      -0.0000
     12  N         -7.6480   -9.3810    3.7470 N.am   20  ASP20      -0.1974
     13  CA        -8.6790  -10.3380    3.4740 C.3    20  ASP20       0.1709
     14  C         -9.5440  -10.6620    4.6960 C.2    20  ASP20       0.2293
     15  O        -10.3920  -11.5390    4.6320 O.2    20  ASP20      -0.2864
     16  CB        -8.0910  -11.6330    2.8370 C.3    20  ASP20       0.1436
     17  CG        -8.5660  -11.8470    1.4460 C.2    20  ASP20       0.3671
     18  OD1       -9.7160  -11.4530    1.1500 O.co2  20  ASP20      -0.2456
     19  OD2       -7.7910  -12.3880    0.6250 O.co2  20  ASP20      -0.2456
     20  N        -12.0260   -1.2250    1.7350 N.3    53  THR53      -0.1203
     21  CA       -11.0160   -2.2470    1.4950 C.3    53  THR53       0.1994
     22  C         -9.8430   -1.5520    0.8330 C.2    53  THR53       0.2617
     23  O         -9.9660   -0.4170    0.3250 O.2    53  THR53      -0.2717
     24  CB       -11.5360   -3.3780    0.5390 C.3    53  THR53       0.1784
     25  OG1      -11.6130   -2.8630   -0.8110 O.3    53  THR53      -0.2211
     26  CG2      -12.9570   -3.9260    0.9950 C.3    53  THR53       0.0376
     27  N         -8.7150   -2.2220    0.7590 N.am   54  ASP54      -0.1973
     28  CA        -7.6780   -1.6250   -0.0990 C.3    54  ASP54       0.1709
     29  C         -8.0060   -2.0850   -1.5410 C.2    54  ASP54       0.2293
     30  O         -8.9680   -2.8370   -1.7300 O.2    54  ASP54      -0.2864
     31  CB        -6.2580   -2.0620    0.3360 C.3    54  ASP54       0.1436
     32  CG        -6.0370   -3.5870    0.3020 C.2    54  ASP54       0.3671
     33  OD1       -6.3740   -4.2330   -0.7290 O.co2  54  ASP54      -0.2456
     34  OD2       -5.4740   -4.1350    1.3020 O.co2  54  ASP54      -0.2456
     35  N         -6.8630   -3.9680   -3.8440 N.3    56  ARG56      -0.1231
     36  CA        -6.5580   -5.2760   -4.3970 C.3    56  ARG56       0.1694
     37  C         -7.7770   -6.1580   -4.5000 C.2    56  ARG56       0.2592
     38  O         -8.4620   -6.4480   -3.4960 O.2    56  ARG56      -0.2718
     39  CB        -5.4820   -6.0060   -3.5960 C.3    56  ARG56       0.0321
     40  CG        -4.1340   -5.2910   -3.5380 C.3    56  ARG56       0.0489
     41  CD        -3.2290   -6.0720   -2.5510 C.3    56  ARG56       0.2205
     42  NE        -3.5750   -5.8430   -1.1390 N.pl3  56  ARG56      -0.0865
     43  CZ        -2.9010   -6.3520   -0.0960 C.cat  56  ARG56       0.5346
     44  NH1       -1.8350   -7.1670   -0.2760 N.pl3  56  ARG56       0.1354
     45  NH2       -3.3100   -6.0840    1.1520 N.pl3  56  ARG56       0.1354
     46  N         -8.0150   -6.6180   -5.7240 N.am   57  GLY57      -0.1957
     47  CA        -9.1130   -7.5310   -6.0170 C.3    57  GLY57       0.1869
     48  C        -10.2590   -6.8230   -6.7090 C.2    57  GLY57       0.2309
     49  O        -10.2840   -5.5680   -6.8270 O.2    57  GLY57      -0.2863
     50  N        -15.5680   -8.2170   -5.3410 N.3    61  TYR61      -0.1227
     51  CA       -14.9890   -8.8710   -4.1620 C.3    61  TYR61       0.1736
     52  C        -14.8580   -7.8870   -2.9810 C.2    61  TYR61       0.2595
     53  O        -15.1190   -8.2480   -1.8240 O.2    61  TYR61      -0.2718
     54  CB       -13.6600   -9.5850   -4.4270 C.3    61  TYR61       0.0548
     55  CG       -13.0910  -10.2930   -3.2110 C.ar   61  TYR61      -0.0200
     56  CD1      -13.3180  -11.6620   -3.0170 C.ar   61  TYR61      -0.0009
     57  CD2      -12.3230   -9.6120   -2.2550 C.ar   61  TYR61      -0.0009
     58  CE1      -12.8050  -12.3450   -1.9020 C.ar   61  TYR61       0.0417
     59  CE2      -11.8020  -10.2800   -1.1070 C.ar   61  TYR61       0.0417
     60  CZ       -12.0600  -11.6500   -0.9360 C.ar   61  TYR61       0.1957
     61  OH       -11.5760  -12.3840    0.1520 O.3    61  TYR61      -0.2866
     62  N        -14.4660   -6.6600   -3.2920 N.am   62  ASN62      -0.1974
     63  CA       -14.2310   -5.6660   -2.2550 C.3    62  ASN62       0.1688
     64  C        -15.5070   -5.0620   -1.7320 C.2    62  ASN62       0.2292
     65  O        -15.6150   -4.8210   -0.5290 O.2    62  ASN62      -0.2864
     66  CB       -13.2120   -4.6200   -2.6990 C.3    62  ASN62       0.1181
     67  CG       -11.7850   -5.1830   -2.6460 C.2    62  ASN62       0.2629
     68  OD1      -11.3540   -5.6710   -1.5760 O.2    62  ASN62      -0.2716
     69  ND2      -11.0640   -5.1900   -3.8040 N.am   62  ASN62      -0.0877
     70  N        -16.4560   -7.6830    0.7030 N.3    65  LEU65      -0.1245
     71  CA       -15.5870   -7.6170    1.8750 C.3    65  LEU65       0.1561
     72  C        -15.9090   -6.4260    2.7680 C.2    65  LEU65       0.2260
     73  O        -15.9910   -6.5460    4.0070 O.2    65  LEU65      -0.2867
     74  CB       -14.1220   -7.5760    1.4570 C.3    65  LEU65       0.0270
     75  CG       -13.0810   -7.4590    2.5730 C.3    65  LEU65       0.0019
     76  CD1      -13.1810   -8.5670    3.7030 C.3    65  LEU65       0.0001
     77  CD2      -11.7490   -7.5700    1.7820 C.3    65  LEU65       0.0001
     78  N        -17.0100   -6.2820    6.7290 N.3    69  ARG69      -0.1245
     79  CA       -16.3700   -5.4050    7.7900 C.3    69  ARG69       0.1563
     80  C        -17.3890   -4.5180    8.5310 C.2    69  ARG69       0.2260
     81  O        -17.3900   -4.4310    9.7530 O.2    69  ARG69      -0.2867
     82  CB       -15.2710   -4.5860    7.1360 C.3    69  ARG69       0.0307
     83  CG       -14.0800   -5.4700    6.6090 C.3    69  ARG69       0.0489
     84  CD       -12.9480   -4.6380    5.9340 C.3    69  ARG69       0.2205
     85  NE       -11.7810   -5.5120    5.7730 N.pl3  69  ARG69      -0.0865
     86  CZ       -10.8690   -5.4270    4.8040 C.cat  69  ARG69       0.5346
     87  NH1      -10.9290   -4.4790    3.8750 N.pl3  69  ARG69       0.1354
     88  NH2       -9.9190   -6.3470    4.7510 N.pl3  69  ARG69       0.1354
     89  N         -8.1540   -0.6400    4.7240 N.3   111  ARG111     -0.1245
     90  CA        -8.8610   -1.8310    5.2160 C.3   111  ARG111      0.1563
     91  C         -9.4800   -1.4150    6.5690 C.2   111  ARG111      0.2260
     92  O         -8.8660   -1.5470    7.5950 O.2   111  ARG111     -0.2867
     93  CB        -7.8760   -3.0000    5.4020 C.3   111  ARG111      0.0307
     94  CG        -7.2600   -3.6100    4.0750 C.3   111  ARG111      0.0489
     95  CD        -6.6730   -4.9820    4.4140 C.3   111  ARG111      0.2205
     96  NE        -5.5420   -4.9080    5.3610 N.pl3 111  ARG111     -0.0865
     97  CZ        -4.2970   -4.5290    5.0290 C.cat 111  ARG111      0.5346
     98  NH1       -4.0500   -4.1710    3.7740 N.pl3 111  ARG111      0.1354
     99  NH2       -3.2710   -4.5350    5.9270 N.pl3 111  ARG111      0.1354
@<TRIPOS>BOND
     1    49    48    2
     2    48    47    1
     3    47    46    1
     4    46    37   am
     5    50    51    1
     6    37    36    1
     7    37    38    2
     8    54    51    1
     9    54    55    1
    10    36    35    1
    11    36    39    1
    12    51    52    1
    13    69    67   am
    14    39    40    1
    15    40    41    1
    16    62    52   am
    17    62    63    1
    18    55    56   ar
    19    55    57   ar
    20    56    58   ar
    21    52    53    2
    22    66    67    1
    23    66    63    1
    24    67    68    2
    25    41    42    1
    26    63    64    1
    27    57    59   ar
    28    58    60   ar
    29    64    65    2
    30    30    29    2
    31    29    28    1
    32    42    43    2
    33    59    60   ar
    34    60    61    1
    35    25    24    1
    36    33    32   ar
    37    44    43    1
    38    28    31    1
    39    28    27    1
    40    43    45    1
    41    32    31    1
    42    32    34   ar
    43    23    22    2
    44    24    26    1
    45    24    21    1
    46    19    17   ar
    47    70    71    1
    48    27    22   am
    49     9    11   ar
    50     9     7   ar
    51    22    21    1
    52    11    10   ar
    53    18    17   ar
    54    17    16    1
    55    74    71    1
    56    74    75    1
    57    21    20    1
    58    77    75    1
    59     7     6   ar
    60    71    72    1
    61    10     8   ar
    62    75    76    1
    63    72    73    2
    64    16    13    1
    65     6     8   ar
    66     6     5    1
    67    13    12    1
    68    13    14    1
    69    12     3   am
    70    98    97    1
    71    87    86    1
    72    94    95    1
    73    94    93    1
    74     5     2    1
    75    95    96    1
    76     3     2    1
    77     3     4    2
    78    15    14    2
    79    89    90    1
    80     2     1    1
    81    88    86    1
    82    86    85    2
    83    97    96    2
    84    97    99    1
    85    90    93    1
    86    90    91    1
    87    85    84    1
    88    84    83    1
    89    91    92    2
    90    83    82    1
    91    78    79    1
    92    82    79    1
    93    79    80    1
    94    80    81    2
