@<TRIPOS>MOLECULE
tmp/5ll4B02.pdb
 133 130 0 0 0
SMALL
GASTEIGER

@<TRIPOS>ATOM
      1  N         22.7350  -12.6060  -27.0890 N.3    91  GLN91      -0.1245
      2  CA        22.4470  -13.7550  -26.2160 C.3    91  GLN91       0.1566
      3  C         22.6810  -15.0220  -27.0080 C.2    91  GLN91       0.2260
      4  O         22.7650  -15.0200  -28.2350 O.2    91  GLN91      -0.2867
      5  CB        20.9650  -13.7520  -25.7390 C.3    91  GLN91       0.0367
      6  CG        19.9250  -13.6600  -26.8560 C.3    91  GLN91       0.0905
      7  CD        19.1970  -14.9610  -27.1080 C.2    91  GLN91       0.2608
      8  OE1       19.7790  -16.0590  -27.0700 O.2    91  GLN91      -0.2717
      9  NE2       17.9030  -14.8800  -27.4530 N.am   91  GLN91      -0.0878
     10  N         21.3070  -19.3090  -26.7330 N.3    93  HIS93      -0.1241
     11  CA        20.4040  -20.3060  -26.1410 C.3    93  HIS93       0.1621
     12  C         20.5020  -21.5650  -26.9660 C.2    93  HIS93       0.2264
     13  O         21.1240  -21.5930  -28.0160 O.2    93  HIS93      -0.2867
     14  CB        18.9770  -19.7920  -26.1040 C.3    93  HIS93       0.0745
     15  CG        18.4660  -19.5200  -27.4750 C.ar   93  HIS93       0.0817
     16  ND1       18.6340  -18.3180  -28.1110 N.ar   93  HIS93      -0.2268
     17  CD2       17.8260  -20.3620  -28.3380 C.ar   93  HIS93       0.1154
     18  CE1       18.1400  -18.4580  -29.3520 C.ar   93  HIS93       0.1986
     19  NE2       17.6540  -19.6850  -29.5190 N.ar   93  HIS93      -0.2212
     20  N         18.2100  -25.3070  -28.2630 N.3    95  HIS95      -0.1241
     21  CA        17.0100  -26.1250  -28.4450 C.3    95  HIS95       0.1621
     22  C         17.4600  -27.5650  -28.3330 C.2    95  HIS95       0.2264
     23  O         18.5390  -27.9220  -28.8330 O.2    95  HIS95      -0.2867
     24  CB        16.3660  -25.9120  -29.8320 C.3    95  HIS95       0.0745
     25  CG        16.0650  -24.4500  -30.1070 C.ar   95  HIS95       0.0817
     26  ND1       14.8310  -23.8880  -29.9450 N.ar   95  HIS95      -0.2268
     27  CD2       16.8830  -23.4220  -30.4980 C.ar   95  HIS95       0.1154
     28  CE1       14.8980  -22.5890  -30.2610 C.ar   95  HIS95       0.1986
     29  NE2       16.1460  -22.2660  -30.5800 N.ar   95  HIS95      -0.2212
     30  N         22.1740  -21.5050  -30.6530 N.3   118  HIS118     -0.1241
     31  CA        21.9350  -20.2980  -31.4170 C.3   118  HIS118      0.1621
     32  C         22.6000  -19.1140  -30.7560 C.2   118  HIS118      0.2264
     33  O         22.2180  -18.7590  -29.6270 O.2   118  HIS118     -0.2867
     34  CB        20.4130  -20.0070  -31.5410 C.3   118  HIS118      0.0745
     35  CG        19.7280  -21.0000  -32.4250 C.ar  118  HIS118      0.0817
     36  ND1       18.3660  -21.2280  -32.4140 N.ar  118  HIS118     -0.2268
     37  CD2       20.2970  -21.8280  -33.3950 C.ar  118  HIS118      0.1154
     38  CE1       18.1050  -22.1630  -33.3190 C.ar  118  HIS118      0.1986
     39  NE2       19.2470  -22.5150  -33.9470 N.ar  118  HIS118     -0.2212
     40  N         22.9090  -15.2770  -31.0760 N.3   120  VAL120     -0.1245
     41  CA        22.0470  -14.2590  -31.7080 C.3   120  VAL120      0.1561
     42  C         22.7550  -12.9210  -31.7260 C.2   120  VAL120      0.2260
     43  O         23.1550  -12.4350  -30.6480 O.2   120  VAL120     -0.2867
     44  CB        20.7250  -14.1700  -30.8860 C.3   120  VAL120      0.0252
     45  CG1       19.7850  -13.1380  -31.5120 C.3   120  VAL120      0.0019
     46  CG2       20.0490  -15.5410  -30.7350 C.3   120  VAL120      0.0019
     47  N         18.6760   -4.0810  -30.6340 N.3   129  PHE129     -0.1227
     48  CA        18.0180   -5.3220  -31.0450 C.3   129  PHE129      0.1736
     49  C         16.5440   -5.0370  -31.4180 C.2   129  PHE129      0.2596
     50  O         16.0220   -5.6120  -32.4040 O.2   129  PHE129     -0.2718
     51  CB        18.0720   -6.3150  -29.8760 C.3   129  PHE129      0.0547
     52  CG        17.3950   -7.6060  -30.1560 C.ar  129  PHE129     -0.0202
     53  CD1       18.0430   -8.6370  -30.7840 C.ar  129  PHE129     -0.0042
     54  CD2       16.0460   -7.7930  -29.7870 C.ar  129  PHE129     -0.0042
     55  CE1       17.4480   -9.8490  -31.0380 C.ar  129  PHE129     -0.0003
     56  CE2       15.4190   -9.0160  -30.0430 C.ar  129  PHE129     -0.0003
     57  CZ        16.1350  -10.0480  -30.6990 C.ar  129  PHE129     -0.0000
     58  N         15.8070   -4.2460  -30.6090 N.am  130  GLY130     -0.1957
     59  CA        14.3710   -4.1020  -30.8770 C.3   130  GLY130      0.1869
     60  C         14.0960   -3.4180  -32.2090 C.2   130  GLY130      0.2309
     61  O         13.1000   -3.7230  -32.8450 O.2   130  GLY130     -0.2863
     62  N         15.1420   -6.1600  -35.2370 N.3   133  VAL133     -0.1245
     63  CA        14.2290   -7.2940  -35.5970 C.3   133  VAL133      0.1561
     64  C         13.1250   -6.8760  -36.5180 C.2   133  VAL133      0.2260
     65  O         12.3970   -7.7460  -37.0730 O.2   133  VAL133     -0.2867
     66  CB        13.5810   -7.9370  -34.3900 C.3   133  VAL133      0.0252
     67  CG1       14.5910   -8.6400  -33.5530 C.3   133  VAL133      0.0019
     68  CG2       12.7700   -6.9970  -33.5250 C.3   133  VAL133      0.0019
     69  N         22.0410  -15.1230  -36.9400 N.3   141  VAL141     -0.1245
     70  CA        22.0690  -16.1600  -35.9470 C.3   141  VAL141      0.1561
     71  C         23.0340  -17.2060  -36.4270 C.2   141  VAL141      0.2260
     72  O         22.9140  -17.7500  -37.5400 O.2   141  VAL141     -0.2867
     73  CB        20.6890  -16.7450  -35.5520 C.3   141  VAL141      0.0252
     74  CG1       20.8490  -17.7700  -34.4490 C.3   141  VAL141      0.0019
     75  CG2       19.7670  -15.6220  -35.1100 C.3   141  VAL141      0.0019
     76  N         13.1710  -15.7170  -37.0640 N.3   196  LEU196     -0.1231
     77  CA        13.1860  -16.2780  -35.7320 C.3   196  LEU196      0.1693
     78  C         12.4600  -17.6000  -35.7470 C.2   196  LEU196      0.2593
     79  O         11.4070  -17.7300  -36.4360 O.2   196  LEU196     -0.2718
     80  CB        12.4690  -15.3150  -34.7550 C.3   196  LEU196      0.0284
     81  CG        12.9990  -13.8970  -34.6900 C.3   196  LEU196      0.0019
     82  CD1       12.1390  -13.0830  -33.7280 C.3   196  LEU196      0.0001
     83  CD2       14.4300  -13.8810  -34.2220 C.3   196  LEU196      0.0001
     84  N         12.8700  -18.5580  -34.9280 N.am  197  THR197     -0.1939
     85  CA        12.1980  -19.8470  -34.8400 C.3   197  THR197      0.2028
     86  C         11.2030  -19.9410  -33.7110 C.2   197  THR197      0.2643
     87  O         10.6130  -21.0560  -33.5350 O.2   197  THR197     -0.2714
     88  CB        13.2000  -21.0040  -34.7570 C.3   197  THR197      0.1808
     89  OG1       13.8070  -20.9680  -33.4660 O.3   197  THR197     -0.2208
     90  CG2       14.2680  -20.9640  -35.8740 C.3   197  THR197      0.0379
     91  N         11.0380  -18.8720  -32.9430 N.am  198  THR198     -0.1937
     92  CA         9.9540  -18.8070  -31.9630 C.3   198  THR198      0.2013
     93  C          9.1750  -17.5550  -32.2440 C.2   198  THR198      0.2484
     94  O          9.6620  -16.6340  -32.8830 O.2   198  THR198     -0.2729
     95  CB        10.4380  -18.7140  -30.5000 C.3   198  THR198      0.1807
     96  OG1       11.0570  -17.4570  -30.2500 O.3   198  THR198     -0.2208
     97  CG2       11.4080  -19.8060  -30.1590 C.3   198  THR198      0.0379
     98  N          7.8840  -17.5060  -31.7950 N.am  199  PRO199     -0.2715
     99  CA         7.1690  -16.2520  -31.8490 C.3   199  PRO199      0.1521
    100  C          8.0590  -15.1130  -31.3330 C.2   199  PRO199      0.2440
    101  O          8.7780  -15.2890  -30.3210 O.2   199  PRO199     -0.2731
    102  CB         5.9480  -16.5520  -30.9150 C.3   199  PRO199      0.0310
    103  CG         5.7050  -17.9800  -31.1750 C.3   199  PRO199      0.0237
    104  CD         7.0680  -18.6080  -31.1880 C.3   199  PRO199      0.0939
    105  N          8.0120  -13.9440  -31.9770 N.am  200  PRO200     -0.2727
    106  CA         7.0800  -13.5280  -33.0300 C.3   200  PRO200      0.1402
    107  C          7.4260  -13.9720  -34.4550 C.2   200  PRO200      0.2269
    108  O          6.7660  -13.5150  -35.3770 O.2   200  PRO200     -0.2865
    109  CB         7.1220  -11.9990  -32.8670 C.3   200  PRO200      0.0296
    110  CG         8.5100  -11.6910  -32.4500 C.3   200  PRO200      0.0237
    111  CD         8.8490  -12.8060  -31.4540 C.3   200  PRO200      0.0939
    112  N          9.6290  -13.3370  -36.6440 N.3   202  LEU202     -0.1245
    113  CA         9.9100  -12.2470  -37.5860 C.3   202  LEU202      0.1561
    114  C         10.9340  -12.6800  -38.6030 C.2   202  LEU202      0.2260
    115  O         11.9080  -13.3960  -38.2960 O.2   202  LEU202     -0.2867
    116  CB        10.4200  -11.0440  -36.8290 C.3   202  LEU202      0.0270
    117  CG         9.3780  -10.3970  -35.8980 C.3   202  LEU202      0.0019
    118  CD1       10.0190   -9.3490  -34.9950 C.3   202  LEU202      0.0001
    119  CD2        8.1490   -9.8350  -36.7080 C.3   202  LEU202      0.0001
    120  N         20.6390  -16.6080  -41.4960 N.3   207  TRP207     -0.1241
    121  CA        21.0720  -17.7990  -40.7750 C.3   207  TRP207      0.1605
    122  C         22.4500  -18.2120  -41.2800 C.2   207  TRP207      0.2264
    123  O         22.6890  -18.2830  -42.5070 O.2   207  TRP207     -0.2867
    124  CB        20.0740  -18.9440  -40.9840 C.3   207  TRP207      0.0550
    125  CG        18.9550  -18.8380  -40.0190 C.ar  207  TRP207      0.0003
    126  CD1       17.7020  -18.2640  -40.1960 C.ar  207  TRP207      0.0946
    127  CD2       19.0250  -19.2630  -38.6500 C.ar  207  TRP207      0.0152
    128  NE1       17.0460  -18.2660  -39.0170 N.ar  207  TRP207     -0.2442
    129  CE2       17.7780  -18.8700  -38.0570 C.ar  207  TRP207      0.0810
    130  CE3       19.9820  -19.8780  -37.8610 C.ar  207  TRP207      0.0012
    131  CZ2       17.4960  -19.1020  -36.7250 C.ar  207  TRP207      0.0191
    132  CZ3       19.7060  -20.1630  -36.5710 C.ar  207  TRP207      0.0001
    133  CH2       18.5020  -19.7810  -35.9820 C.ar  207  TRP207      0.0015
@<TRIPOS>BOND
     1   123   122    2
     2   120   121    1
     3   122   121    1
     4   124   121    1
     5   124   125    1
     6   126   125   ar
     7   126   128   ar
     8   125   127   ar
     9   128   129   ar
    10   127   129   ar
    11   127   130   ar
    12   114   115    2
    13   114   113    1
    14   129   131   ar
    15   130   132   ar
    16   113   116    1
    17   113   112    1
    18    72    71    2
    19    65    64    2
    20    76    77    1
    21    69    70    1
    22   116   117    1
    23   131   133   ar
    24   119   117    1
    25   132   133   ar
    26    64    63    1
    27    79    78    2
    28    71    70    1
    29    70    73    1
    30   117   118    1
    31    90    88    1
    32    78    77    1
    33    78    84   am
    34    77    80    1
    35    63    62    1
    36    63    66    1
    37    73    75    1
    38    73    74    1
    39   108   107    2
    40    84    85    1
    41    85    88    1
    42    85    86    1
    43    88    89    1
    44    80    81    1
    45    81    83    1
    46    81    82    1
    47   107   106    1
    48    66    67    1
    49    66    68    1
    50    39    37   ar
    51    39    38   ar
    52    86    87    2
    53    86    91   am
    54    37    35   ar
    55    38    36   ar
    56   106   109    1
    57   106   105    1
    58    91    92    1
    59    94    93    2
    60   109   110    1
    61    61    60    2
    62   110   111    1
    63    35    36   ar
    64    35    34    1
    65    50    49    2
    66    93    92    1
    67    93    98   am
    68    60    59    1
    69   105   111    1
    70   105   100   am
    71    92    95    1
    72    99    98    1
    73    99   100    1
    74    99   102    1
    75    98   104    1
    76    42    41    1
    77    42    43    2
    78    41    40    1
    79    41    44    1
    80    34    31    1
    81    45    44    1
    82    49    48    1
    83    49    58   am
    84    31    32    1
    85    31    30    1
    86   100   101    2
    87   104   103    1
    88   103   102    1
    89    48    47    1
    90    48    51    1
    91    55    53   ar
    92    55    57   ar
    93    44    46    1
    94    59    58    1
    95    53    52   ar
    96    32    33    2
    97    57    56   ar
    98    29    27   ar
    99    29    28   ar
   100    95    96    1
   101    95    97    1
   102    27    25   ar
   103    28    26   ar
   104    52    51    1
   105    52    54   ar
   106    25    26   ar
   107    25    24    1
   108    56    54   ar
   109    24    21    1
   110    19    18   ar
   111    19    17   ar
   112    18    16   ar
   113    23    22    2
   114    21    22    1
   115    21    20    1
   116    17    15   ar
   117     4     3    2
   118    16    15   ar
   119    13    12    2
   120    15    14    1
   121     9     7   am
   122     7     8    2
   123     7     6    1
   124     1     2    1
   125     3     2    1
   126    12    11    1
   127     6     5    1
   128    10    11    1
   129     2     5    1
   130    11    14    1
