@<TRIPOS>MOLECULE
tmp/5ll9D00.pdb
 152 145 0 0 0
SMALL
GASTEIGER

@<TRIPOS>ATOM
      1  N          1.1510    7.6860  -46.3250 N.3    67  LYS67      -0.1245
      2  CA         0.2970    7.7640  -45.1580 C.3    67  LYS67       0.1561
      3  C         -1.1800    7.7360  -45.4880 C.2    67  LYS67       0.2260
      4  O         -1.5720    8.2050  -46.5140 O.2    67  LYS67      -0.2867
      5  CB         0.6730    9.0020  -44.3400 C.3    67  LYS67       0.0271
      6  CG         0.2150   10.2960  -44.7700 C.3    67  LYS67       0.0035
      7  CD         0.2280   11.2680  -43.5050 C.3    67  LYS67       0.0206
      8  CE        -0.2180   12.5590  -44.1330 C.3    67  LYS67       0.1093
      9  NZ         0.0140   13.6740  -43.1680 N.3    67  LYS67      -0.1314
     10  N         -3.3740    8.7110  -38.2790 N.3    87  GLN87      -0.1245
     11  CA        -2.9020    8.2520  -39.5840 C.3    87  GLN87       0.1566
     12  C         -2.1170    6.9660  -39.3560 C.2    87  GLN87       0.2260
     13  O         -1.6810    6.6740  -38.2550 O.2    87  GLN87      -0.2867
     14  CB        -1.9430    9.2980  -40.2830 C.3    87  GLN87       0.0367
     15  CG        -0.8070    9.7850  -39.4130 C.3    87  GLN87       0.0905
     16  CD         0.5080    9.2550  -39.8420 C.2    87  GLN87       0.2608
     17  OE1        0.6170    8.1090  -40.2020 O.2    87  GLN87      -0.2717
     18  NE2        1.4990   10.1010  -39.8430 N.am   87  GLN87      -0.0878
     19  N          1.1580    4.6950  -41.4870 N.3    89  HIS89      -0.1241
     20  CA         2.1520    4.7620  -42.5480 C.3    89  HIS89       0.1621
     21  C          3.0940    3.5980  -42.3340 C.2    89  HIS89       0.2264
     22  O          3.0060    2.8650  -41.3790 O.2    89  HIS89      -0.2867
     23  CB         2.8830    6.1300  -42.5000 C.3    89  HIS89       0.0745
     24  CG         3.6290    6.3470  -41.1980 C.ar   89  HIS89       0.0817
     25  ND1        3.0670    6.9020  -40.0890 N.ar   89  HIS89      -0.2268
     26  CD2        4.8840    5.8330  -40.7810 C.ar   89  HIS89       0.1154
     27  CE1        3.9480    6.8630  -39.0620 C.ar   89  HIS89       0.1986
     28  NE2        5.0770    6.1480  -39.4770 N.ar   89  HIS89      -0.2212
     29  N          7.3100    1.9020  -43.0400 N.3    91  HIS91      -0.1241
     30  CA         8.8200    2.0740  -43.2490 C.3    91  HIS91       0.1621
     31  C          9.3210    0.8280  -43.8350 C.2    91  HIS91       0.2264
     32  O          8.8370   -0.2740  -43.5270 O.2    91  HIS91      -0.2867
     33  CB         9.4980    2.2330  -41.8740 C.3    91  HIS91       0.0745
     34  CG         9.0090    3.4140  -41.0950 C.ar   91  HIS91       0.0817
     35  ND1        9.5970    4.6580  -41.1870 N.ar   91  HIS91      -0.2268
     36  CD2        7.9130    3.5890  -40.2240 C.ar   91  HIS91       0.1154
     37  CE1        8.9460    5.5540  -40.3920 C.ar   91  HIS91       0.1986
     38  NE2        7.9290    4.9250  -39.7730 N.ar   91  HIS91      -0.2212
     39  N          3.1080    1.6870  -38.7640 N.3   115  HIS115     -0.1241
     40  CA         2.7790    2.5010  -37.5460 C.3   115  HIS115      0.1621
     41  C          1.4120    3.0800  -37.6700 C.2   115  HIS115      0.2264
     42  O          1.0850    3.7600  -38.6390 O.2   115  HIS115     -0.2867
     43  CB         3.7770    3.6490  -37.4540 C.3   115  HIS115      0.0745
     44  CG         5.1410    3.1460  -37.1130 C.ar  115  HIS115      0.0817
     45  ND1        6.2870    3.8690  -37.3950 N.ar  115  HIS115     -0.2268
     46  CD2        5.5610    1.9620  -36.4850 C.ar  115  HIS115      0.1154
     47  CE1        7.3960    3.1570  -36.9120 C.ar  115  HIS115      0.1986
     48  NE2        6.9460    1.9450  -36.4410 N.ar  115  HIS115     -0.2212
     49  N         -0.6240    5.7170  -35.9180 N.3   117  VAL117     -0.1245
     50  CA        -0.3840    6.7790  -34.9390 C.3   117  VAL117      0.1561
     51  C         -1.7190    7.3170  -34.3840 C.2   117  VAL117      0.2260
     52  O         -2.6820    7.5570  -35.1280 O.2   117  VAL117     -0.2867
     53  CB         0.2930    7.9390  -35.7190 C.3   117  VAL117      0.0252
     54  CG1        0.6790    9.0670  -34.7490 C.3   117  VAL117      0.0019
     55  CG2        1.5380    7.4460  -36.4220 C.3   117  VAL117      0.0019
     56  N         -3.6930   15.9790  -33.4590 N.3   127  ALA127     -0.1231
     57  CA        -2.4670   15.2970  -33.4140 C.3   127  ALA127      0.1694
     58  C         -1.2040   16.1870  -33.5250 C.2   127  ALA127      0.2592
     59  O         -0.1670   15.9760  -32.9260 O.2   127  ALA127     -0.2718
     60  CB        -2.4620   14.2850  -34.5610 C.3   127  ALA127      0.0304
     61  N         -1.2680   17.1900  -34.4260 N.am  128  SER128     -0.1952
     62  CA        -0.1220   18.0870  -34.5600 C.3   128  SER128      0.1924
     63  C          0.1050   18.8440  -33.2070 C.2   128  SER128      0.2314
     64  O          1.2420   18.9360  -32.7430 O.2   128  SER128     -0.2863
     65  CB        -0.3360   19.1150  -35.7120 C.3   128  SER128      0.2116
     66  OG        -0.3790   18.4060  -36.9370 O.3   128  SER128     -0.2180
     67  N          1.7260   16.4330  -30.7190 N.3   131  SER131     -0.1217
     68  CA         2.9660   15.7790  -31.1130 C.3   131  SER131      0.1889
     69  C          4.2210   16.1600  -30.3060 C.2   131  SER131      0.2288
     70  O          5.1890   15.4280  -30.1050 O.2   131  SER131     -0.2866
     71  CB         3.2390   15.9420  -32.6100 C.3   131  SER131      0.2089
     72  OG         3.6560   17.2920  -32.8880 O.3   131  SER131     -0.2183
     73  N          1.2730   11.1550  -27.7420 N.3   137  LEU137     -0.1245
     74  CA         1.0070   10.1790  -28.8950 C.3   137  LEU137      0.1561
     75  C          1.1540    8.7480  -28.3860 C.2   137  LEU137      0.2260
     76  O          1.9080    8.5030  -27.4230 O.2   137  LEU137     -0.2867
     77  CB         2.0510   10.4040  -30.0390 C.3   137  LEU137      0.0270
     78  CG         2.0180   11.8060  -30.6970 C.3   137  LEU137      0.0019
     79  CD1        3.2930   11.9510  -31.5480 C.3   137  LEU137      0.0001
     80  CD2        0.7670   11.9980  -31.5440 C.3   137  LEU137      0.0001
     81  N          1.6670    4.9500  -30.5010 N.3   139  VAL139     -0.1245
     82  CA         1.7320    4.2420  -31.7640 C.3   139  VAL139      0.1561
     83  C          1.5470    2.7520  -31.5530 C.2   139  VAL139      0.2260
     84  O          2.0930    2.1810  -30.5820 O.2   139  VAL139     -0.2867
     85  CB         3.0940    4.5270  -32.4340 C.3   139  VAL139      0.0252
     86  CG1        3.1910    3.7870  -33.8070 C.3   139  VAL139      0.0019
     87  CG2        3.2310    6.0280  -32.6190 C.3   139  VAL139      0.0019
     88  N          8.9610   10.0160  -31.5280 N.3   195  LEU195     -0.1231
     89  CA         8.7800    9.8960  -33.0050 C.3   195  LEU195      0.1693
     90  C         10.0790    9.3560  -33.6180 C.2   195  LEU195      0.2593
     91  O         11.1700    9.7510  -33.1970 O.2   195  LEU195     -0.2718
     92  CB         8.5340   11.3400  -33.6170 C.3   195  LEU195      0.0284
     93  CG         7.1330   11.9080  -33.5180 C.3   195  LEU195      0.0019
     94  CD1        6.8400   12.4290  -32.1030 C.3   195  LEU195      0.0001
     95  CD2        7.0170   13.0530  -34.5430 C.3   195  LEU195      0.0001
     96  N          9.9650    8.4760  -34.5960 N.am  196  THR196     -0.1939
     97  CA        11.1930    8.0390  -35.2750 C.3   196  THR196      0.2028
     98  C         11.6150    8.8630  -36.4240 C.2   196  THR196      0.2643
     99  O         12.6450    8.5730  -37.0930 O.2   196  THR196     -0.2714
    100  CB        11.0620    6.6050  -35.7890 C.3   196  THR196      0.1808
    101  OG1       10.0640    6.6170  -36.7980 O.3   196  THR196     -0.2208
    102  CG2       10.6090    5.6110  -34.6770 C.3   196  THR196      0.0379
    103  N         10.8570    9.9170  -36.6490 N.am  197  THR197     -0.1937
    104  CA        11.1980   10.9280  -37.6760 C.3   197  THR197      0.2013
    105  C         11.3160   12.2670  -36.9970 C.2   197  THR197      0.2484
    106  O         10.6150   12.5090  -36.0320 O.2   197  THR197     -0.2729
    107  CB        10.0270   10.9940  -38.6920 C.3   197  THR197      0.1807
    108  OG1        8.7730   11.1640  -38.0170 O.3   197  THR197     -0.2208
    109  CG2        9.8870    9.6570  -39.4690 C.3   197  THR197      0.0379
    110  N         12.0100   13.2080  -37.6560 N.am  198  PRO198     -0.2715
    111  CA        11.9870   14.5840  -37.1370 C.3   198  PRO198      0.1521
    112  C         10.5510   15.0780  -36.9440 C.2   198  PRO198      0.2440
    113  O          9.7030   14.8430  -37.7990 O.2   198  PRO198     -0.2731
    114  CB        12.6770   15.3430  -38.3090 C.3   198  PRO198      0.0310
    115  CG        13.7180   14.3360  -38.7660 C.3   198  PRO198      0.0237
    116  CD        12.9040   13.0010  -38.8360 C.3   198  PRO198      0.0939
    117  N         10.2770   15.8170  -35.8630 N.am  199  PRO199     -0.2727
    118  CA        11.2590   16.3240  -34.9390 C.3   199  PRO199      0.1402
    119  C         11.6690   15.4380  -33.7880 C.2   199  PRO199      0.2269
    120  O         12.3000   15.8640  -32.8440 O.2   199  PRO199     -0.2865
    121  CB        10.5300   17.5870  -34.3810 C.3   199  PRO199      0.0296
    122  CG         9.4080   17.8670  -35.2870 C.3   199  PRO199      0.0237
    123  CD         8.9680   16.5000  -35.7050 C.3   199  PRO199      0.0939
    124  N         10.1980   14.0390  -31.2620 N.3   201  ASN201     -0.1240
    125  CA         9.8280   14.4430  -29.8970 C.3   201  ASN201      0.1653
    126  C          9.6690   13.2120  -29.0480 C.2   201  ASN201      0.2266
    127  O          9.0580   12.2110  -29.5120 O.2   201  ASN201     -0.2867
    128  CB         8.5120   15.2220  -29.9080 C.3   201  ASN201      0.1155
    129  CG         8.5740   16.3550  -30.9160 C.2   201  ASN201      0.2627
    130  OD1        8.4440   16.1680  -32.1180 O.2   201  ASN201     -0.2716
    131  ND2        8.9530   17.4860  -30.4180 N.am  201  ASN201     -0.0877
    132  N          6.0190    9.6560  -27.2720 N.3   204  VAL204     -0.1245
    133  CA         5.3050    8.5110  -27.8070 C.3   204  VAL204      0.1561
    134  C          5.3340    7.3150  -26.8290 C.2   204  VAL204      0.2260
    135  O          6.3810    6.8870  -26.4280 O.2   204  VAL204     -0.2867
    136  CB         5.9360    8.0600  -29.1460 C.3   204  VAL204      0.0252
    137  CG1        5.1450    6.9020  -29.6770 C.3   204  VAL204      0.0019
    138  CG2        5.8880    9.1630  -30.1790 C.3   204  VAL204      0.0019
    139  N          4.9270    3.6510  -26.9980 N.3   206  TRP206     -0.1241
    140  CA         5.0150    2.6180  -28.0310 C.3   206  TRP206      0.1605
    141  C          4.4520    1.2930  -27.5990 C.2   206  TRP206      0.2264
    142  O          4.7510    0.8480  -26.4470 O.2   206  TRP206     -0.2867
    143  CB         6.5480    2.3940  -28.4060 C.3   206  TRP206      0.0550
    144  CG         7.0380    3.4490  -29.3410 C.ar  206  TRP206      0.0003
    145  CD1        7.7330    4.6070  -29.0360 C.ar  206  TRP206      0.0946
    146  CD2        6.8540    3.4780  -30.7890 C.ar  206  TRP206      0.0152
    147  NE1        7.9970    5.3300  -30.1690 N.ar  206  TRP206     -0.2442
    148  CE2        7.4990    4.7040  -31.2560 C.ar  206  TRP206      0.0810
    149  CE3        6.2540    2.6330  -31.7070 C.ar  206  TRP206      0.0012
    150  CZ2        7.5220    5.0530  -32.5870 C.ar  206  TRP206      0.0191
    151  CZ3        6.2860    2.9950  -33.0540 C.ar  206  TRP206      0.0001
    152  CH2        6.9070    4.1730  -33.4800 C.ar  206  TRP206      0.0015
@<TRIPOS>BOND
     1     4     3    2
     2     1     2    1
     3     3     2    1
     4     2     5    1
     5     6     5    1
     6     6     7    1
     7     8     7    1
     8     8     9    1
     9    31    32    2
    10    31    30    1
    11    30    29    1
    12    30    33    1
    13    20    23    1
    14    20    21    1
    15    20    19    1
    16    23    24    1
    17    21    22    2
    18    33    34    1
    19    24    26   ar
    20    24    25   ar
    21    35    34   ar
    22    35    37   ar
    23    34    36   ar
    24    26    28   ar
    25    37    38   ar
    26    14    11    1
    27    14    15    1
    28    36    38   ar
    29    17    16    2
    30    25    27   ar
    31    18    16   am
    32    16    15    1
    33    11    12    1
    34    11    10    1
    35    28    27   ar
    36   109   107    1
    37    12    13    2
    38   116   115    1
    39   116   110    1
    40   115   114    1
    41    39    40    1
    42   107   108    1
    43   107   104    1
    44    42    41    2
    45   114   111    1
    46   113   112    2
    47   104   105    1
    48   104   103    1
    49    41    40    1
    50   110   111    1
    51   110   105   am
    52    40    43    1
    53    43    44    1
    54    45    44   ar
    55    45    47   ar
    56   111   112    1
    57    44    46   ar
    58    99    98    2
    59   105   106    2
    60   112   117   am
    61    66    65    1
    62    47    48   ar
    63   101   100    1
    64   103    98   am
    65    46    48   ar
    66    98    97    1
    67    55    53    1
    68    49    50    1
    69   117   123    1
    70   117   118    1
    71   100    97    1
    72   100   102    1
    73    53    50    1
    74    53    54    1
    75    65    62    1
    76   123   122    1
    77   122   121    1
    78    97    96    1
    79    52    51    2
    80   118   121    1
    81   118   119    1
    82    50    51    1
    83    96    90   am
    84    60    57    1
    85    62    61    1
    86    62    63    1
    87    95    93    1
    88    61    58   am
    89    86    85    1
    90   119   120    2
    91    90    91    2
    92    90    89    1
    93    92    93    1
    94    92    89    1
    95    58    57    1
    96    58    59    2
    97    93    94    1
    98   152   151   ar
    99   152   150   ar
   100    56    57    1
   101    63    64    2
   102   151   149   ar
   103    89    88    1
   104    72    71    1
   105    87    85    1
   106    71    68    1
   107   150   148   ar
   108    85    82    1
   109   130   129    2
   110    82    83    1
   111    82    81    1
   112   149   146   ar
   113    83    84    2
   114    79    78    1
   115    80    78    1
   116   124   125    1
   117   148   146   ar
   118   148   147   ar
   119    68    67    1
   120    68    69    1
   121   129   131   am
   122   129   128    1
   123   146   144   ar
   124    78    77    1
   125    69    70    2
   126   138   136    1
   127   147   145   ar
   128    77    74    1
   129   128   125    1
   130   125   126    1
   131   137   136    1
   132   127   126    2
   133   144   145   ar
   134   144   143    1
   135   136   133    1
   136    74    75    1
   137    74    73    1
   138   143   140    1
   139    75    76    2
   140   140   141    1
   141   140   139    1
   142   133   132    1
   143   133   134    1
   144   141   142    2
   145   134   135    2
