@<TRIPOS>MOLECULE
tmp/5llaB00.pdb
 178 173 0 0 0
SMALL
GASTEIGER

@<TRIPOS>ATOM
      1  N        -40.3730  -27.7890   27.1720 N.3    64  ASN64      -0.1296
      2  CA       -39.6670  -27.8560   25.8470 C.3    64  ASN64       0.1339
      3  C        -39.4780  -26.4610   25.3360 C.3    64  ASN64       0.2014
      4  O        -40.5200  -25.7120   25.1780 O.3    64  ASN64      -0.2188
      5  CB       -40.5080  -28.5340   24.7330 C.3    64  ASN64       0.1102
      6  CG       -40.7520  -29.9930   24.9600 C.2    64  ASN64       0.2623
      7  OD1      -41.7330  -30.5650   24.4160 O.2    64  ASN64      -0.2716
      8  ND2      -39.7970  -30.6520   25.5620 N.am   64  ASN64      -0.0877
      9  N        -33.3610  -27.9680   17.3210 N.3    88  ARG88      -0.1231
     10  CA       -34.7770  -28.1430   17.3390 C.3    88  ARG88       0.1694
     11  C        -35.4470  -27.8220   18.7150 C.2    88  ARG88       0.2591
     12  O        -36.4610  -27.1280   18.7500 O.2    88  ARG88      -0.2718
     13  CB       -35.0470  -29.6290   16.9360 C.3    88  ARG88       0.0321
     14  CG       -36.4720  -30.1200   17.2360 C.3    88  ARG88       0.0489
     15  CD       -37.3760  -29.5560   16.2110 C.3    88  ARG88       0.2205
     16  NE       -38.6810  -30.2750   16.3000 N.pl3  88  ARG88      -0.0865
     17  CZ       -39.6570  -30.1900   15.3950 C.cat  88  ARG88       0.5346
     18  NH1      -39.4650  -29.4290   14.3140 N.pl3  88  ARG88       0.1354
     19  NH2      -40.8060  -30.8740   15.5570 N.pl3  88  ARG88       0.1354
     20  N        -34.8630  -28.3790   19.8060 N.am   89  GLN89      -0.1979
     21  CA       -35.5170  -28.4610   21.0840 C.3    89  GLN89       0.1601
     22  C        -34.4690  -28.4940   22.2270 C.2    89  GLN89       0.2287
     23  O        -33.3630  -29.0070   22.0730 O.2    89  GLN89      -0.2864
     24  CB       -36.4430  -29.7030   21.1080 C.3    89  GLN89       0.0394
     25  CG       -37.1650  -29.7420   22.4060 C.3    89  GLN89       0.0908
     26  CD       -37.9360  -30.9720   22.4400 C.2    89  GLN89       0.2608
     27  OE1      -37.3440  -32.0330   22.6360 O.2    89  GLN89      -0.2717
     28  NE2      -39.2120  -30.8970   22.0540 N.am   89  GLN89      -0.0878
     29  N        -34.7810  -29.5220   26.4790 N.3    91  HIS91      -0.1241
     30  CA       -35.6590  -29.9170   27.6680 C.3    91  HIS91       0.1621
     31  C        -34.6560  -30.4530   28.6730 C.2    91  HIS91       0.2264
     32  O        -33.4400  -30.5030   28.5670 O.2    91  HIS91      -0.2867
     33  CB       -36.7300  -30.8850   27.2420 C.3    91  HIS91       0.0745
     34  CG       -36.1040  -32.1660   26.6990 C.ar   91  HIS91       0.0817
     35  ND1      -36.0240  -32.4400   25.3240 N.ar   91  HIS91      -0.2268
     36  CD2      -35.5590  -33.2780   27.3360 C.ar   91  HIS91       0.1154
     37  CE1      -35.3980  -33.6060   25.1540 C.ar   91  HIS91       0.1986
     38  NE2      -35.0930  -34.1290   26.3750 N.ar   91  HIS91      -0.2212
     39  N        -34.3530  -33.2490   32.3020 N.3    93  HIS93      -0.1241
     40  CA       -34.7870  -34.4070   33.0910 C.3    93  HIS93       0.1621
     41  C        -34.2540  -34.2080   34.5300 C.2    93  HIS93       0.2264
     42  O        -33.1630  -33.7540   34.7190 O.2    93  HIS93      -0.2867
     43  CB       -34.2280  -35.6980   32.4960 C.3    93  HIS93       0.0745
     44  CG       -34.6210  -35.9690   31.0500 C.ar   93  HIS93       0.0817
     45  ND1      -35.7480  -36.5960   30.7010 N.ar   93  HIS93      -0.2268
     46  CD2      -33.9460  -35.6190   29.9570 C.ar   93  HIS93       0.1154
     47  CE1      -35.7930  -36.6670   29.2570 C.ar   93  HIS93       0.1986
     48  NE2      -34.6620  -36.1100   28.8560 N.ar   93  HIS93      -0.2212
     49  N        -31.0250  -31.7890   27.7460 N.3   116  HIS116     -0.1241
     50  CA       -30.8500  -32.3360   26.3660 C.3   116  HIS116      0.1621
     51  C        -31.1490  -31.2500   25.3150 C.2   116  HIS116      0.2264
     52  O        -32.1760  -30.5700   25.3910 O.2   116  HIS116     -0.2867
     53  CB       -31.7580  -33.5100   26.1400 C.3   116  HIS116      0.0745
     54  CG       -31.3870  -34.7210   26.9180 C.ar  116  HIS116      0.0817
     55  ND1      -32.2450  -35.6780   27.1960 N.ar  116  HIS116     -0.2268
     56  CD2      -30.1430  -35.0700   27.4630 C.ar  116  HIS116      0.1154
     57  CE1      -31.6590  -36.6390   27.8820 C.ar  116  HIS116      0.1986
     58  NE2      -30.3360  -36.3130   28.0880 N.ar  116  HIS116     -0.2212
     59  N        -31.5300  -30.9740   21.4250 N.3   118  VAL118     -0.1245
     60  CA       -31.8810  -31.9150   20.2730 C.3   118  VAL118      0.1561
     61  C        -31.7140  -31.1790   18.9170 C.2   118  VAL118      0.2260
     62  O        -32.2770  -30.0800   18.7510 O.2   118  VAL118     -0.2867
     63  CB       -33.3180  -32.3760   20.4730 C.3   118  VAL118      0.0252
     64  CG1      -33.6390  -33.3550   19.3210 C.3   118  VAL118      0.0019
     65  CG2      -33.5240  -33.0740   21.8410 C.3   118  VAL118      0.0019
     66  N        -37.7260  -32.6990   10.9530 N.3   128  PHE128     -0.1227
     67  CA       -37.3370  -33.3790   12.1980 C.3   128  PHE128      0.1736
     68  C        -38.0090  -34.7390   12.3300 C.2   128  PHE128      0.2595
     69  O        -37.3810  -35.7680   12.6520 O.2   128  PHE128     -0.2718
     70  CB       -37.7310  -32.5040   13.3970 C.3   128  PHE128      0.0547
     71  CG       -37.5460  -33.2450   14.7160 C.ar  128  PHE128     -0.0202
     72  CD1      -36.2700  -33.3200   15.3350 C.ar  128  PHE128     -0.0042
     73  CD2      -38.6270  -33.9610   15.2400 C.ar  128  PHE128     -0.0042
     74  CE1      -36.1440  -34.0480   16.5410 C.ar  128  PHE128     -0.0003
     75  CE2      -38.4940  -34.7000   16.4310 C.ar  128  PHE128     -0.0003
     76  CZ       -37.2430  -34.7450   17.0620 C.ar  128  PHE128     -0.0000
     77  N        -39.2930  -34.8020   12.0260 N.am  129  VAL129     -0.1980
     78  CA       -40.0280  -36.0740   12.1480 C.3   129  VAL129      0.1595
     79  C        -39.4670  -37.1890   11.3030 C.2   129  VAL129      0.2287
     80  O        -39.3180  -38.3700   11.6880 O.2   129  VAL129     -0.2864
     81  CB       -41.5600  -35.8720   11.8950 C.3   129  VAL129      0.0276
     82  CG1      -42.3020  -37.1410   12.2350 C.3   129  VAL129      0.0022
     83  CG2      -42.0560  -34.7210   12.7270 C.3   129  VAL129      0.0022
     84  N        -35.9770  -38.2670   12.7120 N.3   132  ALA132     -0.1231
     85  CA       -36.1010  -39.0690   13.9650 C.3   132  ALA132      0.1694
     86  C        -36.2230  -40.5490   13.6560 C.2   132  ALA132      0.2592
     87  O        -35.9930  -41.3450   14.5880 O.2   132  ALA132     -0.2718
     88  CB       -37.2890  -38.6260   14.7450 C.3   132  ALA132      0.0304
     89  N        -36.4880  -40.9700   12.4210 N.am  133  HIS133     -0.1976
     90  CA       -36.5600  -42.3760   12.0410 C.3   133  HIS133      0.1656
     91  C        -35.3450  -42.9120   11.2810 C.2   133  HIS133      0.2291
     92  O        -35.3980  -43.9880   10.6140 O.2   133  HIS133     -0.2864
     93  CB       -37.8260  -42.6050   11.2090 C.3   133  HIS133      0.0771
     94  CG       -39.0850  -42.3580   11.9890 C.ar  133  HIS133      0.0820
     95  ND1      -39.7870  -43.3600   12.5870 N.ar  133  HIS133     -0.2267
     96  CD2      -39.7070  -41.1750   12.3460 C.ar  133  HIS133      0.1154
     97  CE1      -40.8440  -42.8480   13.2210 C.ar  133  HIS133      0.1986
     98  NE2      -40.7910  -41.5020   13.1120 N.ar  133  HIS133     -0.2212
     99  N        -30.5930  -37.7830   14.1280 N.3   138  LEU138     -0.1245
    100  CA       -30.5630  -36.8580   15.2770 C.3   138  LEU138      0.1561
    101  C        -29.2200  -36.7840   15.9620 C.2   138  LEU138      0.2260
    102  O        -28.4870  -37.7590   15.9780 O.2   138  LEU138     -0.2867
    103  CB       -31.6120  -37.2140   16.3320 C.3   138  LEU138      0.0270
    104  CG       -33.0230  -37.4230   15.8470 C.3   138  LEU138      0.0019
    105  CD1      -33.9920  -37.7760   17.0100 C.3   138  LEU138      0.0001
    106  CD2      -33.5360  -36.1490   15.0790 C.3   138  LEU138      0.0001
    107  N        -27.8210  -35.3190   19.8430 N.3   140  VAL140     -0.1245
    108  CA       -28.3060  -34.7070   21.1040 C.3   140  VAL140      0.1561
    109  C        -27.1170  -34.4030   21.9490 C.2   140  VAL140      0.2260
    110  O        -26.3340  -35.3350   22.2060 O.2   140  VAL140     -0.2867
    111  CB       -29.3280  -35.5540   21.8470 C.3   140  VAL140      0.0252
    112  CG1      -29.8000  -34.7590   23.1020 C.3   140  VAL140      0.0019
    113  CG2      -30.4960  -35.8570   20.8940 C.3   140  VAL140      0.0019
    114  N        -33.7800  -41.9940   21.3540 N.3   195  LEU195     -0.1231
    115  CA       -34.5380  -41.0770   22.2300 C.3   195  LEU195      0.1693
    116  C        -34.7160  -41.7600   23.5690 C.2   195  LEU195      0.2593
    117  O        -34.9110  -42.9480   23.6240 O.2   195  LEU195     -0.2718
    118  CB       -35.9820  -40.9660   21.7210 C.3   195  LEU195      0.0284
    119  CG       -36.2620  -39.9190   20.6640 C.3   195  LEU195      0.0019
    120  CD1      -35.3720  -39.9940   19.5530 C.3   195  LEU195      0.0001
    121  CD2      -37.6810  -40.0250   20.1030 C.3   195  LEU195      0.0001
    122  N        -34.7810  -40.9270   24.6130 N.am  196  THR196     -0.1939
    123  CA       -34.9470  -41.5650   25.9870 C.3   196  THR196      0.2028
    124  C        -36.3960  -41.5040   26.4110 C.2   196  THR196      0.2642
    125  O        -36.7270  -41.8660   27.5820 O.2   196  THR196     -0.2714
    126  CB       -34.0520  -40.9480   27.0380 C.3   196  THR196      0.1808
    127  OG1      -34.4940  -39.6190   27.2930 O.3   196  THR196     -0.2208
    128  CG2      -32.5890  -40.9500   26.5720 C.3   196  THR196      0.0379
    129  N        -37.3010  -41.1050   25.5250 N.am  197  VAL197     -0.1963
    130  CA       -38.7490  -41.1640   25.7260 C.3   197  VAL197      0.1712
    131  C        -39.3830  -41.8680   24.5990 C.2   197  VAL197      0.2458
    132  O        -38.8400  -41.8070   23.4930 O.2   197  VAL197     -0.2730
    133  CB       -39.3470  -39.7350   25.8540 C.3   197  VAL197      0.0289
    134  CG1      -38.8130  -38.9980   27.0900 C.3   197  VAL197      0.0023
    135  CG2      -39.0520  -38.7960   24.6850 C.3   197  VAL197      0.0023
    136  N        -40.5310  -42.4740   24.7920 N.am  198  PRO198     -0.2716
    137  CA       -41.3440  -42.9780   23.6490 C.3   198  PRO198      0.1521
    138  C        -41.4250  -41.9040   22.6150 C.2   198  PRO198      0.2440
    139  O        -41.6870  -40.7400   22.9100 O.2   198  PRO198     -0.2731
    140  CB       -42.6800  -43.2840   24.2760 C.3   198  PRO198      0.0310
    141  CG       -42.2660  -43.7380   25.7090 C.3   198  PRO198      0.0237
    142  CD       -41.2160  -42.6940   26.0990 C.3   198  PRO198      0.0939
    143  N        -41.1810  -42.2560   21.3180 N.am  199  PRO199     -0.2727
    144  CA       -41.1890  -43.5920   20.7450 C.3   199  PRO199      0.1402
    145  C        -39.8330  -44.3010   20.8220 C.2   199  PRO199      0.2269
    146  O        -39.6950  -45.4170   20.2560 O.2   199  PRO199     -0.2865
    147  CB       -41.6330  -43.2920   19.2590 C.3   199  PRO199      0.0296
    148  CG       -41.0640  -41.9250   18.9960 C.3   199  PRO199      0.0237
    149  CD       -41.3440  -41.1930   20.3320 C.3   199  PRO199      0.0939
    150  N        -36.9630  -44.0610   19.5130 N.3   201  LEU201     -0.1245
    151  CA       -36.2960  -44.4510   18.2230 C.3   201  LEU201      0.1561
    152  C        -34.8060  -44.4170   18.2810 C.2   201  LEU201      0.2260
    153  O        -34.2420  -43.5070   18.8650 O.2   201  LEU201     -0.2867
    154  CB       -36.8060  -43.4500   17.1270 C.3   201  LEU201      0.0270
    155  CG       -38.3140  -43.4770   16.9740 C.3   201  LEU201      0.0019
    156  CD1      -38.8090  -42.1710   16.2310 C.3   201  LEU201      0.0001
    157  CD2      -38.6830  -44.7280   16.2010 C.3   201  LEU201      0.0001
    158  N        -30.2270  -41.5200   17.3900 N.3   204  VAL204     -0.1245
    159  CA       -29.4560  -40.4370   17.9780 C.3   204  VAL204      0.1561
    160  C        -27.9870  -40.7120   18.0630 C.2   204  VAL204      0.2260
    161  O        -27.5930  -41.7560   18.6570 O.2   204  VAL204     -0.2867
    162  CB       -29.9690  -40.2260   19.4150 C.3   204  VAL204      0.0252
    163  CG1      -29.2470  -39.0640   20.1410 C.3   204  VAL204      0.0019
    164  CG2      -31.4840  -39.8950   19.3680 C.3   204  VAL204      0.0019
    165  N        -25.4360  -39.5290   20.4140 N.3   206  TRP206     -0.1241
    166  CA       -25.2830  -38.8130   21.6820 C.3   206  TRP206      0.1605
    167  C        -23.9210  -38.2410   21.8400 C.2   206  TRP206      0.2264
    168  O        -22.9020  -38.8020   21.5210 O.2   206  TRP206     -0.2867
    169  CB       -25.5100  -39.8640   22.7850 C.3   206  TRP206      0.0550
    170  CG       -26.9690  -40.0670   23.0450 C.ar  206  TRP206      0.0003
    171  CD1      -27.8770  -40.9800   22.5330 C.ar  206  TRP206      0.0946
    172  CD2      -27.8150  -39.1290   23.8340 C.ar  206  TRP206      0.0152
    173  NE1      -29.1750  -40.7350   22.9630 N.ar  206  TRP206     -0.2442
    174  CE2      -29.1900  -39.6000   23.7200 C.ar  206  TRP206      0.0810
    175  CE3      -27.5730  -37.9420   24.5050 C.ar  206  TRP206      0.0012
    176  CZ2      -30.2700  -38.9680   24.3150 C.ar  206  TRP206      0.0191
    177  CZ3      -28.6490  -37.3090   25.1020 C.ar  206  TRP206      0.0001
    178  CH2      -29.9560  -37.7700   25.0370 C.ar  206  TRP206      0.0015
@<TRIPOS>BOND
     1    92    91    2
     2    66    67    1
     3    93    94    1
     4    93    90    1
     5    91    90    1
     6    79    80    2
     7    79    78    1
     8    81    78    1
     9    81    82    1
    10    81    83    1
    11    94    96   ar
    12    94    95   ar
    13    77    78    1
    14    77    68   am
    15    90    89    1
    16    67    68    1
    17    67    70    1
    18    68    69    2
    19    96    98   ar
    20    89    86   am
    21    95    97   ar
    22    84    85    1
    23    98    97   ar
    24    70    71    1
    25    86    85    1
    26    86    87    2
    27    85    88    1
    28    99   100    1
    29    18    17    1
    30    71    73   ar
    31    71    72   ar
    32   106   104    1
    33    73    75   ar
    34   100   101    1
    35   100   103    1
    36    72    74   ar
    37    17    19    1
    38    17    16    2
    39   104   103    1
    40   104   105    1
    41   101   102    2
    42   157   155    1
    43    15    16    1
    44    15    14    1
    45   156   155    1
    46    75    76   ar
    47    74    76   ar
    48    13    14    1
    49    13    10    1
    50   155   154    1
    51   154   151    1
    52     9    10    1
    53    10    11    1
    54   158   159    1
    55   159   160    1
    56   159   162    1
    57   160   161    2
    58   151   152    1
    59   151   150    1
    60   152   153    2
    61    11    12    2
    62    11    20   am
    63    62    61    2
    64    61    60    1
    65   148   147    1
    66   148   149    1
    67   147   144    1
    68    64    63    1
    69   164   162    1
    70   162   163    1
    71   120   119    1
    72    20    21    1
    73   107   108    1
    74   121   119    1
    75   146   145    2
    76    60    63    1
    77    60    59    1
    78   149   143    1
    79   165   166    1
    80    63    65    1
    81   119   118    1
    82   144   145    1
    83   144   143    1
    84   113   111    1
    85    21    24    1
    86    21    22    1
    87   108   111    1
    88   108   109    1
    89    24    25    1
    90   143   138   am
    91   114   115    1
    92   168   167    2
    93   166   167    1
    94   166   169    1
    95   118   115    1
    96   111   112    1
    97   109   110    2
    98    28    26   am
    99    23    22    2
   100   115   116    1
   101    25    26    1
   102    26    27    2
   103   171   173   ar
   104   171   170   ar
   105   138   139    2
   106   138   137    1
   107   169   170    1
   108   173   174   ar
   109   170   172   ar
   110   132   131    2
   111   116   117    2
   112   116   122   am
   113   137   140    1
   114   137   136    1
   115   174   172   ar
   116   174   176   ar
   117   172   175   ar
   118   140   141    1
   119   176   178   ar
   120     7     6    2
   121   175   177   ar
   122   131   136   am
   123   131   130    1
   124   122   123    1
   125   135   133    1
   126     5     6    1
   127     5     2    1
   128   136   142    1
   129     6     8   am
   130   178   177   ar
   131    37    35   ar
   132    37    38   ar
   133     4     3    1
   134    51    52    2
   135    51    50    1
   136    35    34   ar
   137     3     2    1
   138   129   130    1
   139   129   124   am
   140   141   142    1
   141   130   133    1
   142     2     1    1
   143   133   134    1
   144   123   124    1
   145   123   126    1
   146    53    50    1
   147    53    54    1
   148    50    49    1
   149    38    36   ar
   150   124   125    2
   151    29    30    1
   152   128   126    1
   153    34    33    1
   154    34    36   ar
   155    54    55   ar
   156    54    56   ar
   157   126   127    1
   158    55    57   ar
   159    33    30    1
   160    56    58   ar
   161    30    31    1
   162    57    58   ar
   163    32    31    2
   164    48    47   ar
   165    48    46   ar
   166    47    45   ar
   167    46    44   ar
   168    45    44   ar
   169    44    43    1
   170    39    40    1
   171    43    40    1
   172    40    41    1
   173    41    42    2
