@<TRIPOS>MOLECULE
tmp/5llcA00.pdb
 173 169 0 0 0
SMALL
GASTEIGER

@<TRIPOS>ATOM
      1  N          8.7390   -0.6070   10.6090 N.3     3  TRP3       -0.1241
      2  CA         8.0160   -1.5450   11.4300 C.3     3  TRP3        0.1605
      3  C          7.0240   -2.3040   10.6100 C.2     3  TRP3        0.2264
      4  O          6.4940   -1.8460    9.5800 O.2     3  TRP3       -0.2867
      5  CB         7.3330   -0.8390   12.5980 C.3     3  TRP3        0.0550
      6  CG         6.1330   -0.0290   12.1870 C.ar    3  TRP3        0.0003
      7  CD1        6.1010    1.3130   11.8540 C.ar    3  TRP3        0.0946
      8  CD2        4.7740   -0.4940   12.1130 C.ar    3  TRP3        0.0152
      9  NE1        4.8230    1.7190   11.5730 N.ar    3  TRP3       -0.2442
     10  CE2        3.9800    0.6390   11.6910 C.ar    3  TRP3        0.0810
     11  CE3        4.1690   -1.7180   12.3610 C.ar    3  TRP3        0.0012
     12  CZ2        2.5860    0.5680   11.5600 C.ar    3  TRP3        0.0191
     13  CZ3        2.7720   -1.8030   12.1870 C.ar    3  TRP3        0.0001
     14  CH2        2.0070   -0.6840   11.7960 C.ar    3  TRP3        0.0015
     15  N         -3.4860    0.4460    3.5940 N.3    60  ASN60      -0.1240
     16  CA        -2.4550    1.3080    4.0740 C.3    60  ASN60       0.1653
     17  C         -1.1490    0.5590    4.2590 C.2    60  ASN60       0.2266
     18  O         -0.1510    1.0750    4.8140 O.2    60  ASN60      -0.2867
     19  CB        -2.7900    2.1250    5.3280 C.3    60  ASN60       0.1155
     20  CG        -2.8490    1.2510    6.5370 C.2    60  ASN60       0.2627
     21  OD1       -2.6520    0.0090    6.5010 O.2    60  ASN60      -0.2716
     22  ND2       -2.9990    1.8740    7.6610 N.am   60  ASN60      -0.0877
     23  N         -0.8130   -2.2860    6.1000 N.3    62  HIS62      -0.1226
     24  CA        -0.9950   -3.2950    7.1630 C.3    62  HIS62       0.1752
     25  C         -2.3780   -3.5040    7.5980 C.2    62  HIS62       0.2595
     26  O         -2.5650   -4.3760    8.5190 O.2    62  HIS62      -0.2718
     27  CB        -0.0990   -2.9860    8.3030 C.3    62  HIS62       0.0759
     28  CG        -0.3760   -1.6730    8.8920 C.ar   62  HIS62       0.0818
     29  ND1       -1.1970   -1.4190    9.9120 N.ar   62  HIS62      -0.2268
     30  CD2        0.2170   -0.4460    8.5640 C.ar   62  HIS62       0.1154
     31  CE1       -1.1770   -0.0920   10.1810 C.ar   62  HIS62       0.1986
     32  NE2       -0.2900    0.4830    9.3660 N.ar   62  HIS62      -0.2212
     33  N         -3.3440   -2.8380    7.0390 N.am   63  ALA63      -0.1980
     34  CA        -4.7540   -3.0850    7.2430 C.3    63  ALA63       0.1597
     35  C         -5.4740   -2.5300    6.0420 C.2    63  ALA63       0.2287
     36  O         -4.8490   -1.8050    5.2110 O.2    63  ALA63      -0.2864
     37  CB        -5.2550   -2.4130    8.5450 C.3    63  ALA63       0.0319
     38  N         -8.5890    0.3150    5.6230 N.3    65  ASN65      -0.1240
     39  CA        -9.2630    1.2540    6.4230 C.3    65  ASN65       0.1653
     40  C        -10.5710    1.7490    5.6920 C.2    65  ASN65       0.2266
     41  O        -10.4150    2.2170    4.5360 O.2    65  ASN65      -0.2867
     42  CB        -8.3860    2.4440    6.6880 C.3    65  ASN65       0.1155
     43  CG        -7.0850    2.1160    7.3960 C.2    65  ASN65       0.2627
     44  OD1       -7.0280    1.3420    8.3650 O.2    65  ASN65      -0.2716
     45  ND2       -6.0160    2.9350    7.0940 N.am   65  ASN65      -0.0877
     46  N        -12.7520    6.2160   11.1870 N.3    90  GLN90      -0.1245
     47  CA       -12.4960    5.0810   10.3210 C.3    90  GLN90       0.1566
     48  C        -12.6880    3.8100   11.0760 C.2    90  GLN90       0.2260
     49  O        -12.7630    3.8230   12.3150 O.2    90  GLN90      -0.2867
     50  CB       -11.1040    5.1550    9.7790 C.3    90  GLN90       0.0367
     51  CG        -9.9490    5.0580   10.8090 C.3    90  GLN90       0.0905
     52  CD        -9.2990    3.7000   10.7280 C.2    90  GLN90       0.2608
     53  OE1       -9.7150    2.7420   11.3690 O.2    90  GLN90      -0.2717
     54  NE2       -8.3390    3.5160    9.8010 N.am   90  GLN90      -0.0878
     55  N        -11.1170   -0.4590   10.8650 N.3    92  HIS92      -0.1241
     56  CA       -10.1850   -1.4290   10.2700 C.3    92  HIS92       0.1621
     57  C        -10.2880   -2.6940   11.1010 C.2    92  HIS92       0.2264
     58  O        -10.9030   -2.7350   12.1450 O.2    92  HIS92      -0.2867
     59  CB        -8.7540   -0.9220   10.1800 C.3    92  HIS92       0.0745
     60  CG        -8.1890   -0.6360   11.5450 C.ar   92  HIS92       0.0817
     61  ND1       -8.3820    0.5380   12.2150 N.ar   92  HIS92      -0.2268
     62  CD2       -7.5520   -1.4650   12.4420 C.ar   92  HIS92       0.1154
     63  CE1       -7.8780    0.4170   13.4410 C.ar   92  HIS92       0.1986
     64  NE2       -7.3600   -0.7960   13.6060 N.ar   92  HIS92      -0.2212
     65  N         -7.9090   -6.4330   12.3840 N.3    94  HIS94      -0.1241
     66  CA        -6.7130   -7.2250   12.5420 C.3    94  HIS94       0.1621
     67  C         -7.1510   -8.6840   12.4360 C.2    94  HIS94       0.2264
     68  O         -8.2290   -9.0300   12.9250 O.2    94  HIS94      -0.2867
     69  CB        -6.0320   -7.0010   13.9340 C.3    94  HIS94       0.0745
     70  CG        -5.7360   -5.5510   14.1990 C.ar   94  HIS94       0.0817
     71  ND1       -4.5160   -4.9930   14.0420 N.ar   94  HIS94      -0.2268
     72  CD2       -6.5540   -4.5230   14.5980 C.ar   94  HIS94       0.1154
     73  CE1       -4.5850   -3.6860   14.3300 C.ar   94  HIS94       0.1986
     74  NE2       -5.8060   -3.3670   14.6670 N.ar   94  HIS94      -0.2212
     75  N        -11.8860   -2.6850   14.7870 N.3   117  HIS117     -0.1241
     76  CA       -11.6370   -1.4600   15.5550 C.3   117  HIS117      0.1621
     77  C        -12.3810   -0.3040   14.8770 C.2   117  HIS117      0.2264
     78  O        -12.0020    0.0770   13.7550 O.2   117  HIS117     -0.2867
     79  CB       -10.1630   -1.1580   15.6280 C.3   117  HIS117      0.0745
     80  CG        -9.4140   -2.1250   16.5080 C.ar  117  HIS117      0.0817
     81  ND1       -8.0660   -2.3140   16.4960 N.ar  117  HIS117     -0.2268
     82  CD2       -9.9350   -2.9580   17.4660 C.ar  117  HIS117      0.1154
     83  CE1       -7.7790   -3.2220   17.4000 C.ar  117  HIS117      0.1986
     84  NE2       -8.8800   -3.6290   18.0040 N.ar  117  HIS117     -0.2212
     85  N        -12.7870    3.5200   15.1840 N.3   119  VAL119     -0.1245
     86  CA       -11.9170    4.5170   15.8080 C.3   119  VAL119      0.1561
     87  C        -12.6100    5.8740   15.8330 C.2   119  VAL119      0.2260
     88  O        -13.0590    6.3640   14.7940 O.2   119  VAL119     -0.2867
     89  CB       -10.6130    4.6110   15.0150 C.3   119  VAL119      0.0252
     90  CG1       -9.6440    5.6280   15.6130 C.3   119  VAL119      0.0019
     91  CG2       -9.9500    3.2190   14.8790 C.3   119  VAL119      0.0019
     92  N         -8.3020   14.5980   14.6760 N.3   128  PHE128     -0.1241
     93  CA        -7.6680   13.3420   15.1050 C.3   128  PHE128      0.1605
     94  C         -6.2090   13.5340   15.4770 C.2   128  PHE128      0.2264
     95  O         -5.7250   12.9950   16.4680 O.2   128  PHE128     -0.2867
     96  CB        -7.7760   12.3430   13.9370 C.3   128  PHE128      0.0534
     97  CG        -7.1210   11.0350   14.2140 C.ar  128  PHE128     -0.0203
     98  CD1       -7.7980   10.0020   14.8250 C.ar  128  PHE128     -0.0042
     99  CD2       -5.8000   10.7970   13.9050 C.ar  128  PHE128     -0.0042
    100  CE1       -7.1850    8.7750   15.0640 C.ar  128  PHE128     -0.0003
    101  CE2       -5.2060    9.5750   14.1040 C.ar  128  PHE128     -0.0003
    102  CZ        -5.9070    8.5480   14.7060 C.ar  128  PHE128     -0.0000
    103  N         -4.7380   12.4500   19.3080 N.3   132  VAL132     -0.1245
    104  CA        -3.7980   11.3300   19.6940 C.3   132  VAL132      0.1561
    105  C         -2.7080   11.7890   20.6120 C.2   132  VAL132      0.2260
    106  O         -2.0220   10.9400   21.1790 O.2   132  VAL132     -0.2867
    107  CB        -3.2160   10.6230   18.4910 C.3   132  VAL132      0.0252
    108  CG1       -4.2860    9.9450   17.6730 C.3   132  VAL132      0.0019
    109  CG2       -2.3500   11.5230   17.6260 C.3   132  VAL132      0.0019
    110  N        -11.8010    3.6680   21.0800 N.3   140  VAL140     -0.1245
    111  CA       -11.8180    2.6280   20.0620 C.3   140  VAL140      0.1561
    112  C        -12.7700    1.5690   20.5610 C.2   140  VAL140      0.2260
    113  O        -12.6360    1.0450   21.6730 O.2   140  VAL140     -0.2867
    114  CB       -10.4440    2.0830   19.6950 C.3   140  VAL140      0.0252
    115  CG1      -10.6020    1.0640   18.5920 C.3   140  VAL140      0.0019
    116  CG2       -9.5160    3.2170   19.2570 C.3   140  VAL140      0.0019
    117  N         -2.8230    3.0490   21.2620 N.3   195  LEU195     -0.1231
    118  CA        -2.7780    2.5160   19.9030 C.3   195  LEU195      0.1693
    119  C         -2.0550    1.1950   19.9130 C.2   195  LEU195      0.2593
    120  O         -1.0330    1.0230   20.6310 O.2   195  LEU195     -0.2718
    121  CB        -2.0360    3.5160   19.0160 C.3   195  LEU195      0.0284
    122  CG        -2.6000    4.9130   18.9440 C.3   195  LEU195      0.0019
    123  CD1       -1.7410    5.8110   18.0450 C.3   195  LEU195      0.0001
    124  CD2       -4.0070    4.9480   18.4930 C.3   195  LEU195      0.0001
    125  N         -2.5070    0.2220   19.1050 N.am  196  THR196     -0.1939
    126  CA        -1.8610   -1.0850   19.0950 C.3   196  THR196      0.2028
    127  C         -0.8160   -1.2240   17.9880 C.2   196  THR196      0.2643
    128  O         -0.2300   -2.3120   17.8450 O.2   196  THR196     -0.2714
    129  CB        -2.9120   -2.2130   18.9190 C.3   196  THR196      0.1808
    130  OG1       -3.4690   -2.0940   17.6220 O.3   196  THR196     -0.2208
    131  CG2       -3.9630   -2.1900   20.0340 C.3   196  THR196      0.0379
    132  N         -0.5740   -0.1890   17.2140 N.am  197  THR197     -0.1937
    133  CA         0.5050   -0.1490   16.2490 C.3   197  THR197      0.2013
    134  C          1.3080    1.1010   16.5320 C.2   197  THR197      0.2484
    135  O          0.8100    2.0550   17.1270 O.2   197  THR197     -0.2729
    136  CB         0.0530   -0.1070   14.7880 C.3   197  THR197      0.1807
    137  OG1       -0.3460    1.1470   14.4280 O.3   197  THR197     -0.2208
    138  CG2       -1.0780   -1.0400   14.4300 C.3   197  THR197      0.0379
    139  N          2.5560    1.1500   16.0550 N.am  198  PRO198     -0.2715
    140  CA         3.2660    2.4020   16.0650 C.3   198  PRO198      0.1521
    141  C          2.3930    3.4980   15.5010 C.2   198  PRO198      0.2440
    142  O          1.7110    3.3150   14.5030 O.2   198  PRO198     -0.2731
    143  CB         4.4820    2.0880   15.1680 C.3   198  PRO198      0.0310
    144  CG         4.7650    0.6400   15.4780 C.3   198  PRO198      0.0237
    145  CD         3.3820    0.0730   15.4270 C.3   198  PRO198      0.0939
    146  N          2.3980    4.6840   16.1390 N.am  199  PRO199     -0.2727
    147  CA         3.3170    5.1330   17.2020 C.3   199  PRO199      0.1402
    148  C          2.9580    4.7410   18.6610 C.2   199  PRO199      0.2269
    149  O          3.6470    5.2160   19.5600 O.2   199  PRO199     -0.2865
    150  CB         3.2900    6.6840   17.0250 C.3   199  PRO199      0.0296
    151  CG         1.8590    6.9520   16.5580 C.3   199  PRO199      0.0237
    152  CD         1.5660    5.8210   15.5980 C.3   199  PRO199      0.0939
    153  N         -5.8970    6.1340   24.2320 N.3   204  VAL204     -0.1245
    154  CA        -7.1250    5.4160   23.8980 C.3   204  VAL204      0.1561
    155  C         -7.8990    4.9720   25.1520 C.2   204  VAL204      0.2260
    156  O         -7.3480    4.3080   26.0180 O.2   204  VAL204     -0.2867
    157  CB        -6.8640    4.1530   23.0520 C.3   204  VAL204      0.0252
    158  CG1       -8.1740    3.4720   22.6950 C.3   204  VAL204      0.0019
    159  CG2       -6.1060    4.5250   21.7590 C.3   204  VAL204      0.0019
    160  N        -10.3180    2.1470   25.6030 N.3   206  TRP206     -0.1241
    161  CA       -10.7570    0.9720   24.8980 C.3   206  TRP206      0.1605
    162  C        -12.1300    0.5660   25.4330 C.2   206  TRP206      0.2264
    163  O        -12.3450    0.5190   26.6480 O.2   206  TRP206     -0.2867
    164  CB        -9.7450   -0.1800   25.0900 C.3   206  TRP206      0.0550
    165  CG        -8.6260   -0.0620   24.1430 C.ar  206  TRP206      0.0003
    166  CD1       -7.3860    0.5060   24.3380 C.ar  206  TRP206      0.0946
    167  CD2       -8.6970   -0.4510   22.7710 C.ar  206  TRP206      0.0152
    168  NE1       -6.6950    0.5230   23.1670 N.ar  206  TRP206     -0.2442
    169  CE2       -7.4380   -0.0700   22.1740 C.ar  206  TRP206      0.0810
    170  CE3       -9.6600   -1.0740   21.9670 C.ar  206  TRP206      0.0012
    171  CZ2       -7.1840   -0.2860   20.8150 C.ar  206  TRP206      0.0191
    172  CZ3       -9.3820   -1.3150   20.6510 C.ar  206  TRP206      0.0001
    173  CH2       -8.1800   -0.9090   20.0800 C.ar  206  TRP206      0.0015
@<TRIPOS>BOND
     1    15    16    1
     2    16    17    1
     3    16    19    1
     4    17    18    2
     5    41    40    2
     6    36    35    2
     7    19    20    1
     8    38    39    1
     9    40    39    1
    10    35    34    1
    11    23    24    1
    12    39    42    1
    13    21    20    2
    14    20    22   am
    15    42    43    1
    16    33    34    1
    17    33    25   am
    18    45    43   am
    19    24    25    1
    20    24    27    1
    21    34    37    1
    22    43    44    2
    23    25    26    2
    24    27    28    1
    25    30    28   ar
    26    30    32   ar
    27    28    29   ar
    28    32    31   ar
    29     4     3    2
    30    50    47    1
    31    50    51    1
    32    54    52   am
    33    29    31   ar
    34    59    56    1
    35    59    60    1
    36    56    55    1
    37    56    57    1
    38    47    48    1
    39    47    46    1
    40     1     2    1
    41     3     2    1
    42    52    51    1
    43    52    53    2
    44    48    49    2
    45    57    58    2
    46     2     5    1
    47    60    61   ar
    48    60    62   ar
    49    12    10   ar
    50    12    14   ar
    51     9    10   ar
    52     9     7   ar
    53    10     8   ar
    54    14    13   ar
    55     7     6   ar
    56     8     6   ar
    57     8    11   ar
    58    13    11   ar
    59     6     5    1
    60    61    63   ar
    61    65    66    1
    62    67    66    1
    63    67    68    2
    64    62    64   ar
    65    66    69    1
    66    63    64   ar
    67    78    77    2
    68    99   101   ar
    69    99    97   ar
    70    69    70    1
    71    96    97    1
    72    96    93    1
    73    71    70   ar
    74    71    73   ar
    75   101   102   ar
    76    70    72   ar
    77    97    98   ar
    78    73    74   ar
    79   137   136    1
    80   138   136    1
    81   142   141    2
    82    72    74   ar
    83    92    93    1
    84   102   100   ar
    85    75    76    1
    86   136   133    1
    87    88    87    2
    88    98   100   ar
    89    77    76    1
    90    91    89    1
    91    89    90    1
    92    89    86    1
    93    93    94    1
    94   143   144    1
    95   143   140    1
    96    85    86    1
    97   145   144    1
    98   145   139    1
    99    94    95    2
   100   141   140    1
   101   141   146   am
   102    76    79    1
   103   152   146    1
   104   152   151    1
   105    79    80    1
   106    86    87    1
   107   139   140    1
   108   139   134   am
   109   146   147    1
   110   133   134    1
   111   133   132    1
   112    81    80   ar
   113    81    83   ar
   114    80    82   ar
   115   134   135    2
   116   151   150    1
   117   150   147    1
   118   147   148    1
   119   132   127   am
   120    83    84   ar
   121    82    84   ar
   122   130   129    1
   123   109   107    1
   124   108   107    1
   125   128   127    2
   126   127   126    1
   127   123   122    1
   128   107   104    1
   129   124   122    1
   130   115   114    1
   131   148   149    2
   132   129   126    1
   133   129   131    1
   134   122   121    1
   135   121   118    1
   136   126   125    1
   137   125   119   am
   138   116   114    1
   139   103   104    1
   140   104   105    1
   141   114   111    1
   142   118   119    1
   143   118   117    1
   144   119   120    2
   145   111   112    1
   146   111   110    1
   147   173   172   ar
   148   173   171   ar
   149   112   113    2
   150   105   106    2
   151   172   170   ar
   152   171   169   ar
   153   159   157    1
   154   170   167   ar
   155   169   167   ar
   156   169   168   ar
   157   158   157    1
   158   167   165   ar
   159   157   154    1
   160   168   166   ar
   161   154   153    1
   162   154   155    1
   163   165   166   ar
   164   165   164    1
   165   161   164    1
   166   161   162    1
   167   161   160    1
   168   155   156    2
   169   162   163    2
