@<TRIPOS>MOLECULE
tmp/5lleA00.pdb
 167 162 0 0 0
SMALL
GASTEIGER

@<TRIPOS>ATOM
      1  N          8.5840   -0.5420   10.4490 N.3     2  TRP2       -0.1241
      2  CA         7.9040   -1.5150   11.3270 C.3     2  TRP2        0.1605
      3  C          6.9120   -2.2740   10.5390 C.2     2  TRP2        0.2264
      4  O          6.3900   -1.7860    9.5290 O.2     2  TRP2       -0.2867
      5  CB         7.2640   -0.7910   12.5250 C.3     2  TRP2        0.0550
      6  CG         6.0560    0.0440   12.1440 C.ar    2  TRP2        0.0003
      7  CD1        5.9920    1.3890   11.8060 C.ar    2  TRP2        0.0946
      8  CD2        4.6910   -0.4550   12.0530 C.ar    2  TRP2        0.0152
      9  NE1        4.6760    1.7550   11.5160 N.ar    2  TRP2       -0.2442
     10  CE2        3.8540    0.6800   11.6630 C.ar    2  TRP2        0.0810
     11  CE3        4.1090   -1.6970   12.2790 C.ar    2  TRP2        0.0012
     12  CZ2        2.4870    0.5610   11.5200 C.ar    2  TRP2        0.0191
     13  CZ3        2.7260   -1.8230   12.1220 C.ar    2  TRP2        0.0001
     14  CH2        1.9330   -0.7180   11.7560 C.ar    2  TRP2        0.0015
     15  N         -3.2230    0.3340    3.6070 N.3    59  ASN59      -0.1240
     16  CA        -2.1270    1.2570    4.0220 C.3    59  ASN59       0.1653
     17  C         -0.8720    0.4790    4.3110 C.2    59  ASN59       0.2266
     18  O          0.0340    0.9650    4.9950 O.2    59  ASN59      -0.2867
     19  CB        -2.5220    2.0390    5.2660 C.3    59  ASN59       0.1155
     20  CG        -2.7610    1.1280    6.4660 C.2    59  ASN59       0.2627
     21  OD1       -2.3320   -0.0230    6.4940 O.2    59  ASN59      -0.2716
     22  ND2       -3.4340    1.6480    7.4500 N.am   59  ASN59      -0.0877
     23  N         -8.2600    0.3000    5.8370 N.3    64  ASN64      -0.1240
     24  CA        -9.1480    1.2100    6.5460 C.3    64  ASN64       0.1653
     25  C        -10.3440    1.5990    5.7120 C.2    64  ASN64       0.2266
     26  O        -10.1840    2.0100    4.5830 O.2    64  ASN64      -0.2867
     27  CB        -8.4730    2.5310    6.9230 C.3    64  ASN64       0.1155
     28  CG        -7.3860    2.3650    7.9300 C.2    64  ASN64       0.2627
     29  OD1       -7.1620    1.2710    8.4240 O.2    64  ASN64      -0.2716
     30  ND2       -6.6330    3.4650    8.1850 N.am   64  ASN64      -0.0877
     31  N        -12.3670    6.1440   11.1720 N.3    89  GLN89      -0.1245
     32  CA       -12.1440    4.9660   10.2870 C.3    89  GLN89       0.1566
     33  C        -12.4320    3.6710   11.0510 C.2    89  GLN89       0.2260
     34  O        -12.4350    3.7050   12.2710 O.2    89  GLN89      -0.2867
     35  CB       -10.6770    4.9050    9.7430 C.3    89  GLN89       0.0367
     36  CG        -9.5490    5.1090   10.7690 C.3    89  GLN89       0.0905
     37  CD        -8.8410    3.8140   11.1630 C.2    89  GLN89       0.2608
     38  OE1       -9.3900    2.7150   11.0530 O.2    89  GLN89      -0.2717
     39  NE2       -7.6020    3.9490   11.6810 N.am   89  GLN89      -0.0878
     40  N        -10.9810   -0.6460   10.8150 N.3    91  HIS91      -0.1241
     41  CA       -10.0660   -1.5720   10.2200 C.3    91  HIS91       0.1621
     42  C        -10.1360   -2.8100   11.0490 C.2    91  HIS91       0.2264
     43  O        -10.8390   -2.8390   12.0950 O.2    91  HIS91      -0.2867
     44  CB        -8.6010   -1.0250   10.2080 C.3    91  HIS91       0.0745
     45  CG        -8.0670   -0.7270   11.5950 C.ar   91  HIS91       0.0817
     46  ND1       -8.3010    0.4440   12.2270 N.ar   91  HIS91      -0.2268
     47  CD2       -7.3960   -1.5310   12.4970 C.ar   91  HIS91       0.1154
     48  CE1       -7.7360    0.3960   13.4610 C.ar   91  HIS91       0.1986
     49  NE2       -7.2290   -0.8430   13.6330 N.ar   91  HIS91      -0.2212
     50  N         -7.7770   -6.5540   12.3550 N.3    93  HIS93      -0.1241
     51  CA        -6.5470   -7.3100   12.5210 C.3    93  HIS93       0.1621
     52  C         -6.9980   -8.7400   12.3620 C.2    93  HIS93       0.2264
     53  O         -8.0310   -9.0670   12.9310 O.2    93  HIS93      -0.2867
     54  CB        -5.9910   -7.0640   13.9380 C.3    93  HIS93       0.0745
     55  CG        -5.6830   -5.6010   14.2080 C.ar   93  HIS93       0.0817
     56  ND1       -4.4630   -5.0530   13.9500 N.ar   93  HIS93      -0.2268
     57  CD2       -6.5120   -4.5480   14.6100 C.ar   93  HIS93       0.1154
     58  CE1       -4.4980   -3.7250   14.2860 C.ar   93  HIS93       0.1986
     59  NE2       -5.7500   -3.4090   14.6440 N.ar   93  HIS93      -0.2212
     60  N        -11.7800   -2.7120   14.7260 N.3   116  HIS116     -0.1241
     61  CA       -11.5670   -1.5300   15.5050 C.3   116  HIS116      0.1621
     62  C        -12.2310   -0.3440   14.8970 C.2   116  HIS116      0.2264
     63  O        -11.8760   -0.0110   13.7800 O.2   116  HIS116     -0.2867
     64  CB       -10.0640   -1.2610   15.5810 C.3   116  HIS116      0.0745
     65  CG        -9.3830   -2.1980   16.5250 C.ar  116  HIS116      0.0817
     66  ND1       -8.0860   -2.4860   16.4790 N.ar  116  HIS116     -0.2268
     67  CD2       -9.9250   -2.9920   17.5250 C.ar  116  HIS116      0.1154
     68  CE1       -7.7950   -3.3890   17.4600 C.ar  116  HIS116      0.1986
     69  NE2       -8.9140   -3.7200   18.0540 N.ar  116  HIS116     -0.2212
     70  N        -12.5520    3.4220   15.0910 N.3   118  VAL118     -0.1245
     71  CA       -11.6920    4.4070   15.7350 C.3   118  VAL118      0.1561
     72  C        -12.4010    5.7280   15.7830 C.2   118  VAL118      0.2260
     73  O        -12.7950    6.2500   14.7060 O.2   118  VAL118     -0.2867
     74  CB       -10.3550    4.5510   14.9640 C.3   118  VAL118      0.0252
     75  CG1       -9.4230    5.6170   15.5970 C.3   118  VAL118      0.0019
     76  CG2       -9.6250    3.2040   14.8470 C.3   118  VAL118      0.0019
     77  N         -8.3590   14.6280   14.5760 N.3   127  PHE127     -0.1241
     78  CA        -7.6580   13.3880   14.9140 C.3   127  PHE127      0.1605
     79  C         -6.1810   13.5930   15.2720 C.2   127  PHE127      0.2264
     80  O         -5.7130   13.0080   16.2260 O.2   127  PHE127     -0.2867
     81  CB        -7.7740   12.3810   13.7770 C.3   127  PHE127      0.0534
     82  CG        -7.1300   11.0990   14.0830 C.ar  127  PHE127     -0.0203
     83  CD1       -7.8100   10.1240   14.8150 C.ar  127  PHE127     -0.0042
     84  CD2       -5.8110   10.8560   13.6730 C.ar  127  PHE127     -0.0042
     85  CE1       -7.2170    8.9250   15.1110 C.ar  127  PHE127     -0.0003
     86  CE2       -5.2090    9.6600   13.9840 C.ar  127  PHE127     -0.0003
     87  CZ        -5.9300    8.7000   14.7130 C.ar  127  PHE127     -0.0000
     88  N         -4.7250   12.4180   19.2230 N.3   131  VAL131     -0.1245
     89  CA        -3.8060   11.2970   19.5570 C.3   131  VAL131      0.1561
     90  C         -2.7000   11.7420   20.4980 C.2   131  VAL131      0.2260
     91  O         -2.0510   10.9200   21.1450 O.2   131  VAL131     -0.2867
     92  CB        -3.2070   10.5750   18.3070 C.3   131  VAL131      0.0252
     93  CG1       -4.3400    9.9740   17.5050 C.3   131  VAL131      0.0019
     94  CG2       -2.3580   11.5170   17.4480 C.3   131  VAL131      0.0019
     95  N         -8.7810    9.3770   22.0860 N.3   137  LEU137     -0.1245
     96  CA        -9.4470    8.4010   21.2260 C.3   137  LEU137      0.1561
     97  C        -10.3530    7.4880   22.0360 C.2   137  LEU137      0.2260
     98  O        -10.1380    7.2470   23.2230 O.2   137  LEU137     -0.2867
     99  CB        -8.4110    7.5260   20.5040 C.3   137  LEU137      0.0270
    100  CG        -7.4350    8.1630   19.5130 C.3   137  LEU137      0.0019
    101  CD1       -6.8380    7.1200   18.5770 C.3   137  LEU137      0.0001
    102  CD2       -8.0740    9.2460   18.6590 C.3   137  LEU137      0.0001
    103  N        -11.7150    3.6830   21.1220 N.3   139  VAL139     -0.1245
    104  CA       -11.7400    2.6930   20.0440 C.3   139  VAL139      0.1561
    105  C        -12.6890    1.5630   20.4810 C.2   139  VAL139      0.2260
    106  O        -12.5160    1.0150   21.5820 O.2   139  VAL139     -0.2867
    107  CB       -10.3630    2.1090   19.7160 C.3   139  VAL139      0.0252
    108  CG1      -10.4640    1.0710   18.5610 C.3   139  VAL139      0.0019
    109  CG2       -9.4340    3.2150   19.2810 C.3   139  VAL139      0.0019
    110  N         -2.8390    3.0980   21.1260 N.3   194  LEU194     -0.1231
    111  CA        -2.8660    2.5220   19.7580 C.3   194  LEU194      0.1693
    112  C         -2.1070    1.2160   19.7920 C.2   194  LEU194      0.2593
    113  O         -1.1280    1.0890   20.5580 O.2   194  LEU194     -0.2718
    114  CB        -2.2110    3.4400   18.7450 C.3   194  LEU194      0.0284
    115  CG        -2.6520    4.8990   18.7010 C.3   194  LEU194      0.0019
    116  CD1       -1.6860    5.6830   17.8120 C.3   194  LEU194      0.0001
    117  CD2       -4.0690    5.0160   18.1750 C.3   194  LEU194      0.0001
    118  N         -2.5710    0.2400   19.0040 N.am  195  THR195     -0.1939
    119  CA        -1.9130   -1.0310   18.9510 C.3   195  THR195      0.2028
    120  C         -0.9020   -1.1090   17.7920 C.2   195  THR195      0.2643
    121  O         -0.2880   -2.1640   17.5860 O.2   195  THR195     -0.2714
    122  CB        -2.9130   -2.1760   18.8110 C.3   195  THR195      0.1808
    123  OG1       -3.5610   -2.1340   17.5230 O.3   195  THR195     -0.2208
    124  CG2       -3.8780   -2.1590   19.9930 C.3   195  THR195      0.0379
    125  N         -0.7600   -0.0290   17.0310 N.am  196  THR196     -0.1937
    126  CA         0.3190    0.0220   16.0400 C.3   196  THR196      0.2013
    127  C          1.1740    1.2320   16.3630 C.2   196  THR196      0.2484
    128  O          0.6970    2.1890   16.9730 O.2   196  THR196     -0.2729
    129  CB        -0.1870    0.2290   14.5930 C.3   196  THR196      0.1807
    130  OG1       -0.9680    1.4270   14.5540 O.3   196  THR196     -0.2208
    131  CG2       -1.0890   -0.9340   14.1710 C.3   196  THR196      0.0379
    132  N          2.4310    1.1980   15.9130 N.am  197  PRO197     -0.2715
    133  CA         3.2060    2.4190   16.0670 C.3   197  PRO197      0.1521
    134  C          2.4240    3.5990   15.5420 C.2   197  PRO197      0.2440
    135  O          1.7840    3.5120   14.4500 O.2   197  PRO197     -0.2731
    136  CB         4.4250    2.1340   15.1720 C.3   197  PRO197      0.0310
    137  CG         4.6340    0.6540   15.3920 C.3   197  PRO197      0.0237
    138  CD         3.2330    0.0960   15.3360 C.3   197  PRO197      0.0939
    139  N          2.5190    4.7410   16.2040 N.am  198  PRO198     -0.2727
    140  CA         3.4350    5.1520   17.2820 C.3   198  PRO198      0.1402
    141  C          3.0390    4.7410   18.6940 C.2   198  PRO198      0.2269
    142  O          3.7270    5.1240   19.6800 O.2   198  PRO198     -0.2865
    143  CB         3.4560    6.6710   17.1490 C.3   198  PRO198      0.0296
    144  CG         2.1170    6.9920   16.6020 C.3   198  PRO198      0.0237
    145  CD         1.8440    5.9040   15.5950 C.3   198  PRO198      0.0939
    146  N          0.7690    5.4160   20.7670 N.3   200  LEU200     -0.1245
    147  CA         0.4670    6.5490   21.6650 C.3   200  LEU200      0.1561
    148  C         -0.5870    6.1250   22.6960 C.2   200  LEU200      0.2260
    149  O         -1.5700    5.4710   22.3620 O.2   200  LEU200     -0.2867
    150  CB        -0.0310    7.8120   20.8780 C.3   200  LEU200      0.0270
    151  CG         1.0100    8.3890   19.9070 C.3   200  LEU200      0.0019
    152  CD1        0.5170    9.5050   18.9810 C.3   200  LEU200      0.0001
    153  CD2        2.2490    8.8010   20.7300 C.3   200  LEU200      0.0001
    154  N        -10.2630    2.1860   25.5920 N.3   205  TRP205     -0.1241
    155  CA       -10.7170    1.0100   24.8880 C.3   205  TRP205      0.1605
    156  C        -12.0550    0.5330   25.3960 C.2   205  TRP205      0.2264
    157  O        -12.2910    0.4550   26.6280 O.2   205  TRP205     -0.2867
    158  CB        -9.7350   -0.1750   25.0850 C.3   205  TRP205      0.0550
    159  CG        -8.6290   -0.0870   24.1040 C.ar  205  TRP205      0.0003
    160  CD1       -7.3600    0.4550   24.2750 C.ar  205  TRP205      0.0946
    161  CD2       -8.7130   -0.4500   22.7090 C.ar  205  TRP205      0.0152
    162  NE1       -6.6520    0.4120   23.1010 N.ar  205  TRP205     -0.2442
    163  CE2       -7.4050   -0.1680   22.1290 C.ar  205  TRP205      0.0810
    164  CE3       -9.6960   -1.0280   21.9170 C.ar  205  TRP205      0.0012
    165  CZ2       -7.1390   -0.3990   20.7950 C.ar  205  TRP205      0.0191
    166  CZ3       -9.4000   -1.2930   20.5830 C.ar  205  TRP205      0.0001
    167  CH2       -8.1370   -0.9760   20.0460 C.ar  205  TRP205      0.0015
@<TRIPOS>BOND
     1    15    16    1
     2    16    17    1
     3    16    19    1
     4    17    18    2
     5    26    25    2
     6    19    20    1
     7    25    24    1
     8    23    24    1
     9    20    21    2
    10    20    22   am
    11    24    27    1
    12    27    28    1
    13    28    30   am
    14    28    29    2
    15     4     3    2
    16    35    32    1
    17    35    36    1
    18    44    41    1
    19    44    45    1
    20    41    40    1
    21    41    42    1
    22    32    33    1
    23    32    31    1
    24     1     2    1
    25     3     2    1
    26    36    37    1
    27    42    43    2
    28    33    34    2
    29    38    37    2
    30    37    39   am
    31     2     5    1
    32     9    10   ar
    33     9     7   ar
    34    12    10   ar
    35    12    14   ar
    36    45    46   ar
    37    45    47   ar
    38    10     8   ar
    39    14    13   ar
    40     7     6   ar
    41     8     6   ar
    42     8    11   ar
    43    13    11   ar
    44     6     5    1
    45    46    48   ar
    46    50    51    1
    47    52    51    1
    48    52    53    2
    49    47    49   ar
    50    51    54    1
    51    48    49   ar
    52    84    86   ar
    53    84    82   ar
    54    81    82    1
    55    81    78    1
    56    63    62    2
    57    54    55    1
    58    56    55   ar
    59    56    58   ar
    60    86    87   ar
    61    82    83   ar
    62   131   129    1
    63    55    57   ar
    64    58    59   ar
    65   135   134    2
    66   130   129    1
    67    77    78    1
    68   129   126    1
    69    57    59   ar
    70    73    72    2
    71    87    85   ar
    72    60    61    1
    73    83    85   ar
    74    76    74    1
    75    62    61    1
    76    78    79    1
    77    74    75    1
    78    74    71    1
    79    70    71    1
    80   136   137    1
    81   136   133    1
    82    79    80    2
    83   138   137    1
    84   138   132    1
    85    61    64    1
    86   134   133    1
    87   134   139   am
    88    64    65    1
    89   145   139    1
    90   145   144    1
    91    71    72    1
    92   132   133    1
    93   132   127   am
    94   126   127    1
    95   126   125    1
    96   139   140    1
    97   127   128    2
    98    66    65   ar
    99    66    68   ar
   100    65    67   ar
   101   144   143    1
   102   125   120   am
   103   143   140    1
   104   140   141    1
   105    94    92    1
   106    68    69   ar
   107    93    92    1
   108   123   122    1
   109    67    69   ar
   110   121   120    2
   111   120   119    1
   112   116   115    1
   113   117   115    1
   114    92    89    1
   115   108   107    1
   116   101   100    1
   117   102   100    1
   118   141   142    2
   119   115   114    1
   120   114   111    1
   121   122   119    1
   122   122   124    1
   123   119   118    1
   124   152   151    1
   125   118   112   am
   126    88    89    1
   127   109   107    1
   128   100    99    1
   129    89    90    1
   130   107   104    1
   131   111   112    1
   132   111   110    1
   133   112   113    2
   134   151   153    1
   135   151   150    1
   136   104   105    1
   137   104   103    1
   138   167   166   ar
   139   167   165   ar
   140   105   106    2
   141    90    91    2
   142    99    96    1
   143   166   164   ar
   144   146   147    1
   145   165   163   ar
   146   150   147    1
   147    96    97    1
   148    96    95    1
   149   147   148    1
   150   164   161   ar
   151    97    98    2
   152   163   161   ar
   153   163   162   ar
   154   149   148    2
   155   161   159   ar
   156   162   160   ar
   157   159   160   ar
   158   159   158    1
   159   155   158    1
   160   155   156    1
   161   155   154    1
   162   156   157    2
