@<TRIPOS>MOLECULE
tmp/5llhA00.pdb
 193 187 0 0 0
SMALL
GASTEIGER

@<TRIPOS>ATOM
      1  N          8.6810   -0.5500   10.4620 N.3     2  TRP2       -0.1241
      2  CA         7.9170   -1.5040   11.3220 C.3     2  TRP2        0.1605
      3  C          6.9100   -2.2910   10.5400 C.2     2  TRP2        0.2264
      4  O          6.3800   -1.8340    9.5340 O.2     2  TRP2       -0.2867
      5  CB         7.2490   -0.8310   12.5340 C.3     2  TRP2        0.0550
      6  CG         6.0440   -0.0010   12.1670 C.ar    2  TRP2        0.0003
      7  CD1        6.0060    1.3510   11.8110 C.ar    2  TRP2        0.0946
      8  CD2        4.6480   -0.4580   12.1000 C.ar    2  TRP2        0.0152
      9  NE1        4.7150    1.7360   11.5150 N.ar    2  TRP2       -0.2442
     10  CE2        3.8510    0.6960   11.6690 C.ar    2  TRP2        0.0810
     11  CE3        4.0070   -1.6700   12.3410 C.ar    2  TRP2        0.0012
     12  CZ2        2.4560    0.6260   11.5230 C.ar    2  TRP2        0.0191
     13  CZ3        2.6020   -1.7330   12.1860 C.ar    2  TRP2        0.0001
     14  CH2        1.8480   -0.6190   11.7720 C.ar    2  TRP2        0.0015
     15  N         -3.2570    0.3530    3.5890 N.3    59  ASN59      -0.1240
     16  CA        -2.1230    1.1890    4.0580 C.3    59  ASN59       0.1653
     17  C         -0.8470    0.3680    4.2920 C.2    59  ASN59       0.2266
     18  O          0.1100    0.8510    4.8460 O.2    59  ASN59      -0.2867
     19  CB        -2.5160    1.9480    5.3270 C.3    59  ASN59       0.1155
     20  CG        -2.6420    1.0200    6.5150 C.2    59  ASN59       0.2627
     21  OD1       -2.1760   -0.1150    6.4680 O.2    59  ASN59      -0.2716
     22  ND2       -3.2110    1.5040    7.6010 N.am   59  ASN59      -0.0877
     23  N         -8.2220    0.3280    5.7580 N.3    64  ASN64      -0.1240
     24  CA        -9.1300    1.2620    6.4370 C.3    64  ASN64       0.1653
     25  C        -10.3360    1.6630    5.6170 C.2    64  ASN64       0.2266
     26  O        -10.1940    2.0850    4.4180 O.2    64  ASN64      -0.2867
     27  CB        -8.4330    2.5830    6.8410 C.3    64  ASN64       0.1155
     28  CG        -7.2440    2.3780    7.7150 C.2    64  ASN64       0.2627
     29  OD1       -7.1300    1.3500    8.3760 O.2    64  ASN64      -0.2716
     30  ND2       -6.3190    3.3760    7.7350 N.am   64  ASN64      -0.0877
     31  N        -12.6290    6.1810   11.2040 N.3    89  GLN89      -0.1245
     32  CA       -12.3670    5.0120   10.3520 C.3    89  GLN89       0.1566
     33  C        -12.6540    3.7370   11.0870 C.2    89  GLN89       0.2260
     34  O        -12.6190    3.7290   12.3150 O.2    89  GLN89      -0.2867
     35  CB       -10.8900    4.9860    9.8350 C.3    89  GLN89       0.0367
     36  CG        -9.7620    5.0910   10.8860 C.3    89  GLN89       0.0905
     37  CD        -8.9510    3.7980   11.0840 C.2    89  GLN89       0.2608
     38  OE1       -9.5050    2.7080   11.1000 O.2    89  GLN89      -0.2717
     39  NE2       -7.6300    3.9300   11.2980 N.am   89  GLN89      -0.0878
     40  N        -10.9520   -0.4870   10.9300 N.3    91  HIS91      -0.1241
     41  CA       -10.1030   -1.4850   10.2950 C.3    91  HIS91       0.1621
     42  C        -10.2290   -2.7600   11.0350 C.2    91  HIS91       0.2264
     43  O        -10.9920   -2.8240   12.0520 O.2    91  HIS91      -0.2867
     44  CB        -8.6560   -1.0130   10.3310 C.3    91  HIS91       0.0745
     45  CG        -8.1970   -0.7130   11.7230 C.ar   91  HIS91       0.0817
     46  ND1       -8.3850    0.4830   12.2990 N.ar   91  HIS91      -0.2268
     47  CD2       -7.6090   -1.5200   12.6600 C.ar   91  HIS91       0.1154
     48  CE1       -7.8650    0.4530   13.5430 C.ar   91  HIS91       0.1986
     49  NE2       -7.4430   -0.7930   13.7720 N.ar   91  HIS91      -0.2212
     50  N         -7.9110   -6.5200   12.3950 N.3    93  HIS93      -0.1241
     51  CA        -6.6910   -7.3320   12.5880 C.3    93  HIS93       0.1621
     52  C         -7.1470   -8.7980   12.4860 C.2    93  HIS93       0.2264
     53  O         -8.2470   -9.1780   13.0230 O.2    93  HIS93      -0.2867
     54  CB        -5.9830   -7.0730   13.9430 C.3    93  HIS93       0.0745
     55  CG        -5.7250   -5.5750   14.2600 C.ar   93  HIS93       0.0817
     56  ND1       -4.5050   -4.9800   14.1200 N.ar   93  HIS93      -0.2268
     57  CD2       -6.5970   -4.5880   14.7140 C.ar   93  HIS93       0.1154
     58  CE1       -4.6170   -3.6630   14.4830 C.ar   93  HIS93       0.1986
     59  NE2       -5.9100   -3.4410   14.8510 N.ar   93  HIS93      -0.2212
     60  N        -11.8710   -2.7540   14.6220 N.3   116  HIS116     -0.1241
     61  CA       -11.6520   -1.6020   15.4790 C.3   116  HIS116      0.1621
     62  C        -12.3680   -0.3860   14.9040 C.2   116  HIS116      0.2264
     63  O        -12.0290    0.0520   13.7710 O.2   116  HIS116     -0.2867
     64  CB       -10.1550   -1.3430   15.7540 C.3   116  HIS116      0.0745
     65  CG        -9.5300   -2.3360   16.6690 C.ar  116  HIS116      0.0817
     66  ND1       -8.1990   -2.6650   16.6500 N.ar  116  HIS116     -0.2268
     67  CD2      -10.0940   -3.0760   17.7090 C.ar  116  HIS116      0.1154
     68  CE1       -7.9430   -3.5780   17.5910 C.ar  116  HIS116      0.1986
     69  NE2       -9.1120   -3.8640   18.2180 N.ar  116  HIS116     -0.2212
     70  N        -12.7070    3.4650   15.2200 N.3   118  VAL118     -0.1245
     71  CA       -11.8170    4.4290   15.8620 C.3   118  VAL118      0.1561
     72  C        -12.5460    5.7700   15.8870 C.2   118  VAL118      0.2260
     73  O        -12.9710    6.2600   14.8350 O.2   118  VAL118     -0.2867
     74  CB       -10.4750    4.5960   15.0650 C.3   118  VAL118      0.0252
     75  CG1       -9.5660    5.6640   15.6590 C.3   118  VAL118      0.0019
     76  CG2       -9.7240    3.2790   14.9060 C.3   118  VAL118      0.0019
     77  N         -8.5210   14.5900   14.7100 N.3   127  PHE127     -0.1227
     78  CA        -7.8200   13.3630   15.0360 C.3   127  PHE127      0.1736
     79  C         -6.3140   13.6090   15.3620 C.2   127  PHE127      0.2596
     80  O         -5.7930   13.0360   16.3480 O.2   127  PHE127     -0.2718
     81  CB        -8.0350   12.2960   13.9540 C.3   127  PHE127      0.0547
     82  CG        -7.2240   11.0670   14.1660 C.ar  127  PHE127     -0.0202
     83  CD1       -7.7510    9.9620   14.8690 C.ar  127  PHE127     -0.0042
     84  CD2       -5.9250   10.9660   13.6370 C.ar  127  PHE127     -0.0042
     85  CE1       -6.9920    8.8320   15.0860 C.ar  127  PHE127     -0.0003
     86  CE2       -5.1780    9.8060   13.8430 C.ar  127  PHE127     -0.0003
     87  CZ        -5.7060    8.7360   14.5570 C.ar  127  PHE127     -0.0000
     88  N         -5.6560   14.4680   14.5670 N.am  128  GLY128     -0.1957
     89  CA        -4.2110   14.7460   14.7460 C.3   128  GLY128      0.1869
     90  C         -3.8690   15.3090   16.1160 C.2   128  GLY128      0.2309
     91  O         -2.8290   14.9680   16.7060 O.2   128  GLY128     -0.2863
     92  N         -4.8250   12.4920   19.2720 N.3   131  VAL131     -0.1231
     93  CA        -3.8490   11.4250   19.6180 C.3   131  VAL131      0.1692
     94  C         -2.7470   11.8340   20.5940 C.2   131  VAL131      0.2591
     95  O         -2.1460   10.9710   21.2250 O.2   131  VAL131     -0.2718
     96  CB        -3.1340   10.6930   18.4190 C.3   131  VAL131      0.0266
     97  CG1       -4.1220    9.9230   17.5790 C.3   131  VAL131      0.0020
     98  CG2       -2.2160   11.6110   17.5900 C.3   131  VAL131      0.0020
     99  N         -2.5350   13.1270   20.7690 N.am  132  GLN132     -0.1979
    100  CA        -1.5620   13.5710   21.7330 C.3   132  GLN132      0.1601
    101  C         -2.2250   13.7850   23.0980 C.2   132  GLN132      0.2287
    102  O         -1.6440   14.4290   23.9710 O.2   132  GLN132     -0.2864
    103  CB        -0.9650   14.8660   21.1900 C.3   132  GLN132      0.0394
    104  CG        -0.4220   14.6790   19.7600 C.3   132  GLN132      0.0908
    105  CD         0.8480   13.8170   19.7180 C.2   132  GLN132      0.2608
    106  OE1        1.5040   13.6050   20.7550 O.2   132  GLN132     -0.2717
    107  NE2        1.2350   13.3450   18.5150 N.am  132  GLN132     -0.0878
    108  N         -8.8680    9.4080   22.1900 N.3   137  LEU137     -0.1245
    109  CA        -9.5190    8.4710   21.3240 C.3   137  LEU137      0.1561
    110  C        -10.3570    7.5230   22.0900 C.2   137  LEU137      0.2260
    111  O        -10.1060    7.2640   23.2510 O.2   137  LEU137     -0.2867
    112  CB        -8.5300    7.6380   20.5100 C.3   137  LEU137      0.0270
    113  CG        -7.6860    8.2740   19.4250 C.3   137  LEU137      0.0019
    114  CD1       -7.0090    7.1310   18.6670 C.3   137  LEU137      0.0001
    115  CD2       -8.4680    9.1910   18.4590 C.3   137  LEU137      0.0001
    116  N        -11.8070    3.6280   21.0950 N.3   139  VAL139     -0.1245
    117  CA       -11.8660    2.6040   20.0920 C.3   139  VAL139      0.1561
    118  C        -12.8280    1.5240   20.5730 C.2   139  VAL139      0.2260
    119  O        -12.7180    1.0200   21.6950 O.2   139  VAL139     -0.2867
    120  CB       -10.4830    2.0090   19.6680 C.3   139  VAL139      0.0252
    121  CG1      -10.6750    1.0490   18.5120 C.3   139  VAL139      0.0019
    122  CG2       -9.5290    3.1250   19.2360 C.3   139  VAL139      0.0019
    123  N         -3.8230    2.1610   24.7170 N.3   193  SER193     -0.1202
    124  CA        -2.9710    2.7870   23.6530 C.3   193  SER193      0.2020
    125  C         -3.3880    2.3560   22.2430 C.2   193  SER193      0.2619
    126  O         -4.1230    1.3530   22.0790 O.2   193  SER193     -0.2717
    127  CB        -1.4910    2.3970   23.8690 C.3   193  SER193      0.2103
    128  OG        -1.2470    1.0940   23.2710 O.3   193  SER193     -0.2182
    129  N         -2.8570    3.0700   21.2120 N.am  194  LEU194     -0.1965
    130  CA        -2.8640    2.5610   19.8790 C.3   194  LEU194      0.1728
    131  C         -2.1570    1.2360   19.9790 C.2   194  LEU194      0.2617
    132  O         -1.1690    1.0770   20.7500 O.2   194  LEU194     -0.2715
    133  CB        -2.1460    3.5330   18.9130 C.3   194  LEU194      0.0311
    134  CG        -2.6570    4.9550   18.8280 C.3   194  LEU194      0.0022
    135  CD1       -1.5600    5.8190   18.1820 C.3   194  LEU194      0.0001
    136  CD2       -3.9680    5.0800   18.0390 C.3   194  LEU194      0.0001
    137  N         -2.6550    0.2430   19.2590 N.am  195  THR195     -0.1937
    138  CA        -1.9300   -1.0170   19.2060 C.3   195  THR195      0.2028
    139  C         -0.9330   -1.1640   17.9890 C.2   195  THR195      0.2643
    140  O         -0.3330   -2.2610   17.8260 O.2   195  THR195     -0.2714
    141  CB        -2.8920   -2.2180   19.1440 C.3   195  THR195      0.1808
    142  OG1       -3.5900   -2.0990   17.9090 O.3   195  THR195     -0.2208
    143  CG2       -3.9240   -2.1890   20.3350 C.3   195  THR195      0.0379
    144  N         -0.8140   -0.1310   17.1520 N.am  196  THR196     -0.1937
    145  CA         0.3050    0.0060   16.1990 C.3   196  THR196      0.2013
    146  C          1.1460    1.2550   16.5450 C.2   196  THR196      0.2484
    147  O          0.6070    2.2390   17.1080 O.2   196  THR196     -0.2729
    148  CB        -0.1770    0.2410   14.7450 C.3   196  THR196      0.1807
    149  OG1       -1.0100    1.4160   14.6900 O.3   196  THR196     -0.2208
    150  CG2       -0.9370   -0.9340   14.2490 C.3   196  THR196      0.0379
    151  N          2.4400    1.2700   16.0920 N.am  197  PRO197     -0.2715
    152  CA         3.1830    2.5030   16.0920 C.3   197  PRO197      0.1521
    153  C          2.3140    3.6570   15.5470 C.2   197  PRO197      0.2440
    154  O          1.5490    3.4690   14.5580 O.2   197  PRO197     -0.2731
    155  CB         4.3610    2.2020   15.1450 C.3   197  PRO197      0.0310
    156  CG         4.6130    0.7940   15.3210 C.3   197  PRO197      0.0237
    157  CD         3.2310    0.1460   15.5330 C.3   197  PRO197      0.0939
    158  N          2.3740    4.8360   16.1670 N.am  198  PRO198     -0.2727
    159  CA         3.2650    5.2760   17.2430 C.3   198  PRO198      0.1402
    160  C          2.9560    4.7950   18.6750 C.2   198  PRO198      0.2269
    161  O          3.6530    5.1880   19.6070 O.2   198  PRO198     -0.2865
    162  CB         3.2180    6.8080   17.1360 C.3   198  PRO198      0.0296
    163  CG         1.9390    7.1130   16.4290 C.3   198  PRO198      0.0237
    164  CD         1.7160    5.9700   15.4890 C.3   198  PRO198      0.0939
    165  N          0.7170    5.4480   20.8650 N.3   200  LEU200     -0.1245
    166  CA         0.3950    6.5540   21.8090 C.3   200  LEU200      0.1561
    167  C         -0.6490    6.1520   22.8480 C.2   200  LEU200      0.2260
    168  O         -1.6350    5.4970   22.5230 O.2   200  LEU200     -0.2867
    169  CB        -0.1200    7.8340   21.0750 C.3   200  LEU200      0.0270
    170  CG         0.9990    8.3540   20.1590 C.3   200  LEU200      0.0019
    171  CD1        0.5230    9.4340   19.2040 C.3   200  LEU200      0.0001
    172  CD2        2.2260    8.8110   20.9890 C.3   200  LEU200      0.0001
    173  N         -5.9610    6.1270   24.3350 N.3   203  VAL203     -0.1245
    174  CA        -7.2010    5.4130   23.8950 C.3   203  VAL203      0.1561
    175  C         -8.0440    4.9980   25.1110 C.2   203  VAL203      0.2260
    176  O         -7.5280    4.4210   26.0580 O.2   203  VAL203     -0.2867
    177  CB        -6.8820    4.1420   23.0930 C.3   203  VAL203      0.0252
    178  CG1       -8.2090    3.4380   22.6370 C.3   203  VAL203      0.0019
    179  CG2       -6.0010    4.4940   21.8520 C.3   203  VAL203      0.0019
    180  N        -10.4250    2.1740   25.6270 N.3   205  TRP205     -0.1241
    181  CA       -10.8490    0.9390   24.9510 C.3   205  TRP205      0.1605
    182  C        -12.2280    0.5100   25.4490 C.2   205  TRP205      0.2264
    183  O        -12.4580    0.3670   26.6760 O.2   205  TRP205     -0.2867
    184  CB        -9.8510   -0.2230   25.1210 C.3   205  TRP205      0.0550
    185  CG        -8.7660   -0.1300   24.0810 C.ar  205  TRP205      0.0003
    186  CD1       -7.4850    0.3930   24.2330 C.ar  205  TRP205      0.0946
    187  CD2       -8.8560   -0.5160   22.6650 C.ar  205  TRP205      0.0152
    188  NE1       -6.7930    0.3350   23.0500 N.ar  205  TRP205     -0.2442
    189  CE2       -7.5570   -0.1980   22.0700 C.ar  205  TRP205      0.0810
    190  CE3       -9.8410   -1.0820   21.8710 C.ar  205  TRP205      0.0012
    191  CZ2       -7.2810   -0.4460   20.7400 C.ar  205  TRP205      0.0191
    192  CZ3       -9.5480   -1.3260   20.5290 C.ar  205  TRP205      0.0001
    193  CH2       -8.3010   -1.0160   19.9760 C.ar  205  TRP205      0.0015
@<TRIPOS>BOND
     1    15    16    1
     2    16    17    1
     3    16    19    1
     4    17    18    2
     5    26    25    2
     6    19    20    1
     7    25    24    1
     8    23    24    1
     9    24    27    1
    10    21    20    2
    11    20    22   am
    12    27    28    1
    13    28    30   am
    14    28    29    2
    15     4     3    2
    16    35    32    1
    17    35    36    1
    18    41    44    1
    19    41    40    1
    20    41    42    1
    21    44    45    1
    22    32    33    1
    23    32    31    1
    24     1     2    1
    25     3     2    1
    26    36    37    1
    27    42    43    2
    28    37    38    2
    29    37    39   am
    30    33    34    2
    31     2     5    1
    32     9    10   ar
    33     9     7   ar
    34    12    10   ar
    35    12    14   ar
    36    10     8   ar
    37    45    46   ar
    38    45    47   ar
    39    14    13   ar
    40     7     6   ar
    41     8     6   ar
    42     8    11   ar
    43     6     5    1
    44    13    11   ar
    45    46    48   ar
    46    50    51    1
    47    52    51    1
    48    52    53    2
    49    51    54    1
    50    47    49   ar
    51    48    49   ar
    52    84    86   ar
    53    84    82   ar
    54    63    62    2
    55    86    87   ar
    56    54    55    1
    57    81    82    1
    58    81    78    1
    59    56    55   ar
    60    56    58   ar
    61    82    83   ar
    62   150   148    1
    63    55    57   ar
    64    58    59   ar
    65    87    85   ar
    66   154   153    2
    67    88    89    1
    68    88    79   am
    69    60    61    1
    70   149   148    1
    71    77    78    1
    72    57    59   ar
    73   148   145    1
    74    89    90    1
    75    73    72    2
    76    83    85   ar
    77    62    61    1
    78    76    74    1
    79    78    79    1
    80    74    75    1
    81    74    71    1
    82   155   156    1
    83   155   152    1
    84    70    71    1
    85   156   157    1
    86    79    80    2
    87    61    64    1
    88   164   158    1
    89   164   163    1
    90   157   151    1
    91   153   152    1
    92   153   158   am
    93    64    65    1
    94    71    72    1
    95   152   151    1
    96   151   146   am
    97    90    91    2
    98   158   159    1
    99   145   146    1
   100   145   144    1
   101   163   162    1
   102   146   147    2
   103    66    65   ar
   104    66    68   ar
   105    65    67   ar
   106   162   159    1
   107   144   139   am
   108   159   160    1
   109    97    96    1
   110    98    96    1
   111    68    69   ar
   112    67    69   ar
   113   140   139    2
   114   142   141    1
   115   139   138    1
   116   136   134    1
   117   135   134    1
   118    96    93    1
   119   115   113    1
   120   121   120    1
   121   107   105   am
   122   114   113    1
   123   160   161    2
   124   134   133    1
   125   133   130    1
   126   141   138    1
   127   141   143    1
   128   171   170    1
   129   138   137    1
   130   122   120    1
   131   137   131   am
   132    92    93    1
   133   113   112    1
   134    93    94    1
   135   120   117    1
   136   105   104    1
   137   105   106    2
   138   104   103    1
   139   130   131    1
   140   130   129    1
   141   193   192   ar
   142   193   191   ar
   143   131   132    2
   144   117   118    1
   145   117   116    1
   146   170   172    1
   147   170   169    1
   148   112   109    1
   149   192   190   ar
   150   118   119    2
   151    94    99   am
   152    94    95    2
   153   191   189   ar
   154    99   100    1
   155   165   166    1
   156   169   166    1
   157   103   100    1
   158   129   125   am
   159   109   110    1
   160   109   108    1
   161   100   101    1
   162   166   167    1
   163   179   177    1
   164   190   187   ar
   165   189   187   ar
   166   189   188   ar
   167   126   125    2
   168   110   111    2
   169   125   124    1
   170   168   167    2
   171   178   177    1
   172   187   185   ar
   173   188   186   ar
   174   177   174    1
   175   101   102    2
   176   128   127    1
   177   124   127    1
   178   124   123    1
   179   174   173    1
   180   174   175    1
   181   185   186   ar
   182   185   184    1
   183   181   184    1
   184   181   182    1
   185   181   180    1
   186   175   176    2
   187   182   183    2
