@<TRIPOS>MOLECULE
tmp/5llmA00.pdb
 93 85 0 0 0
SMALL
GASTEIGER

@<TRIPOS>ATOM
      1  N        -50.4910  439.4640  -10.0030 N.3   264  SER264     -0.1202
      2  CA       -49.2550  439.9730  -10.6220 C.3   264  SER264      0.2020
      3  C        -49.0700  441.4850  -10.3650 C.2   264  SER264      0.2619
      4  O        -48.4800  442.2030  -11.1790 O.2   264  SER264     -0.2717
      5  CB       -49.1530  439.5980  -12.1030 C.3   264  SER264      0.2103
      6  OG       -47.8980  439.9660  -12.6510 O.3   264  SER264     -0.2182
      7  N        -49.5460  441.9430   -9.1950 N.am  265  SER265     -0.1937
      8  CA       -49.4640  443.3270   -8.7450 C.3   265  SER265      0.2055
      9  C        -49.0770  443.2990   -7.2650 C.2   265  SER265      0.2643
     10  O        -49.8160  442.7230   -6.4650 O.2   265  SER265     -0.2714
     11  CB       -50.8120  444.0160   -8.9500 C.3   265  SER265      0.2130
     12  OG       -50.7590  445.4180   -8.7530 O.3   265  SER265     -0.2179
     13  N        -47.8870  443.8450   -6.9080 N.am  266  SER266     -0.1949
     14  CA       -47.4080  443.8510   -5.5140 C.3   266  SER266      0.1924
     15  C        -48.0940  444.9280   -4.6650 C.2   266  SER266      0.2314
     16  O        -48.1620  444.7880   -3.4410 O.2   266  SER266     -0.2863
     17  CB       -45.8840  443.9330   -5.4300 C.3   266  SER266      0.2116
     18  OG       -45.3620  445.1590   -5.9110 O.3   266  SER266     -0.2180
     19  N        -38.1300  446.1550   -5.6380 N.3   300  MET300     -0.1245
     20  CA       -38.5660  445.2340   -6.6760 C.3   300  MET300      0.1570
     21  C        -37.3460  444.4060   -7.0960 C.2   300  MET300      0.2261
     22  O        -36.6710  444.7370   -8.0730 O.2   300  MET300     -0.2867
     23  CB       -39.1930  445.9940   -7.8660 C.3   300  MET300      0.0387
     24  CG       -40.1190  447.1460   -7.4670 C.3   300  MET300      0.0595
     25  SD       -41.8620  446.9310   -7.8950 S.3   300  MET300     -0.1393
     26  CE       -41.7820  447.0950   -9.6620 C.3   300  MET300      0.0692
     27  N        -37.9470  442.1880  -10.4070 N.3   303  THR303     -0.1218
     28  CA       -38.0150  443.1020  -11.5520 C.3   303  THR303      0.1862
     29  C        -36.5950  443.4800  -11.9730 C.2   303  THR303      0.2287
     30  O        -36.2910  443.3850  -13.1540 O.2   303  THR303     -0.2866
     31  CB       -38.9380  444.3050  -11.2400 C.3   303  THR303      0.1770
     32  OG1      -40.2530  443.8220  -10.9650 O.3   303  THR303     -0.2211
     33  CG2      -39.0040  445.3290  -12.3730 C.3   303  THR303      0.0375
     34  N        -43.7640  450.7510  -10.9950 N.3   333  ALA333     -0.1231
     35  CA       -44.7590  450.6190   -9.9350 C.3   333  ALA333      0.1694
     36  C        -45.1370  449.1560   -9.7230 C.2   333  ALA333      0.2593
     37  O        -44.9070  448.3330  -10.6070 O.2   333  ALA333     -0.2718
     38  CB       -45.9920  451.4350  -10.2850 C.3   333  ALA333      0.0304
     39  N        -45.7140  448.8450   -8.5610 N.am  334  GLY334     -0.1942
     40  CA       -46.1720  447.4980   -8.2390 C.3   334  GLY334      0.2014
     41  C        -47.4820  447.1800   -8.9370 C.2   334  GLY334      0.2638
     42  O        -48.4660  446.8200   -8.2870 O.2   334  GLY334     -0.2714
     43  N        -47.4930  447.3080  -10.2710 N.am  335  ILE335     -0.1977
     44  CA       -48.6420  447.1150  -11.1500 C.3   335  ILE335      0.1596
     45  C        -48.2840  446.0780  -12.2410 C.2   335  ILE335      0.2287
     46  O        -47.1080  445.9910  -12.5920 O.2   335  ILE335     -0.2864
     47  CB       -49.0420  448.5370  -11.6940 C.3   335  ILE335      0.0276
     48  CG1      -50.2630  449.1150  -10.9420 C.3   335  ILE335      0.0022
     49  CG2      -49.2340  448.6230  -13.2140 C.3   335  ILE335      0.0022
     50  CD1      -49.9590  449.8370   -9.5920 C.3   335  ILE335      0.0001
     51  N        -45.4970  446.3930  -15.5830 N.3   338  ALA338     -0.1231
     52  CA       -44.6940  447.5790  -15.2720 C.3   338  ALA338      0.1694
     53  C        -43.2380  447.4700  -15.7320 C.2   338  ALA338      0.2592
     54  O        -42.6900  448.4570  -16.2290 O.2   338  ALA338     -0.2718
     55  CB       -44.7560  447.8920  -13.7900 C.3   338  ALA338      0.0304
     56  N        -42.6400  446.2840  -15.5690 N.am  339  GLY339     -0.1957
     57  CA       -41.2610  445.9960  -15.9580 C.3   339  GLY339      0.1869
     58  C        -41.0180  446.2050  -17.4380 C.2   339  GLY339      0.2309
     59  O        -39.9870  446.7580  -17.8320 O.2   339  GLY339     -0.2863
     60  N        -43.9500  437.7790  -15.0150 N.3   368  ASP368     -0.1239
     61  CA       -44.4760  438.8200  -14.1360 C.3   368  ASP368      0.1674
     62  C        -45.1580  438.2220  -12.8950 C.2   368  ASP368      0.2266
     63  O        -45.0590  438.8080  -11.8190 O.2   368  ASP368     -0.2867
     64  CB       -45.4370  439.7500  -14.9070 C.3   368  ASP368      0.1410
     65  CG       -45.5860  441.1530  -14.3420 C.2   368  ASP368      0.3668
     66  OD1      -44.6470  441.6270  -13.6680 O.co2 368  ASP368     -0.2456
     67  OD2      -46.6300  441.7860  -14.6020 O.co2 368  ASP368     -0.2456
     68  N        -42.1650  437.3170  -10.9040 N.3   371  ARG371     -0.1231
     69  CA       -41.4510  438.5740  -10.6600 C.3   371  ARG371      0.1694
     70  C        -42.0440  439.2510   -9.4320 C.2   371  ARG371      0.2592
     71  O        -41.2940  439.7330   -8.5870 O.2   371  ARG371     -0.2718
     72  CB       -41.6470  439.5060  -11.8570 C.3   371  ARG371      0.0321
     73  CG       -40.4060  440.2060  -12.3650 C.3   371  ARG371      0.0489
     74  CD       -40.7750  441.2080  -13.4480 C.3   371  ARG371      0.2205
     75  NE       -41.3800  440.5640  -14.6190 N.pl3 371  ARG371     -0.0865
     76  CZ       -42.0480  441.2040  -15.5740 C.cat 371  ARG371      0.5346
     77  NH1      -42.2190  442.5190  -15.5110 N.pl3 371  ARG371      0.1354
     78  NH2      -42.5540  440.5330  -16.5980 N.pl3 371  ARG371      0.1354
     79  N        -43.3960  439.2690   -9.3370 N.am  372  THR372     -0.1953
     80  CA       -44.1680  439.8470   -8.2330 C.3   372  THR372      0.1897
     81  C        -43.9430  439.0440   -6.9440 C.2   372  THR372      0.2313
     82  O        -43.7660  439.6490   -5.8870 O.2   372  THR372     -0.2863
     83  CB       -45.6530  439.9480   -8.6130 C.3   372  THR372      0.1794
     84  OG1      -45.7720  440.5480   -9.8990 O.3   372  THR372     -0.2208
     85  CG2      -46.4610  440.7560   -7.6170 C.3   372  THR372      0.0378
     86  N        -40.7300  440.1100   -5.5980 N.3   375  ASN375     -0.1240
     87  CA       -40.8690  441.5310   -5.2550 C.3   375  ASN375      0.1653
     88  C        -41.5540  441.6830   -3.8890 C.2   375  ASN375      0.2266
     89  O        -41.1440  442.5330   -3.0950 O.2   375  ASN375     -0.2867
     90  CB       -41.6720  442.2780   -6.3360 C.3   375  ASN375      0.1155
     91  CG       -40.8990  442.6250   -7.5920 C.2   375  ASN375      0.2627
     92  OD1      -39.7670  442.1840   -7.8170 O.2   375  ASN375     -0.2716
     93  ND2      -41.5030  443.4240   -8.4530 N.am  375  ASN375     -0.0877
@<TRIPOS>BOND
     1    59    58    2
     2    58    57    1
     3    78    76    1
     4    54    53    2
     5    57    56    1
     6    53    56   am
     7    53    52    1
     8    51    52    1
     9    76    77    1
    10    76    75    2
    11    52    55    1
    12    60    61    1
    13    64    65    1
    14    64    61    1
    15    75    74    1
    16    67    65   ar
    17    65    66   ar
    18    61    62    1
    19    74    73    1
    20    49    47    1
    21    30    29    2
    22    62    63    2
    23     6     5    1
    24    46    45    2
    25    33    31    1
    26    73    72    1
    27    45    44    1
    28     5     2    1
    29    29    28    1
    30    72    69    1
    31    47    44    1
    32    47    48    1
    33    28    31    1
    34    28    27    1
    35    31    32    1
    36     4     3    2
    37    44    43    1
    38    34    35    1
    39    48    50    1
    40    68    69    1
    41    69    70    1
    42     2     3    1
    43     2     1    1
    44    37    36    2
    45     3     7   am
    46    38    35    1
    47    43    41   am
    48    35    36    1
    49    84    83    1
    50    36    39   am
    51    26    25    1
    52    70    79   am
    53    70    71    2
    54    79    80    1
    55     7     8    1
    56    11    12    1
    57    11     8    1
    58    41    42    2
    59    41    40    1
    60     8     9    1
    61    83    80    1
    62    83    85    1
    63    39    40    1
    64    93    91   am
    65    80    81    1
    66    22    21    2
    67    25    24    1
    68    23    24    1
    69    23    20    1
    70    92    91    2
    71    91    90    1
    72     9    13   am
    73     9    10    2
    74    21    20    1
    75    81    82    2
    76    13    14    1
    77    20    19    1
    78    90    87    1
    79    18    17    1
    80    86    87    1
    81    14    17    1
    82    14    15    1
    83    87    88    1
    84    15    16    2
    85    88    89    2
