@<TRIPOS>MOLECULE
tmp/5llmA01.pdb
 156 144 0 0 0
SMALL
GASTEIGER

@<TRIPOS>ATOM
      1  N        -48.6910  454.8190    6.7110 N.3    68  LEU68      -0.1245
      2  CA       -47.5620  455.7390    6.7840 C.3    68  LEU68       0.1561
      3  C        -47.7950  456.9470    7.7290 C.2    68  LEU68       0.2260
      4  O        -46.8370  457.3720    8.3880 O.2    68  LEU68      -0.2867
      5  CB       -47.0920  456.1710    5.3920 C.3    68  LEU68       0.0270
      6  CG       -46.0390  455.2280    4.8010 C.3    68  LEU68       0.0019
      7  CD1      -46.1170  455.1930    3.3200 C.3    68  LEU68       0.0001
      8  CD2      -44.6240  455.5900    5.2580 C.3    68  LEU68       0.0001
      9  N        -45.1700  456.7620   11.0530 N.3    72  LEU72      -0.1245
     10  CA       -44.1560  457.8020   11.2670 C.3    72  LEU72       0.1561
     11  C        -44.4260  458.6600   12.4950 C.2    72  LEU72       0.2260
     12  O        -43.4690  459.1090   13.1320 O.2    72  LEU72      -0.2867
     13  CB       -43.9560  458.6740   10.0210 C.3    72  LEU72       0.0270
     14  CG       -42.6850  458.3580    9.2500 C.3    72  LEU72       0.0019
     15  CD1      -42.9260  457.2790    8.2130 C.3    72  LEU72       0.0001
     16  CD2      -42.1010  459.6000    8.6330 C.3    72  LEU72       0.0001
     17  N        -37.7670  461.3610   15.6300 N.3    77  ALA77      -0.1245
     18  CA       -37.0430  461.9030   14.4760 C.3    77  ALA77       0.1562
     19  C        -35.8850  461.0160   14.0550 C.2    77  ALA77       0.2260
     20  O        -35.8640  460.5580   12.9160 O.2    77  ALA77      -0.2867
     21  CB       -36.5500  463.3130   14.7740 C.3    77  ALA77       0.0290
     22  N        -37.1920  457.1330   13.2130 N.3    80  SER80      -0.1202
     23  CA       -37.7040  456.9210   11.8480 C.3    80  SER80       0.2020
     24  C        -36.5880  457.0110   10.7980 C.2    80  SER80       0.2619
     25  O        -36.6550  456.3300    9.7780 O.2    80  SER80      -0.2717
     26  CB       -38.8410  457.8880   11.5290 C.3    80  SER80       0.2103
     27  OG       -38.3970  459.2330   11.4810 O.3    80  SER80      -0.2182
     28  N        -35.5710  457.8260   11.0760 N.am   81  GLY81      -0.1956
     29  CA       -34.3820  457.9630   10.2440 C.3    81  GLY81       0.1869
     30  C        -33.5560  456.6880   10.2810 C.2    81  GLY81       0.2309
     31  O        -33.1550  456.1850    9.2300 O.2    81  GLY81      -0.2863
     32  N        -35.5930  453.9410    8.7270 N.3    84  GLY84      -0.1210
     33  CA       -35.5140  454.2140    7.2990 C.3    84  GLY84       0.1956
     34  C        -34.2090  453.7560    6.6880 C.2    84  GLY84       0.2611
     35  O        -34.2300  453.0710    5.6640 O.2    84  GLY84      -0.2717
     36  N        -33.0620  454.1090    7.3300 N.am   85  MET85      -0.1979
     37  CA       -31.6990  453.7480    6.8930 C.3    85  MET85       0.1605
     38  C        -31.4890  452.2340    6.8260 C.2    85  MET85       0.2287
     39  O        -30.8260  451.7610    5.9070 O.2    85  MET85      -0.2864
     40  CB       -30.6560  454.3840    7.8040 C.3    85  MET85       0.0413
     41  CG       -29.2490  454.0850    7.4060 C.3    85  MET85       0.0598
     42  SD       -28.8030  455.1350    5.9940 S.3    85  MET85      -0.1393
     43  CE       -28.6840  456.7350    6.7730 C.3    85  MET85       0.0692
     44  N        -33.9390  450.0670    6.2950 N.3    87  ALA87      -0.1231
     45  CA       -34.7750  449.6420    5.1790 C.3    87  ALA87       0.1694
     46  C        -34.1200  449.9680    3.8240 C.2    87  ALA87       0.2591
     47  O        -34.0290  449.0780    2.9810 O.2    87  ALA87      -0.2718
     48  CB       -36.1490  450.2860    5.2820 C.3    87  ALA87       0.0304
     49  N        -33.6460  451.2290    3.6310 N.am   88  VAL88      -0.1980
     50  CA       -32.9910  451.7250    2.4070 C.3    88  VAL88       0.1595
     51  C        -31.7490  450.8960    2.0700 C.2    88  VAL88       0.2287
     52  O        -31.6390  450.4270    0.9370 O.2    88  VAL88      -0.2864
     53  CB       -32.7040  453.2550    2.4580 C.3    88  VAL88       0.0276
     54  CG1      -31.8420  453.7140    1.2840 C.3    88  VAL88       0.0022
     55  CG2      -33.9990  454.0560    2.5060 C.3    88  VAL88       0.0022
     56  N        -32.9380  447.6180    0.8750 N.3    91  TYR91      -0.1241
     57  CA       -33.5670  447.7660   -0.4440 C.3    91  TYR91       0.1605
     58  C        -32.5270  447.9010   -1.5560 C.2    91  TYR91       0.2264
     59  O        -32.6940  447.3130   -2.6270 O.2    91  TYR91      -0.2867
     60  CB       -34.5010  448.9950   -0.4810 C.3    91  TYR91       0.0534
     61  CG       -35.7650  448.9320    0.3550 C.ar   91  TYR91      -0.0201
     62  CD1      -36.2790  447.7130    0.7950 C.ar   91  TYR91      -0.0009
     63  CD2      -36.4730  450.0890    0.6670 C.ar   91  TYR91      -0.0009
     64  CE1      -37.4590  447.6500    1.5320 C.ar   91  TYR91       0.0417
     65  CE2      -37.6480  450.0390    1.4130 C.ar   91  TYR91       0.0417
     66  CZ       -38.1370  448.8180    1.8450 C.ar   91  TYR91       0.1957
     67  OH       -39.2940  448.7730    2.5820 O.3    91  TYR91      -0.2866
     68  N        -46.8630  456.3420   -5.1960 N.3   152  LEU152     -0.1245
     69  CA       -45.6220  456.9960   -4.7850 C.3   152  LEU152      0.1561
     70  C        -45.8570  458.3850   -4.1880 C.2   152  LEU152      0.2260
     71  O        -45.2520  458.7000   -3.1650 O.2   152  LEU152     -0.2867
     72  CB       -44.6420  457.0540   -5.9620 C.3   152  LEU152      0.0270
     73  CG       -43.3320  457.8190   -5.7860 C.3   152  LEU152      0.0019
     74  CD1      -42.4920  457.2470   -4.6480 C.3   152  LEU152      0.0001
     75  CD2      -42.5380  457.7930   -7.0680 C.3   152  LEU152      0.0001
     76  N        -47.4860  457.8840   -0.7610 N.3   155  VAL155     -0.1231
     77  CA       -46.4690  457.3520    0.1490 C.3   155  VAL155      0.1692
     78  C        -45.5830  458.5180    0.6290 C.2   155  VAL155      0.2591
     79  O        -45.4190  458.6810    1.8370 O.2   155  VAL155     -0.2718
     80  CB       -45.6730  456.1830   -0.5120 C.3   155  VAL155      0.0266
     81  CG1      -44.2890  455.9960    0.1080 C.3   155  VAL155      0.0020
     82  CG2      -46.4630  454.8780   -0.4630 C.3   155  VAL155      0.0020
     83  N        -45.1000  459.3660   -0.3090 N.am  156  VAL156     -0.1980
     84  CA       -44.2620  460.5310   -0.0170 C.3   156  VAL156      0.1595
     85  C        -45.0080  461.5800    0.8400 C.2   156  VAL156      0.2287
     86  O        -44.4560  462.0090    1.8610 O.2   156  VAL156     -0.2864
     87  CB       -43.6330  461.1280   -1.2950 C.3   156  VAL156      0.0276
     88  CG1      -43.0070  462.4940   -1.0350 C.3   156  VAL156      0.0022
     89  CG2      -42.5930  460.1790   -1.8620 C.3   156  VAL156      0.0022
     90  N        -46.0430  460.3050    4.4620 N.3   159  MET159     -0.1230
     91  CA       -44.8190  460.2230    5.2530 C.3   159  MET159      0.1702
     92  C        -44.5210  461.5320    5.9770 C.2   159  MET159      0.2592
     93  O        -44.3810  461.5230    7.2000 O.2   159  MET159     -0.2718
     94  CB       -43.6520  459.8640    4.3540 C.3   159  MET159      0.0401
     95  CG       -42.7220  458.8920    4.9660 C.3   159  MET159      0.0596
     96  SD       -41.3150  458.6540    3.8880 S.3   159  MET159     -0.1393
     97  CE       -42.1330  457.8600    2.4680 C.3   159  MET159      0.0692
     98  N        -44.4420  462.6550    5.2220 N.am  160  VAL160     -0.1980
     99  CA       -44.1790  463.9990    5.7570 C.3   160  VAL160      0.1595
    100  C        -45.3380  464.4290    6.6650 C.2   160  VAL160      0.2287
    101  O        -45.0920  465.1000    7.6700 O.2   160  VAL160     -0.2864
    102  CB       -43.8750  465.0580    4.6590 C.3   160  VAL160      0.0276
    103  CG1      -43.2300  466.3050    5.2620 C.3   160  VAL160      0.0022
    104  CG2      -42.9860  464.4840    3.5600 C.3   160  VAL160      0.0022
    105  N        -44.9930  462.5150    9.9210 N.3   163  PHE163     -0.1241
    106  CA       -43.8730  463.1420   10.6100 C.3   163  PHE163      0.1605
    107  C        -44.3370  464.4420   11.2910 C.2   163  PHE163      0.2264
    108  O        -43.9860  464.6720   12.4510 O.2   163  PHE163     -0.2867
    109  CB       -42.7240  463.4010    9.6150 C.3   163  PHE163      0.0534
    110  CG       -41.7030  464.4250   10.0480 C.ar  163  PHE163     -0.0203
    111  CD1      -40.7080  464.0960   10.9620 C.ar  163  PHE163     -0.0042
    112  CD2      -41.7170  465.7100    9.5170 C.ar  163  PHE163     -0.0042
    113  CE1      -39.7630  465.0440   11.3600 C.ar  163  PHE163     -0.0003
    114  CE2      -40.7750  466.6610    9.9200 C.ar  163  PHE163     -0.0003
    115  CZ       -39.8020  466.3210   10.8380 C.ar  163  PHE163     -0.0000
    116  N        -44.4690  450.9000    8.1740 N.3   290  PHE290     -0.1227
    117  CA       -43.2840  451.6410    7.7490 C.3   290  PHE290      0.1736
    118  C        -42.6150  451.0090    6.4970 C.2   290  PHE290      0.2595
    119  O        -42.4530  451.6880    5.4850 O.2   290  PHE290     -0.2718
    120  CB       -42.2950  451.7080    8.9320 C.3   290  PHE290      0.0547
    121  CG       -41.1920  452.7330    8.8360 C.ar  290  PHE290     -0.0202
    122  CD1      -40.0080  452.4450    8.1640 C.ar  290  PHE290     -0.0042
    123  CD2      -41.3070  453.9630    9.4760 C.ar  290  PHE290     -0.0042
    124  CE1      -38.9790  453.3900    8.0900 C.ar  290  PHE290     -0.0003
    125  CE2      -40.2760  454.9060    9.4030 C.ar  290  PHE290     -0.0003
    126  CZ       -39.1220  454.6150    8.7050 C.ar  290  PHE290     -0.0000
    127  N        -42.2460  449.7130    6.5800 N.am  291  VAL291     -0.1980
    128  CA       -41.5250  448.9420    5.5600 C.3   291  VAL291      0.1595
    129  C        -42.3550  448.6160    4.3200 C.2   291  VAL291      0.2287
    130  O        -41.9360  448.9850    3.2230 O.2   291  VAL291     -0.2864
    131  CB       -40.8940  447.6520    6.1630 C.3   291  VAL291      0.0276
    132  CG1      -40.2330  446.7820    5.0920 C.3   291  VAL291      0.0022
    133  CG2      -39.9010  447.9860    7.2760 C.3   291  VAL291      0.0022
    134  N        -43.7380  451.3880    1.3170 N.3   294  VAL294     -0.1245
    135  CA       -42.5660  451.8780    0.5850 C.3   294  VAL294      0.1561
    136  C        -41.9660  450.7110   -0.2130 C.2   294  VAL294      0.2260
    137  O        -41.5530  450.8980   -1.3560 O.2   294  VAL294     -0.2867
    138  CB       -41.5370  452.5460    1.5350 C.3   294  VAL294      0.0252
    139  CG1      -40.3130  453.0490    0.7750 C.3   294  VAL294      0.0019
    140  CG2      -42.1780  453.6850    2.3210 C.3   294  VAL294      0.0019
    141  N        -40.7140  450.7650   -4.2970 N.3   298  ILE298     -0.1245
    142  CA       -39.2640  450.9380   -4.3320 C.3   298  ILE298      0.1561
    143  C        -38.5170  449.5870   -4.4090 C.2   298  ILE298      0.2260
    144  O        -37.6690  449.4380   -5.2930 O.2   298  ILE298     -0.2867
    145  CB       -38.8120  451.8640   -3.1560 C.3   298  ILE298      0.0252
    146  CG1      -38.9270  453.3420   -3.5660 C.3   298  ILE298      0.0019
    147  CG2      -37.4060  451.5740   -2.6270 C.3   298  ILE298      0.0019
    148  CD1      -40.2240  454.0230   -3.1820 C.3   298  ILE298      0.0001
    149  N        -36.5400  450.5600   -9.0000 N.3   330  ILE330     -0.1245
    150  CA       -37.1060  451.5960   -8.1240 C.3   330  ILE330      0.1561
    151  C        -38.2770  452.3230   -8.7970 C.2   330  ILE330      0.2260
    152  O        -39.3550  452.4290   -8.2070 O.2   330  ILE330     -0.2867
    153  CB       -36.0100  452.5780   -7.6090 C.3   330  ILE330      0.0252
    154  CG1      -34.8990  451.8270   -6.8370 C.3   330  ILE330      0.0019
    155  CG2      -36.6220  453.6920   -6.7400 C.3   330  ILE330      0.0019
    156  CD1      -33.5310  452.5180   -6.8240 C.3   330  ILE330      0.0001
@<TRIPOS>BOND
     1   149   150    1
     2   151   152    2
     3   151   150    1
     4   150   153    1
     5   153   154    1
     6   153   155    1
     7    75    73    1
     8   154   156    1
     9    72    73    1
    10    72    69    1
    11    73    74    1
    12   144   143    2
    13    68    69    1
    14    69    70    1
    15   143   142    1
    16   142   141    1
    17   142   145    1
    18    70    71    2
    19   146   148    1
    20   146   145    1
    21   145   147    1
    22    59    58    2
    23    89    87    1
    24    58    57    1
    25   137   136    2
    26    87    88    1
    27    87    84    1
    28    76    77    1
    29    80    82    1
    30    80    81    1
    31    80    77    1
    32    60    57    1
    33    60    61    1
    34    57    56    1
    35    83    84    1
    36    83    78   am
    37   136   135    1
    38    84    85    1
    39    77    78    1
    40    61    63   ar
    41    61    62   ar
    42   135   134    1
    43   135   138    1
    44    78    79    2
    45    63    65   ar
    46   139   138    1
    47    62    64   ar
    48    85    86    2
    49    52    51    2
    50    54    53    1
    51    65    66   ar
    52    64    66   ar
    53   138   140    1
    54    66    67    1
    55    51    50    1
    56    50    53    1
    57    50    49    1
    58    53    55    1
    59    97    96    1
    60    47    46    2
    61   130   129    2
    62     7     6    1
    63   104   102    1
    64    49    46   am
    65    46    45    1
    66    96    95    1
    67   129   128    1
    68    94    95    1
    69    94    91    1
    70    90    91    1
    71   102   103    1
    72   102    99    1
    73     6     8    1
    74     6     5    1
    75   132   131    1
    76    45    48    1
    77    45    44    1
    78    98    99    1
    79    98    92   am
    80    91    92    1
    81     5     2    1
    82   119   118    2
    83   128   131    1
    84   128   127    1
    85    35    34    2
    86    99   100    1
    87    39    38    2
    88    92    93    2
    89    42    43    1
    90    42    41    1
    91   131   133    1
    92   118   127   am
    93   118   117    1
    94   100   101    2
    95    34    33    1
    96    34    36   am
    97     1     2    1
    98     2     3    1
    99    38    37    1
   100    37    36    1
   101    37    40    1
   102    33    32    1
   103    41    40    1
   104     3     4    2
   105   117   116    1
   106   117   120    1
   107   124   122   ar
   108   124   126   ar
   109   122   121   ar
   110    15    14    1
   111    16    14    1
   112   126   125   ar
   113   121   120    1
   114   121   123   ar
   115    31    30    2
   116    14    13    1
   117   125   123   ar
   118   112   114   ar
   119   112   110   ar
   120   109   110    1
   121   109   106    1
   122    25    24    2
   123   114   115   ar
   124   105   106    1
   125    13    10    1
   126   110   111   ar
   127    29    30    1
   128    29    28    1
   129   106   107    1
   130    24    28   am
   131    24    23    1
   132   115   113   ar
   133   111   113   ar
   134     9    10    1
   135    10    11    1
   136   107   108    2
   137    27    26    1
   138    26    23    1
   139    23    22    1
   140    11    12    2
   141    20    19    2
   142    19    18    1
   143    18    21    1
   144    18    17    1
