@<TRIPOS>MOLECULE
tmp/5llnB01.pdb
 167 163 0 0 0
SMALL
GASTEIGER

@<TRIPOS>ATOM
      1  N        -48.5060  -42.8540   28.2170 N.3     3  TRP3       -0.1241
      2  CA       -47.2820  -43.1490   28.9300 C.3     3  TRP3        0.1605
      3  C        -46.8900  -41.9400   29.7880 C.2     3  TRP3        0.2264
      4  O        -47.2970  -40.7830   29.5330 O.2     3  TRP3       -0.2867
      5  CB       -46.1370  -43.4640   27.9400 C.3     3  TRP3        0.0550
      6  CG       -45.6960  -42.3070   27.1200 C.ar    3  TRP3        0.0003
      7  CD1      -46.1210  -41.9540   25.8470 C.ar    3  TRP3        0.0946
      8  CD2      -44.6990  -41.3130   27.4830 C.ar    3  TRP3        0.0152
      9  NE1      -45.4710  -40.8330   25.4150 N.ar    3  TRP3       -0.2442
     10  CE2      -44.6070  -40.3970   26.3500 C.ar    3  TRP3        0.0810
     11  CE3      -43.9080  -41.0930   28.5950 C.ar    3  TRP3        0.0012
     12  CZ2      -43.7520  -39.3180   26.3520 C.ar    3  TRP3        0.0191
     13  CZ3      -43.0480  -39.9990   28.5880 C.ar    3  TRP3        0.0001
     14  CH2      -42.9720  -39.1340   27.4920 C.ar    3  TRP3        0.0015
     15  N        -44.5890  -33.9640   30.1310 N.3    62  HIS62      -0.1241
     16  CA       -43.4320  -34.7980   30.4330 C.3    62  HIS62       0.1621
     17  C        -42.1830  -33.9830   30.7770 C.2    62  HIS62       0.2264
     18  O        -41.2480  -34.5680   31.3510 O.2    62  HIS62      -0.2867
     19  CB       -43.0690  -35.6950   29.2710 C.3    62  HIS62       0.0745
     20  CG       -44.2270  -36.3540   28.6700 C.ar   62  HIS62       0.0817
     21  ND1      -44.6780  -36.0330   27.4250 N.ar   62  HIS62      -0.2268
     22  CD2      -45.1280  -37.2870   29.2200 C.ar   62  HIS62       0.1154
     23  CE1      -45.7680  -36.8120   27.1720 C.ar   62  HIS62       0.1986
     24  NE2      -46.0570  -37.5370   28.2650 N.ar   62  HIS62      -0.2212
     25  N        -40.7200  -27.7730   27.3130 N.3    65  ASN65      -0.1240
     26  CA       -40.0630  -27.8880   25.9430 C.3    65  ASN65       0.1653
     27  C        -39.9070  -26.4620   25.5040 C.2    65  ASN65       0.2266
     28  O        -40.9160  -25.7560   25.3500 O.2    65  ASN65      -0.2867
     29  CB       -40.9790  -28.5440   24.9160 C.3    65  ASN65       0.1155
     30  CG       -41.2150  -30.0140   25.1650 C.2    65  ASN65       0.2627
     31  OD1      -40.4340  -30.6570   25.9180 O.2    65  ASN65      -0.2716
     32  ND2      -42.1630  -30.6140   24.4340 N.am   65  ASN65      -0.0877
     33  N        -35.2780  -28.3950   19.9610 N.3    90  GLN90      -0.1245
     34  CA       -35.9170  -28.4450   21.2840 C.3    90  GLN90       0.1566
     35  C        -34.9030  -28.4130   22.4150 C.2    90  GLN90       0.2260
     36  O        -33.7890  -28.9730   22.3110 O.2    90  GLN90      -0.2867
     37  CB       -36.7200  -29.7490   21.4210 C.3    90  GLN90       0.0367
     38  CG       -37.6430  -29.6880   22.6030 C.3    90  GLN90       0.0905
     39  CD       -38.4010  -30.9800   22.6710 C.2    90  GLN90       0.2608
     40  OE1      -37.8350  -32.0130   23.0910 O.2    90  GLN90      -0.2717
     41  NE2      -39.6600  -30.9540   22.2540 N.am   90  GLN90      -0.0878
     42  N        -35.1800  -29.4730   26.6160 N.3    92  HIS92      -0.1241
     43  CA       -36.0170  -29.8860   27.7790 C.3    92  HIS92       0.1621
     44  C        -35.1070  -30.4140   28.8860 C.2    92  HIS92       0.2264
     45  O        -33.8760  -30.5290   28.7320 O.2    92  HIS92      -0.2867
     46  CB       -37.1010  -30.9630   27.3750 C.3    92  HIS92       0.0745
     47  CG       -36.4820  -32.1960   26.8790 C.ar   92  HIS92       0.0817
     48  ND1      -36.3120  -32.4470   25.5530 N.ar   92  HIS92      -0.2268
     49  CD2      -35.9590  -33.2000   27.5610 C.ar   92  HIS92       0.1154
     50  CE1      -35.6850  -33.6410   25.4590 C.ar   92  HIS92       0.1986
     51  NE2      -35.4770  -34.1100   26.7130 N.ar   92  HIS92      -0.2212
     52  N        -34.6760  -33.2050   32.4870 N.3    94  HIS94      -0.1241
     53  CA       -35.1470  -34.3640   33.3120 C.3    94  HIS94       0.1621
     54  C        -34.5610  -34.1790   34.6780 C.2    94  HIS94       0.2264
     55  O        -33.4600  -33.6810   34.8770 O.2    94  HIS94      -0.2867
     56  CB       -34.5550  -35.6540   32.7530 C.3    94  HIS94       0.0745
     57  CG       -34.9570  -35.9050   31.2960 C.ar   94  HIS94       0.0817
     58  ND1      -36.1220  -36.5200   30.9640 N.ar   94  HIS94      -0.2268
     59  CD2      -34.3200  -35.5950   30.1110 C.ar   94  HIS94       0.1154
     60  CE1      -36.1820  -36.6580   29.6180 C.ar   94  HIS94       0.1986
     61  NE2      -35.0890  -36.1120   29.0950 N.ar   94  HIS94      -0.2212
     62  N        -31.3680  -31.6490   27.8340 N.3   117  HIS117     -0.1241
     63  CA       -31.2090  -32.2260   26.5410 C.3   117  HIS117      0.1621
     64  C        -31.5260  -31.2150   25.4850 C.2   117  HIS117      0.2264
     65  O        -32.5140  -30.4940   25.5730 O.2   117  HIS117     -0.2867
     66  CB       -32.1570  -33.4000   26.3380 C.3   117  HIS117      0.0745
     67  CG       -31.7150  -34.6250   27.1000 C.ar  117  HIS117      0.0817
     68  ND1      -32.5980  -35.6930   27.3760 N.ar  117  HIS117     -0.2268
     69  CD2      -30.5280  -34.9270   27.6100 C.ar  117  HIS117      0.1154
     70  CE1      -31.8800  -36.5910   28.1000 C.ar  117  HIS117      0.1986
     71  NE2      -30.6280  -36.1190   28.2460 N.ar  117  HIS117     -0.2212
     72  N        -31.9890  -30.9420   21.5550 N.3   119  VAL119     -0.1245
     73  CA       -32.3100  -31.8870   20.4750 C.3   119  VAL119      0.1561
     74  C        -32.1300  -31.1930   19.0900 C.2   119  VAL119      0.2260
     75  O        -32.6090  -30.0400   18.9190 O.2   119  VAL119     -0.2867
     76  CB       -33.7500  -32.3300   20.6180 C.3   119  VAL119      0.0252
     77  CG1      -34.0770  -33.3070   19.4590 C.3   119  VAL119      0.0019
     78  CG2      -33.9990  -33.0200   21.9780 C.3   119  VAL119      0.0019
     79  N        -38.0320  -32.6300   11.1380 N.3   129  PHE129     -0.1241
     80  CA       -37.7410  -33.3410   12.3870 C.3   129  PHE129      0.1605
     81  C        -38.4570  -34.7210   12.5350 C.2   129  PHE129      0.2264
     82  O        -37.8210  -35.7440   12.8080 O.2   129  PHE129     -0.2867
     83  CB       -38.0800  -32.4760   13.5820 C.3   129  PHE129      0.0534
     84  CG       -37.9660  -33.2470   14.8580 C.ar  129  PHE129     -0.0203
     85  CD1      -36.7340  -33.3400   15.4920 C.ar  129  PHE129     -0.0042
     86  CD2      -39.0380  -34.0080   15.3470 C.ar  129  PHE129     -0.0042
     87  CE1      -36.6210  -34.0730   16.6710 C.ar  129  PHE129     -0.0003
     88  CE2      -38.9230  -34.7920   16.5060 C.ar  129  PHE129     -0.0003
     89  CZ       -37.6790  -34.8130   17.1620 C.ar  129  PHE129     -0.0000
     90  N        -36.3410  -38.2800   12.7700 N.3   133  ALA133     -0.1245
     91  CA       -36.4450  -39.0370   14.0590 C.3   133  ALA133      0.1562
     92  C        -36.5670  -40.5660   13.7810 C.2   133  ALA133      0.2260
     93  O        -36.3690  -41.3770   14.6980 O.2   133  ALA133     -0.2867
     94  CB       -37.5610  -38.5370   14.8400 C.3   133  ALA133      0.0290
     95  N        -31.0300  -37.7780   14.2650 N.3   139  LEU139     -0.1245
     96  CA       -30.9880  -36.8370   15.4330 C.3   139  LEU139      0.1561
     97  C        -29.6680  -36.7580   16.1130 C.2   139  LEU139      0.2260
     98  O        -28.8570  -37.6920   16.1420 O.2   139  LEU139     -0.2867
     99  CB       -32.0400  -37.1990   16.5200 C.3   139  LEU139      0.0270
    100  CG       -33.4800  -37.3910   15.9690 C.3   139  LEU139      0.0019
    101  CD1      -34.4100  -37.7470   17.1130 C.3   139  LEU139      0.0001
    102  CD2      -34.0470  -36.0910   15.2600 C.3   139  LEU139      0.0001
    103  N        -28.2810  -35.2720   20.0150 N.3   141  VAL141     -0.1245
    104  CA       -28.7920  -34.7090   21.2630 C.3   141  VAL141      0.1561
    105  C        -27.6170  -34.4080   22.1150 C.2   141  VAL141      0.2260
    106  O        -26.7940  -35.3340   22.3620 O.2   141  VAL141     -0.2867
    107  CB       -29.7840  -35.5950   22.0060 C.3   141  VAL141      0.0252
    108  CG1      -30.2990  -34.8500   23.2080 C.3   141  VAL141      0.0019
    109  CG2      -31.0420  -35.8660   21.1170 C.3   141  VAL141      0.0019
    110  N        -34.0930  -41.9140   21.5360 N.3   196  LEU196     -0.1231
    111  CA       -34.9080  -40.9710   22.3230 C.3   196  LEU196      0.1693
    112  C        -35.0330  -41.6450   23.7050 C.2   196  LEU196      0.2593
    113  O        -35.1950  -42.8550   23.8130 O.2   196  LEU196     -0.2718
    114  CB       -36.3050  -40.8300   21.7500 C.3   196  LEU196      0.0284
    115  CG       -36.3290  -40.2370   20.3380 C.3   196  LEU196      0.0019
    116  CD1      -37.8400  -40.3110   19.9560 C.3   196  LEU196      0.0001
    117  CD2      -35.7960  -38.8610   20.2780 C.3   196  LEU196      0.0001
    118  N        -35.1100  -40.8430   24.7570 N.am  197  THR197     -0.1939
    119  CA       -35.2980  -41.4440   26.1000 C.3   197  THR197      0.2028
    120  C        -36.7390  -41.3600   26.5340 C.2   197  THR197      0.2642
    121  O        -37.0400  -41.7370   27.6900 O.2   197  THR197     -0.2714
    122  CB       -34.3840  -40.9060   27.1930 C.3   197  THR197      0.1808
    123  OG1      -34.8210  -39.5500   27.5040 O.3   197  THR197     -0.2208
    124  CG2      -32.9380  -40.8710   26.7480 C.3   197  THR197      0.0379
    125  N        -37.6240  -40.9590   25.6260 N.am  198  VAL198     -0.1963
    126  CA       -39.0650  -41.0370   25.8540 C.3   198  VAL198      0.1712
    127  C        -39.7280  -41.7500   24.6920 C.2   198  VAL198      0.2458
    128  O        -39.1210  -41.8090   23.6560 O.2   198  VAL198     -0.2730
    129  CB       -39.7040  -39.6150   25.9280 C.3   198  VAL198      0.0289
    130  CG1      -39.2920  -38.9160   27.2380 C.3   198  VAL198      0.0023
    131  CG2      -39.3490  -38.7910   24.7100 C.3   198  VAL198      0.0023
    132  N        -40.8640  -42.4030   24.9360 N.am  199  PRO199     -0.2716
    133  CA       -41.6100  -42.9090   23.7830 C.3   199  PRO199      0.1521
    134  C        -41.7220  -41.8560   22.7310 C.2   199  PRO199      0.2440
    135  O        -41.9970  -40.6920   23.0040 O.2   199  PRO199     -0.2731
    136  CB       -42.9880  -43.2890   24.4090 C.3   199  PRO199      0.0310
    137  CG       -42.5800  -43.7050   25.8130 C.3   199  PRO199      0.0237
    138  CD       -41.6270  -42.5580   26.2000 C.3   199  PRO199      0.0939
    139  N        -41.4990  -42.2430   21.4610 N.am  200  PRO200     -0.2727
    140  CA       -41.4380  -43.6180   20.9810 C.3   200  PRO200      0.1402
    141  C        -40.0820  -44.3430   21.0330 C.2   200  PRO200      0.2269
    142  O        -39.9200  -45.4560   20.4860 O.2   200  PRO200     -0.2865
    143  CB       -41.9320  -43.4430   19.4960 C.3   200  PRO200      0.0296
    144  CG       -41.4600  -42.0990   19.0850 C.3   200  PRO200      0.0237
    145  CD       -41.5140  -41.2330   20.3480 C.3   200  PRO200      0.0939
    146  N        -37.2350  -44.0850   19.6670 N.3   202  LEU202     -0.1245
    147  CA       -36.6040  -44.3870   18.3720 C.3   202  LEU202      0.1561
    148  C        -35.1190  -44.3580   18.4060 C.2   202  LEU202      0.2260
    149  O        -34.5440  -43.4710   19.0310 O.2   202  LEU202     -0.2867
    150  CB       -37.0870  -43.3810   17.3160 C.3   202  LEU202      0.0270
    151  CG       -38.6030  -43.4700   17.1470 C.3   202  LEU202      0.0019
    152  CD1      -39.0480  -42.2330   16.3440 C.3   202  LEU202      0.0001
    153  CD2      -39.0220  -44.7670   16.4280 C.3   202  LEU202      0.0001
    154  N        -25.7450  -39.4710   20.4860 N.3   207  TRP207     -0.1241
    155  CA       -25.6690  -38.7410   21.7860 C.3   207  TRP207      0.1605
    156  C        -24.3630  -38.1220   21.9480 C.2   207  TRP207      0.2264
    157  O        -23.3370  -38.6970   21.5860 O.2   207  TRP207     -0.2867
    158  CB       -25.8650  -39.7450   22.9320 C.3   207  TRP207      0.0550
    159  CG       -27.2710  -39.9160   23.1510 C.ar  207  TRP207      0.0003
    160  CD1      -28.1390  -40.8850   22.6110 C.ar  207  TRP207      0.0946
    161  CD2      -28.1600  -39.0030   23.9030 C.ar  207  TRP207      0.0152
    162  NE1      -29.4210  -40.6780   23.0090 N.ar  207  TRP207     -0.2442
    163  CE2      -29.5100  -39.5750   23.8320 C.ar  207  TRP207      0.0810
    164  CE3      -27.9330  -37.8590   24.6930 C.ar  207  TRP207      0.0012
    165  CZ2      -30.6190  -38.9350   24.4100 C.ar  207  TRP207      0.0191
    166  CZ3      -29.0340  -37.2560   25.2620 C.ar  207  TRP207      0.0001
    167  CH2      -30.3410  -37.7770   25.1570 C.ar  207  TRP207      0.0015
@<TRIPOS>BOND
     1    79    80    1
     2    80    81    1
     3    80    83    1
     4    81    82    2
     5    90    91    1
     6    83    84    1
     7    92    91    1
     8    92    93    2
     9    91    94    1
    10    95    96    1
    11    84    86   ar
    12    84    85   ar
    13   102   100    1
    14    86    88   ar
    15    96    97    1
    16    96    99    1
    17    85    87   ar
    18   100    99    1
    19   100   101    1
    20    97    98    2
    21   152   151    1
    22   153   151    1
    23    88    89   ar
    24    87    89   ar
    25   151   150    1
    26   150   147    1
    27   147   148    1
    28   147   146    1
    29   148   149    2
    30    75    74    2
    31   144   143    1
    32   144   145    1
    33    74    73    1
    34    77    76    1
    35   143   140    1
    36   116   115    1
    37    33    34    1
    38   103   104    1
    39   117   115    1
    40   115   114    1
    41   145   139    1
    42    73    76    1
    43    73    72    1
    44   154   155    1
    45   142   141    2
    46    76    78    1
    47   140   141    1
    48   140   139    1
    49   109   107    1
    50   104   107    1
    51   104   105    1
    52    34    37    1
    53    34    35    1
    54    37    38    1
    55   139   134   am
    56   110   111    1
    57   157   156    2
    58   114   111    1
    59   155   156    1
    60   155   158    1
    61   107   108    1
    62   105   106    2
    63    41    39   am
    64    36    35    2
    65   111   112    1
    66    38    39    1
    67   160   162   ar
    68   160   159   ar
    69    39    40    2
    70   134   135    2
    71   134   133    1
    72   158   159    1
    73   162   163   ar
    74   159   161   ar
    75   128   127    2
    76   112   113    2
    77   112   118   am
    78   133   136    1
    79   133   132    1
    80   163   161   ar
    81   163   165   ar
    82   161   164   ar
    83   136   137    1
    84   165   167   ar
    85    32    30   am
    86   127   132   am
    87   127   126    1
    88   164   166   ar
    89   131   129    1
    90   118   119    1
    91    29    30    1
    92    29    26    1
    93   132   138    1
    94   167   166   ar
    95    30    31    2
    96    28    27    2
    97     9     7   ar
    98     9    10   ar
    99    50    48   ar
   100    50    51   ar
   101    64    65    2
   102    64    63    1
   103    27    26    1
   104    48    47   ar
   105   125   126    1
   106   125   120   am
   107   137   138    1
   108     7     6   ar
   109   126   129    1
   110   129   130    1
   111    26    25    1
   112   119   120    1
   113   119   122    1
   114    66    63    1
   115    66    67    1
   116    10    12   ar
   117    10     8   ar
   118    12    14   ar
   119   120   121    2
   120    63    62    1
   121    42    43    1
   122    51    49   ar
   123   124   122    1
   124    47    46    1
   125    47    49   ar
   126    67    68   ar
   127    67    69   ar
   128     6     8   ar
   129     6     5    1
   130    23    21   ar
   131    23    24   ar
   132   122   123    1
   133    46    43    1
   134    68    70   ar
   135    21    20   ar
   136     8    11   ar
   137    14    13   ar
   138    69    71   ar
   139    43    44    1
   140     5     2    1
   141    70    71   ar
   142     1     2    1
   143    24    22   ar
   144    13    11   ar
   145    20    22   ar
   146    20    19    1
   147    45    44    2
   148     2     3    1
   149    61    60   ar
   150    61    59   ar
   151    19    16    1
   152     4     3    2
   153    60    58   ar
   154    59    57   ar
   155    15    16    1
   156    16    17    1
   157    17    18    2
   158    58    57   ar
   159    57    56    1
   160    52    53    1
   161    56    53    1
   162    53    54    1
   163    54    55    2
