@<TRIPOS>MOLECULE
tmp/5llpA00.pdb
 203 197 0 0 0
SMALL
GASTEIGER

@<TRIPOS>ATOM
      1  N         17.0050   14.2190   17.1050 N.3     2  TRP2       -0.1241
      2  CA        16.1650   13.1110   16.6350 C.3     2  TRP2        0.1605
      3  C         16.1980   11.9300   17.5780 C.2     2  TRP2        0.2264
      4  O         17.1620   11.6970   18.3580 O.2     2  TRP2       -0.2867
      5  CB        16.6350   12.6610   15.2960 C.3     2  TRP2        0.0550
      6  CG        17.9860   12.0110   15.2530 C.ar    2  TRP2        0.0003
      7  CD1       19.1780   12.6060   15.0000 C.ar    2  TRP2        0.0946
      8  CD2       18.2980   10.5750   15.3420 C.ar    2  TRP2        0.0152
      9  NE1       20.2010   11.7220   14.9760 N.ar    2  TRP2       -0.2442
     10  CE2       19.7260   10.4170   15.2030 C.ar    2  TRP2        0.0810
     11  CE3       17.5130    9.4500   15.5910 C.ar    2  TRP2        0.0012
     12  CZ2       20.3580    9.1350   15.2160 C.ar    2  TRP2        0.0191
     13  CZ3       18.1530    8.1780   15.5990 C.ar    2  TRP2        0.0001
     14  CH2       19.5450    8.0290   15.4450 C.ar    2  TRP2        0.0015
     15  N         13.9070    7.7700   18.3410 N.3     4  TYR4       -0.1241
     16  CA        13.0920    6.7330   17.7510 C.3     4  TYR4        0.1605
     17  C         11.6620    6.6670   18.2470 C.2     4  TYR4        0.2264
     18  O         10.8580    5.7300   18.0030 O.2     4  TYR4       -0.2867
     19  CB        13.7280    5.3460   17.9820 C.3     4  TYR4        0.0534
     20  CG        15.0020    5.1160   17.2260 C.ar    4  TYR4       -0.0201
     21  CD1       16.2290    5.3650   17.8300 C.ar    4  TYR4       -0.0009
     22  CD2       14.9770    4.5830   15.9400 C.ar    4  TYR4       -0.0009
     23  CE1       17.4050    5.0530   17.2160 C.ar    4  TYR4        0.0417
     24  CE2       16.1310    4.2850   15.2560 C.ar    4  TYR4        0.0417
     25  CZ        17.3210    4.4960   15.9060 C.ar    4  TYR4        0.1957
     26  OH        18.4190    4.1600   15.2140 O.3     4  TYR4       -0.2866
     27  N         26.1280    7.0210   22.5580 N.3    62  ASN62      -0.1240
     28  CA        25.9050    8.3410   21.9440 C.3    62  ASN62       0.1653
     29  C         24.4620    8.8110   22.0210 C.2    62  ASN62       0.2266
     30  O         24.0460    9.7250   21.3090 O.2    62  ASN62      -0.2867
     31  CB        26.3510    8.3500   20.4450 C.3    62  ASN62       0.1155
     32  CG        25.6150    7.3090   19.5780 C.2    62  ASN62       0.2627
     33  OD1       24.4900    6.8400   19.8870 O.2    62  ASN62      -0.2716
     34  ND2       26.2750    6.9390   18.4490 N.am   62  ASN62      -0.0877
     35  N         21.8370    7.2340   20.8930 N.3    64  HIS64      -0.1226
     36  CA        21.1190    6.4310   19.8570 C.3    64  HIS64       0.1752
     37  C         21.4240    4.9630   19.8060 C.2    64  HIS64       0.2596
     38  O         20.5080    4.1450   19.5600 O.2    64  HIS64      -0.2718
     39  CB        21.2920    7.0590   18.4880 C.3    64  HIS64       0.0759
     40  CG        21.1300    8.5690   18.4800 C.ar   64  HIS64       0.0818
     41  ND1       19.8840    9.1770   18.6040 N.ar   64  HIS64      -0.2268
     42  CD2       22.0490    9.6060   18.3200 C.ar   64  HIS64       0.1154
     43  CE1       20.0170   10.5150   18.5530 C.ar   64  HIS64       0.1986
     44  NE2       21.3520   10.7960   18.3800 N.ar   64  HIS64      -0.2212
     45  N         22.6630    4.5620   20.0890 N.am   65  SER65      -0.1952
     46  CA        22.9980    3.1630   20.2010 C.3    65  SER65       0.1924
     47  C         24.2690    3.1220   21.0420 C.2    65  SER65       0.2314
     48  O         24.6580    4.0950   21.6450 O.2    65  SER65      -0.2863
     49  CB        23.2370    2.6110   18.7720 C.3    65  SER65       0.2116
     50  OG        23.5980    1.2190   18.7400 O.3    65  SER65      -0.2180
     51  N         28.1980    2.4640   20.3730 N.3    67  LYS67      -0.1245
     52  CA        29.1740    2.2350   19.2460 C.3    67  LYS67       0.1561
     53  C         30.5850    1.8860   19.7130 C.2    67  LYS67       0.2260
     54  O         31.0270    2.5170   20.6790 O.2    67  LYS67      -0.2867
     55  CB        29.1150    3.3540   18.2250 C.3    67  LYS67       0.0271
     56  CG        29.7270    4.6400   18.6100 C.3    67  LYS67       0.0035
     57  CD        30.0150    5.5120   17.4050 C.3    67  LYS67       0.0206
     58  CE        30.3650    6.9550   17.8490 C.3    67  LYS67       0.1093
     59  NZ        29.2510    7.9900   17.8270 N.3    67  LYS67      -0.1314
     60  N         35.0460    1.6800   10.4160 N.3    86  THR86      -0.1203
     61  CA        34.9920    2.8870   11.2520 C.3    86  THR86       0.1994
     62  C         34.3570    2.6240   12.6210 C.2    86  THR86       0.2617
     63  O         34.8270    3.1300   13.6190 O.2    86  THR86      -0.2717
     64  CB        34.4610    4.1390   10.5290 C.3    86  THR86       0.1784
     65  OG1       34.4840    5.2930   11.3680 O.3    86  THR86      -0.2211
     66  CG2       33.0450    3.9760   10.0860 C.3    86  THR86       0.0376
     67  N         33.3130    1.7970   12.6850 N.am   87  GLN87      -0.1979
     68  CA        32.6260    1.5620   13.9710 C.3    87  GLN87       0.1601
     69  C         31.6710    0.4140   13.7590 C.2    87  GLN87       0.2287
     70  O         31.2720    0.0690   12.6450 O.2    87  GLN87      -0.2864
     71  CB        31.8520    2.7960   14.4950 C.3    87  GLN87       0.0394
     72  CG        30.8740    3.4380   13.5250 C.3    87  GLN87       0.0908
     73  CD        29.4550    3.1400   13.9560 C.2    87  GLN87       0.2608
     74  OE1       29.1230    2.0380   14.2310 O.2    87  GLN87      -0.2717
     75  NE2       28.6360    4.1110   13.9310 N.am   87  GLN87      -0.0878
     76  N         27.9460   -1.1070   15.8530 N.3    89  HIS89      -0.1241
     77  CA        26.8700   -0.7490   16.8280 C.3    89  HIS89       0.1621
     78  C         25.7350   -1.7420   16.6220 C.2    89  HIS89       0.2264
     79  O         25.7530   -2.5740   15.7120 O.2    89  HIS89      -0.2867
     80  CB        26.3550    0.6740   16.5920 C.3    89  HIS89       0.0745
     81  CG        25.7850    0.8550   15.2300 C.ar   89  HIS89       0.0817
     82  ND1       26.5400    1.2610   14.1500 N.ar   89  HIS89      -0.2268
     83  CD2       24.5080    0.5580   14.7610 C.ar   89  HIS89       0.1154
     84  CE1       25.7630    1.2420   13.0090 C.ar   89  HIS89       0.1986
     85  NE2       24.5260    0.7550   13.4040 N.ar   89  HIS89      -0.2212
     86  N         21.2500   -2.6320   17.0910 N.3    91  HIS91      -0.1241
     87  CA        19.8200   -2.1990   17.1750 C.3    91  HIS91       0.1621
     88  C         19.0710   -3.2890   17.8560 C.2    91  HIS91       0.2264
     89  O         19.3040   -4.4890   17.5940 O.2    91  HIS91      -0.2867
     90  CB        19.2670   -2.0310   15.7720 C.3    91  HIS91       0.0745
     91  CG        20.0310   -1.0170   14.9690 C.ar   91  HIS91       0.0817
     92  ND1       19.7390    0.3370   14.9370 N.ar   91  HIS91      -0.2268
     93  CD2       21.1300   -1.1970   14.1680 C.ar   91  HIS91       0.1154
     94  CE1       20.6360    0.9900   14.1490 C.ar   91  HIS91       0.1986
     95  NE2       21.4690    0.0540   13.6340 N.ar   91  HIS91      -0.2212
     96  N         16.6420   -4.3750   12.3370 N.3   102  GLU102     -0.1245
     97  CA        16.2090   -3.3810   11.2890 C.3   102  GLU102      0.1567
     98  C         15.6900   -4.0780   10.0700 C.2   102  GLU102      0.2260
     99  O         14.5290   -3.8790    9.6370 O.2   102  GLU102     -0.2867
    100  CB        17.3530   -2.4110   10.9560 C.3   102  GLU102      0.0388
    101  CG        17.8670   -1.7340   12.2190 C.3   102  GLU102      0.1160
    102  CD        18.2370   -0.3460   11.8920 C.2   102  GLU102      0.3649
    103  OE1       19.2990   -0.1510   11.2610 O.co2 102  GLU102     -0.2457
    104  OE2       17.4670    0.6140   12.1800 O.co2 102  GLU102     -0.2457
    105  N         25.6260   -4.0040   13.1650 N.3   115  HIS115     -0.1241
    106  CA        26.1250   -3.3490   11.9740 C.3   115  HIS115      0.1621
    107  C         27.5750   -2.9340   12.1150 C.2   115  HIS115      0.2264
    108  O         27.9760   -2.3700   13.1020 O.2   115  HIS115     -0.2867
    109  CB        25.3690   -2.0680   11.7450 C.3   115  HIS115      0.0745
    110  CG        23.9840   -2.2990   11.3250 C.ar  115  HIS115      0.0817
    111  ND1       23.0300   -1.3470   11.4350 N.ar  115  HIS115     -0.2268
    112  CD2       23.4550   -3.4060   10.7170 C.ar  115  HIS115      0.1154
    113  CE1       21.8790   -1.9110   10.9220 C.ar  115  HIS115      0.1986
    114  NE2       22.0870   -3.1640   10.5170 N.ar  115  HIS115     -0.2212
    115  N         30.1680   -0.7900   10.2850 N.3   117  VAL117     -0.1245
    116  CA        30.1920    0.3030    9.2680 C.3   117  VAL117      0.1561
    117  C         31.6020    0.4350    8.6780 C.2   117  VAL117      0.2260
    118  O         32.5260    0.5580    9.4830 O.2   117  VAL117     -0.2867
    119  CB        29.7530    1.6130    9.8780 C.3   117  VAL117      0.0252
    120  CG1       29.6480    2.6670    8.7980 C.3   117  VAL117      0.0019
    121  CG2       28.3730    1.4270   10.5710 C.3   117  VAL117      0.0019
    122  N         35.5200    8.4630    7.2260 N.3   127  ALA127     -0.1231
    123  CA        34.1540    8.0160    7.1440 C.3   127  ALA127      0.1694
    124  C         33.1670    9.1650    7.0340 C.2   127  ALA127      0.2592
    125  O         32.2260    9.0980    6.2350 O.2   127  ALA127     -0.2718
    126  CB        33.8310    7.1710    8.3570 C.3   127  ALA127      0.0304
    127  N         33.3430   10.2180    7.8030 N.am  128  SER128     -0.1952
    128  CA        32.4040   11.3630    7.7000 C.3   128  SER128      0.1924
    129  C         32.3820   11.8840    6.2610 C.2   128  SER128      0.2314
    130  O         31.3750   11.9900    5.5710 O.2   128  SER128     -0.2863
    131  CB        32.8680   12.4650    8.6580 C.3   128  SER128      0.2116
    132  OG        32.1490   13.6600    8.4710 O.3   128  SER128     -0.2180
    133  N         30.4980    9.6940    3.9060 N.3   131  SER131     -0.1217
    134  CA        29.1190    9.3020    4.2710 C.3   131  SER131      0.1889
    135  C         28.0440    9.9170    3.3580 C.2   131  SER131      0.2288
    136  O         26.9340    9.3140    3.2130 O.2   131  SER131     -0.2866
    137  CB        28.8830    9.6260    5.7050 C.3   131  SER131      0.2089
    138  OG        28.8310   11.0550    5.9050 O.3   131  SER131     -0.2183
    139  N         29.9330    4.2660    1.5910 N.3   137  LEU137     -0.1245
    140  CA        29.8970    3.3960    2.7600 C.3   137  LEU137      0.1561
    141  C         29.4920    1.9410    2.3930 C.2   137  LEU137      0.2260
    142  O         28.8350    1.6340    1.4030 O.2   137  LEU137     -0.2867
    143  CB        28.8870    3.8640    3.8060 C.3   137  LEU137      0.0270
    144  CG        29.0790    5.3330    4.3070 C.3   137  LEU137      0.0019
    145  CD1       27.8260    5.7530    5.1380 C.3   137  LEU137      0.0001
    146  CD2       30.4090    5.4500    5.0840 C.3   137  LEU137      0.0001
    147  N         28.0810   -1.4680    4.8330 N.3   139  VAL139     -0.1245
    148  CA        27.7640   -1.9030    6.1630 C.3   139  VAL139      0.1561
    149  C         27.5070   -3.3930    6.0950 C.2   139  VAL139      0.2260
    150  O         26.8120   -3.8810    5.1760 O.2   139  VAL139     -0.2867
    151  CB        26.5230   -1.1910    6.7030 C.3   139  VAL139      0.0252
    152  CG1       26.2520   -1.7110    8.1480 C.3   139  VAL139      0.0019
    153  CG2       26.8120    0.3490    6.7090 C.3   139  VAL139      0.0019
    154  N         21.9150    4.8600    5.0050 N.3   195  LEU195     -0.1231
    155  CA        21.9690    4.8760    6.4410 C.3   195  LEU195      0.1693
    156  C         20.5650    4.6470    7.0100 C.2   195  LEU195      0.2593
    157  O         19.5760    5.2280    6.4550 O.2   195  LEU195     -0.2718
    158  CB        22.5780    6.1880    7.0470 C.3   195  LEU195      0.0284
    159  CG        24.0080    6.4160    6.5750 C.3   195  LEU195      0.0019
    160  CD1       24.3230    7.7940    7.1330 C.3   195  LEU195      0.0001
    161  CD2       24.9210    5.4090    7.1360 C.3   195  LEU195      0.0001
    162  N         20.4440    3.9690    8.1610 N.am  196  THR196     -0.1939
    163  CA        19.1370    3.7970    8.7790 C.3   196  THR196      0.2028
    164  C         18.8310    4.8030    9.8640 C.2   196  THR196      0.2643
    165  O         17.8000    4.7240   10.5410 O.2   196  THR196     -0.2714
    166  CB        18.9170    2.3700    9.3350 C.3   196  THR196      0.1808
    167  OG1       19.8560    2.1870   10.4300 O.3   196  THR196     -0.2208
    168  CG2       19.0720    1.3030    8.2740 C.3   196  THR196      0.0379
    169  N         19.7670    5.7610   10.0840 N.am  197  THR197     -0.1937
    170  CA        19.5850    6.8730   10.9550 C.3   197  THR197      0.2013
    171  C         19.8950    8.1410   10.1670 C.2   197  THR197      0.2484
    172  O         20.5680    8.0550    9.1690 O.2   197  THR197     -0.2729
    173  CB        20.5630    6.9120   12.1500 C.3   197  THR197      0.1807
    174  OG1       21.9370    6.9100   11.6730 O.3   197  THR197     -0.2208
    175  CG2       20.3360    5.6220   12.9920 C.3   197  THR197      0.0379
    176  N         19.4000    9.2590   10.7140 N.am  198  PRO198     -0.2715
    177  CA        19.8440   10.5070   10.1240 C.3   198  PRO198      0.1521
    178  C         21.3830   10.5730    9.9880 C.2   198  PRO198      0.2440
    179  O         22.0480   10.0920   10.9110 O.2   198  PRO198     -0.2731
    180  CB        19.3230   11.5250   11.0910 C.3   198  PRO198      0.0310
    181  CG        18.0150   10.9130   11.6830 C.3   198  PRO198      0.0237
    182  CD        18.4320    9.4310   11.8140 C.3   198  PRO198      0.0939
    183  N         21.8200   11.1490    8.9060 N.am  199  PRO199     -0.2727
    184  CA        21.0390   11.8740    7.8460 C.3   199  PRO199      0.1402
    185  C         20.4520   11.0200    6.7490 C.2   199  PRO199      0.2269
    186  O         19.9950   11.5100    5.7010 O.2   199  PRO199     -0.2865
    187  CB        22.0730   12.8320    7.1820 C.3   199  PRO199      0.0296
    188  CG        23.2770   12.7640    8.0700 C.3   199  PRO199      0.0237
    189  CD        23.2780   11.3670    8.6900 C.3   199  PRO199      0.0939
    190  N         24.8000   -2.4440    1.2710 N.3   206  TRP206     -0.1241
    191  CA        24.4430   -3.3560    2.3790 C.3   206  TRP206      0.1605
    192  C         24.7940   -4.7550    2.0830 C.2   206  TRP206      0.2264
    193  O         24.5340   -5.2460    0.9780 O.2   206  TRP206     -0.2867
    194  CB        22.8960   -3.2950    2.6190 C.3   206  TRP206      0.0550
    195  CG        22.5630   -2.1160    3.4410 C.ar  206  TRP206      0.0003
    196  CD1       22.0990   -0.8530    2.9710 C.ar  206  TRP206      0.0946
    197  CD2       22.6520   -1.9560    4.8440 C.ar  206  TRP206      0.0152
    198  NE1       21.8990    0.0030    3.9690 N.ar  206  TRP206     -0.2442
    199  CE2       22.2630   -0.5950    5.1970 C.ar  206  TRP206      0.0810
    200  CE3       23.0530   -2.7870    5.8750 C.ar  206  TRP206      0.0012
    201  CZ2       22.2680   -0.1210    6.5280 C.ar  206  TRP206      0.0191
    202  CZ3       23.0360   -2.3350    7.1660 C.ar  206  TRP206      0.0001
    203  CH2       22.6570   -1.0250    7.5060 C.ar  206  TRP206      0.0015
@<TRIPOS>BOND
     1   193   192    2
     2   190   191    1
     3   142   141    2
     4   139   140    1
     5   192   191    1
     6   191   194    1
     7   141   140    1
     8   194   195    1
     9   140   143    1
    10   196   195   ar
    11   196   198   ar
    12   136   135    2
    13   135   134    1
    14   195   197   ar
    15   143   144    1
    16   133   134    1
    17   198   199   ar
    18   134   137    1
    19   144   146    1
    20   144   145    1
    21   147   148    1
    22   197   199   ar
    23   197   200   ar
    24   154   155    1
    25   150   149    2
    26   199   201   ar
    27   130   129    2
    28   186   185    2
    29   137   138    1
    30   200   202   ar
    31   149   148    1
    32   148   151    1
    33   125   124    2
    34   129   128    1
    35   155   156    1
    36   155   158    1
    37   157   156    2
    38   201   203   ar
    39   159   158    1
    40   159   160    1
    41   159   161    1
    42   151   153    1
    43   151   152    1
    44   185   184    1
    45   156   162   am
    46   124   123    1
    47   124   127   am
    48   123   122    1
    49   123   126    1
    50   202   203   ar
    51   187   184    1
    52   187   188    1
    53   128   127    1
    54   128   131    1
    55   184   183    1
    56   188   189    1
    57   162   163    1
    58   168   166    1
    59   132   131    1
    60   117   116    1
    61   117   118    2
    62   189   183    1
    63   163   166    1
    64   163   164    1
    65   120   119    1
    66   183   178   am
    67   172   171    2
    68   116   119    1
    69   116   115    1
    70   166   167    1
    71    99    98    2
    72   164   169   am
    73   164   165    2
    74   119   121    1
    75   178   177    1
    76   178   179    2
    77    98    97    1
    78   169   170    1
    79    66    64    1
    80   177   176    1
    81   177   180    1
    82   171   176   am
    83   171   170    1
    84    60    61    1
    85   114   112   ar
    86   114   113   ar
    87    64    61    1
    88    64    65    1
    89   176   182    1
    90   112   110   ar
    91   113   111   ar
    92   170   173    1
    93   100    97    1
    94   100   101    1
    95   180   181    1
    96    61    62    1
    97   103   102   ar
    98    97    96    1
    99   110   111   ar
   100   110   109    1
   101   174   173    1
   102   181   182    1
   103   109   106    1
   104   102   104   ar
   105   102   101    1
   106   106   107    1
   107   106   105    1
   108   107   108    2
   109   173   175    1
   110    62    67   am
   111    62    63    2
   112    70    69    2
   113    67    68    1
   114    84    85   ar
   115    84    82   ar
   116    85    83   ar
   117    72    73    1
   118    72    71    1
   119    95    94   ar
   120    95    93   ar
   121    69    68    1
   122    75    73   am
   123    73    74    2
   124    68    71    1
   125    94    92   ar
   126    82    81   ar
   127    93    91   ar
   128    83    81   ar
   129    92    91   ar
   130    91    90    1
   131     9     7   ar
   132     9    10   ar
   133     7     6   ar
   134    10    12   ar
   135    10     8   ar
   136    26    25    1
   137    12    14   ar
   138    81    80    1
   139     6     5    1
   140     6     8   ar
   141    24    25   ar
   142    24    22   ar
   143     5     2    1
   144     8    11   ar
   145    14    13   ar
   146    11    13   ar
   147    79    78    2
   148    90    87    1
   149    76    77    1
   150    25    23   ar
   151    22    20   ar
   152    80    77    1
   153    78    77    1
   154     2     1    1
   155     2     3    1
   156    86    87    1
   157    87    88    1
   158    23    21   ar
   159    20    21   ar
   160    20    19    1
   161    57    58    1
   162    57    56    1
   163     3     4    2
   164    89    88    2
   165    16    19    1
   166    16    17    1
   167    16    15    1
   168    59    58    1
   169    18    17    2
   170    55    56    1
   171    55    52    1
   172    42    44   ar
   173    42    40   ar
   174    44    43   ar
   175    34    32   am
   176    40    39    1
   177    40    41   ar
   178    39    36    1
   179    43    41   ar
   180    50    49    1
   181    49    46    1
   182    52    53    1
   183    52    51    1
   184    38    37    2
   185    32    33    2
   186    32    31    1
   187    53    54    2
   188    37    36    1
   189    37    45   am
   190    36    35    1
   191    45    46    1
   192    46    47    1
   193    31    28    1
   194    47    48    2
   195    30    29    2
   196    28    29    1
   197    28    27    1
