@<TRIPOS>MOLECULE
tmp/5llxA01.pdb
 139 131 0 0 0
SMALL
GASTEIGER

@<TRIPOS>ATOM
      1  N         19.2520  -12.7840  564.9210 N.3   516  LEU516     -0.1245
      2  CA        20.4590  -13.2050  565.6290 C.3   516  LEU516      0.1561
      3  C         20.5610  -14.7210  565.7080 C.2   516  LEU516      0.2260
      4  O         21.6500  -15.2860  565.5500 O.2   516  LEU516     -0.2867
      5  CB        20.4860  -12.5940  567.0330 C.3   516  LEU516      0.0270
      6  CG        21.6350  -12.9720  567.9770 C.3   516  LEU516      0.0019
      7  CD1       21.9860  -11.7820  568.8540 C.3   516  LEU516      0.0001
      8  CD2       21.3030  -14.1780  568.8510 C.3   516  LEU516      0.0001
      9  N         14.6200  -21.1420  579.7340 N.3   549  ASP549     -0.1225
     10  CA        15.2310  -19.8370  579.9390 C.3   549  ASP549      0.1805
     11  C         16.6750  -20.0190  580.3960 C.2   549  ASP549      0.2598
     12  O         17.0240  -21.0310  581.0100 O.2   549  ASP549     -0.2718
     13  CB        14.4230  -19.0290  580.9630 C.3   549  ASP549      0.1424
     14  CG        14.9720  -17.6440  581.1790 C.2   549  ASP549      0.3668
     15  OD1       16.0440  -17.5240  581.8050 O.co2 549  ASP549     -0.2456
     16  OD2       14.3280  -16.6740  580.7220 O.co2 549  ASP549     -0.2456
     17  N         17.5130  -19.0250  580.1030 N.am  550  LEU550     -0.1966
     18  CA        18.9250  -19.0750  580.4660 C.3   550  LEU550      0.1728
     19  C         19.1950  -18.5660  581.8800 C.2   550  LEU550      0.2616
     20  O         18.6300  -17.5670  582.3370 O.2   550  LEU550     -0.2715
     21  CB        19.7740  -18.2980  579.4590 C.3   550  LEU550      0.0311
     22  CG        20.3420  -19.1770  578.3360 C.3   550  LEU550      0.0022
     23  CD1       19.2570  -19.6060  577.3620 C.3   550  LEU550      0.0001
     24  CD2       21.4880  -18.5010  577.6050 C.3   550  LEU550      0.0001
     25  N         20.0830  -19.2700  582.5740 N.am  551  ASP551     -0.1957
     26  CA        20.2930  -19.0620  583.9970 C.3   551  ASP551      0.1840
     27  C         21.3910  -18.0340  584.2540 C.2   551  ASP551      0.2622
     28  O         22.5020  -18.1660  583.7300 O.2   551  ASP551     -0.2715
     29  CB        20.6650  -20.3920  584.6440 C.3   551  ASP551      0.1450
     30  CG        19.5250  -21.3800  584.6150 C.2   551  ASP551      0.3671
     31  OD1       18.3540  -20.9480  584.7110 O.co2 551  ASP551     -0.2456
     32  OD2       19.7980  -22.5900  584.4840 O.co2 551  ASP551     -0.2456
     33  N         21.0740  -17.0120  585.0580 N.am  552  LYS552     -0.1963
     34  CA        22.0350  -15.9730  585.4580 C.3   552  LYS552      0.1728
     35  C         22.7860  -15.3920  584.2590 C.2   552  LYS552      0.2616
     36  O         23.9920  -15.1390  584.3120 O.2   552  LYS552     -0.2715
     37  CB        23.0050  -16.4990  586.5200 C.3   552  LYS552      0.0311
     38  CG        22.3300  -16.7740  587.8610 C.3   552  LYS552      0.0038
     39  CD        23.2590  -17.4510  588.8560 C.3   552  LYS552      0.0206
     40  CE        24.5040  -16.6090  589.0970 C.3   552  LYS552      0.1093
     41  NZ        25.4510  -17.2660  590.0380 N.3   552  LYS552     -0.1314
     42  N         22.0550  -15.1720  583.1660 N.am  553  PHE553     -0.1960
     43  CA        22.6730  -14.7290  581.9200 C.3   553  PHE553      0.1771
     44  C         23.1970  -13.2980  582.0230 C.2   553  PHE553      0.2619
     45  O         24.1920  -12.9510  581.3690 O.2   553  PHE553     -0.2715
     46  CB        21.6580  -14.8760  580.7890 C.3   553  PHE553      0.0574
     47  CG        22.2310  -14.6960  579.4150 C.ar  553  PHE553     -0.0200
     48  CD1       23.0670  -15.6610  578.8780 C.ar  553  PHE553     -0.0042
     49  CD2       21.9110  -13.5920  578.6450 C.ar  553  PHE553     -0.0042
     50  CE1       23.5910  -15.5210  577.6080 C.ar  553  PHE553     -0.0003
     51  CE2       22.4340  -13.4440  577.3720 C.ar  553  PHE553     -0.0003
     52  CZ        23.2760  -14.4120  576.8540 C.ar  553  PHE553     -0.0000
     53  N         22.5400  -12.4550  582.8270 N.am  554  LYS554     -0.1977
     54  CA        23.0510  -11.1090  583.0800 C.3   554  LYS554      0.1596
     55  C         24.4820  -11.1460  583.5970 C.2   554  LYS554      0.2287
     56  O         25.2920  -10.2790  583.2560 O.2   554  LYS554     -0.2864
     57  CB        22.1460  -10.3670  584.0640 C.3   554  LYS554      0.0298
     58  CG        20.7690  -10.0600  583.5080 C.3   554  LYS554      0.0038
     59  CD        19.8560   -9.4460  584.5510 C.3   554  LYS554      0.0206
     60  CE        18.6520   -8.7960  583.8870 C.3   554  LYS554      0.1093
     61  NZ        17.7320   -8.1740  584.8760 N.3   554  LYS554     -0.1314
     62  N         26.5860  -11.3950  580.5910 N.3   557  ASN557     -0.1240
     63  CA        26.6770  -10.1270  579.8740 C.3   557  ASN557      0.1653
     64  C         27.6330   -9.1670  580.5720 C.2   557  ASN557      0.2266
     65  O         28.4910   -8.5450  579.9340 O.2   557  ASN557     -0.2867
     66  CB        25.2890   -9.4930  579.7600 C.3   557  ASN557      0.1155
     67  CG        24.5030   -9.9960  578.5630 C.2   557  ASN557      0.2627
     68  OD1       25.0530  -10.6220  577.6590 O.2   557  ASN557     -0.2716
     69  ND2       23.2030   -9.7230  578.5570 N.am  557  ASN557     -0.0877
     70  N         28.3310   -8.3960  575.7590 N.3   562  HIS562     -0.1241
     71  CA        27.1520   -8.7090  574.9550 C.3   562  HIS562      0.1621
     72  C         27.5160   -9.5960  573.7680 C.2   562  HIS562      0.2264
     73  O         26.7430  -10.4840  573.3900 O.2   562  HIS562     -0.2867
     74  CB        26.4390   -7.4310  574.5070 C.3   562  HIS562      0.0745
     75  CG        27.1130   -6.7110  573.3830 C.ar  562  HIS562      0.0817
     76  ND1       28.1770   -5.8570  573.5760 N.ar  562  HIS562     -0.2268
     77  CD2       26.8600   -6.7030  572.0520 C.ar  562  HIS562      0.1154
     78  CE1       28.5580   -5.3620  572.4120 C.ar  562  HIS562      0.1986
     79  NE2       27.7750   -5.8590  571.4710 N.ar  562  HIS562     -0.2212
     80  N         25.8950  -13.2220  573.0000 N.3   566  ASP566     -0.1239
     81  CA        25.1670  -13.5430  571.7770 C.3   566  ASP566      0.1674
     82  C         25.6940  -14.8250  571.1440 C.2   566  ASP566      0.2266
     83  O         24.9090  -15.6550  570.6600 O.2   566  ASP566     -0.2867
     84  CB        25.2670  -12.3790  570.7880 C.3   566  ASP566      0.1410
     85  CG        24.5580  -11.1290  571.2780 C.2   566  ASP566      0.3668
     86  OD1       23.8090  -11.2200  572.2710 O.co2 566  ASP566     -0.2456
     87  OD2       24.7480  -10.0550  570.6700 O.co2 566  ASP566     -0.2456
     88  N         24.1010  -17.5600  573.0100 N.3   569  LEU569     -0.1245
     89  CA        22.7460  -17.8420  572.5420 C.3   569  LEU569      0.1561
     90  C         22.7690  -18.6620  571.2560 C.2   569  LEU569      0.2260
     91  O         22.0060  -19.6280  571.1060 O.2   569  LEU569     -0.2867
     92  CB        21.9830  -16.5330  572.3370 C.3   569  LEU569      0.0270
     93  CG        21.4840  -15.8210  573.5980 C.3   569  LEU569      0.0019
     94  CD1       20.7670  -14.5330  573.2460 C.3   569  LEU569      0.0001
     95  CD2       20.5510  -16.7320  574.3710 C.3   569  LEU569      0.0001
     96  N         12.3160  -18.7780  569.2330 N.3   588  ARG588     -0.1245
     97  CA        12.7810  -17.8630  570.2620 C.3   588  ARG588      0.1563
     98  C         11.5710  -17.0720  570.7360 C.2   588  ARG588      0.2260
     99  O         10.9730  -16.3110  569.9660 O.2   588  ARG588     -0.2867
    100  CB        13.8850  -16.9510  569.7330 C.3   588  ARG588      0.0307
    101  CG        14.3270  -15.8760  570.7060 C.3   588  ARG588      0.0489
    102  CD        15.6050  -15.2220  570.2050 C.3   588  ARG588      0.2205
    103  NE        15.9860  -14.0560  570.9910 N.pl3 588  ARG588     -0.0865
    104  CZ        17.1030  -13.3630  570.7960 C.cat 588  ARG588      0.5346
    105  NH1       17.9430  -13.7250  569.8380 N.pl3 588  ARG588      0.1354
    106  NH2       17.3840  -12.3160  571.5590 N.pl3 588  ARG588      0.1354
    107  N         13.3740  -12.4980  574.3600 N.3   591  GLY591     -0.1210
    108  CA        14.6050  -12.1750  575.0410 C.3   591  GLY591      0.1956
    109  C         15.5630  -13.3370  574.9840 C.2   591  GLY591      0.2611
    110  O         16.1810  -13.6090  573.9520 O.2   591  GLY591     -0.2717
    111  N         15.7050  -14.0140  576.1130 N.am  592  GLU592     -0.1979
    112  CA        16.5780  -15.1640  576.2360 C.3   592  GLU592      0.1602
    113  C         15.8190  -16.4720  576.4230 C.2   592  GLU592      0.2287
    114  O         16.4480  -17.5310  576.5070 O.2   592  GLU592     -0.2864
    115  CB        17.5350  -14.9070  577.3960 C.3   592  GLU592      0.0415
    116  CG        16.8540  -14.8310  578.7330 C.3   592  GLU592      0.1163
    117  CD        17.8130  -15.1400  579.8360 C.2   592  GLU592      0.3649
    118  OE1       18.8010  -14.3890  579.9300 O.co2 592  GLU592     -0.2457
    119  OE2       17.6070  -16.1120  580.5850 O.co2 592  GLU592     -0.2457
    120  N         13.3930  -22.6770  588.5690 N.3   658  LYS658     -0.1245
    121  CA        14.4280  -21.7120  588.9210 C.3   658  LYS658      0.1561
    122  C         14.6800  -21.7100  590.4240 C.2   658  LYS658      0.2260
    123  O         15.8220  -21.5450  590.8690 O.2   658  LYS658     -0.2867
    124  CB        14.0220  -20.3170  588.4500 C.3   658  LYS658      0.0271
    125  CG        13.9650  -20.1510  586.9440 C.3   658  LYS658      0.0035
    126  CD        13.5660  -18.7320  586.5650 C.3   658  LYS658      0.0206
    127  CE        13.5630  -18.5410  585.0600 C.3   658  LYS658      0.1093
    128  NZ        14.9240  -18.7440  584.4940 N.3   658  LYS658     -0.1314
    129  N         18.6830  -23.8110  589.4650 N.3   662  ARG662     -0.1245
    130  CA        18.3820  -23.3310  588.1210 C.3   662  ARG662      0.1563
    131  C         18.5230  -24.3860  587.0370 C.2   662  ARG662      0.2260
    132  O         18.3060  -24.0540  585.8670 O.2   662  ARG662     -0.2867
    133  CB        19.2900  -22.1500  587.7770 C.3   662  ARG662      0.0307
    134  CG        19.3770  -21.0730  588.8430 C.3   662  ARG662      0.0489
    135  CD        18.1000  -20.2610  588.9280 C.3   662  ARG662      0.2205
    136  NE        18.3760  -18.8270  588.9800 N.pl3 662  ARG662     -0.0865
    137  CZ        17.4860  -17.9140  589.3540 C.cat 662  ARG662      0.5346
    138  NH1       16.2630  -18.2930  589.6880 N.pl3 662  ARG662      0.1354
    139  NH2       17.8080  -16.6270  589.3780 N.pl3 662  ARG662      0.1354
@<TRIPOS>BOND
     1     1     2    1
     2     4     3    2
     3     2     3    1
     4     2     5    1
     5     5     6    1
     6     6     8    1
     7     6     7    1
     8    96    97    1
     9   100    97    1
    10   100   101    1
    11   105   104    1
    12    99    98    2
    13   102   101    1
    14   102   103    1
    15    97    98    1
    16    83    82    2
    17    87    85   ar
    18    84    85    1
    19    84    81    1
    20   104   103    2
    21   104   106    1
    22    91    90    2
    23    82    81    1
    24    90    89    1
    25    85    86   ar
    26    79    77   ar
    27    79    78   ar
    28    81    80    1
    29    77    75   ar
    30    92    89    1
    31    92    93    1
    32    78    76   ar
    33    89    88    1
    34    94    93    1
    35    75    76   ar
    36    75    74    1
    37    73    72    2
    38    93    95    1
    39    72    71    1
    40   110   109    2
    41   107   108    1
    42    74    71    1
    43    71    70    1
    44   109   108    1
    45   109   111   am
    46   111   112    1
    47   112   113    1
    48   112   115    1
    49   113   114    2
    50    52    51   ar
    51    52    50   ar
    52    23    22    1
    53    51    49   ar
    54   115   116    1
    55    24    22    1
    56    50    48   ar
    57    68    67    2
    58    22    21    1
    59    69    67   am
    60    67    66    1
    61    49    47   ar
    62   116   117    1
    63    48    47   ar
    64    47    46    1
    65    21    18    1
    66     9    10    1
    67    66    63    1
    68   117   118   ar
    69   117   119   ar
    70    63    64    1
    71    63    62    1
    72    65    64    2
    73    10    11    1
    74    10    13    1
    75    17    11   am
    76    17    18    1
    77    11    12    2
    78    18    19    1
    79    16    14   ar
    80    46    43    1
    81    13    14    1
    82    14    15   ar
    83    45    44    2
    84    19    20    2
    85    19    25   am
    86    43    44    1
    87    43    42    1
    88    44    53   am
    89    25    26    1
    90    53    54    1
    91    54    55    1
    92    54    57    1
    93    42    35   am
    94    56    55    2
    95    58    57    1
    96    58    59    1
    97    28    27    2
    98    60    59    1
    99    60    61    1
   100    26    27    1
   101    26    29    1
   102    27    33   am
   103    35    36    2
   104    35    34    1
   105    32    30   ar
   106   128   127    1
   107    30    29    1
   108    30    31   ar
   109    33    34    1
   110   127   126    1
   111    34    37    1
   112   132   131    2
   113    37    38    1
   114   126   125    1
   115   125   124    1
   116   131   130    1
   117   133   130    1
   118   133   134    1
   119    38    39    1
   120   130   129    1
   121   124   121    1
   122   120   121    1
   123   134   135    1
   124    39    40    1
   125   121   122    1
   126   135   136    1
   127   136   137    2
   128    40    41    1
   129   137   139    1
   130   137   138    1
   131   122   123    2
