@<TRIPOS>MOLECULE
tmp/5llzB01.pdb
 105 103 0 0 0
SMALL
GASTEIGER

@<TRIPOS>ATOM
      1  N         20.5680   -3.1620  -13.2330 N.3    21  PHE21      -0.1241
      2  CA        21.5140   -2.0590  -13.4390 C.3    21  PHE21       0.1605
      3  C         22.2440   -1.7020  -12.1530 C.2    21  PHE21       0.2264
      4  O         23.4690   -1.4780  -12.1690 O.2    21  PHE21      -0.2867
      5  CB        20.7790   -0.8420  -14.0040 C.3    21  PHE21       0.0534
      6  CG        21.6760    0.3610  -14.4010 C.ar   21  PHE21      -0.0203
      7  CD1       22.9800    0.2250  -14.8990 C.ar   21  PHE21      -0.0042
      8  CD2       21.2240    1.6290  -14.1860 C.ar   21  PHE21      -0.0042
      9  CE1       23.7320    1.3450  -15.2690 C.ar   21  PHE21      -0.0003
     10  CE2       21.9490    2.7380  -14.6010 C.ar   21  PHE21      -0.0003
     11  CZ        23.2060    2.5810  -15.0800 C.ar   21  PHE21      -0.0000
     12  N         25.0140   -4.2170  -11.5520 N.3    24  PHE24      -0.1241
     13  CA        26.1710   -3.8440  -12.3820 C.3    24  PHE24       0.1605
     14  C         26.9890   -2.6890  -11.7800 C.2    24  PHE24       0.2264
     15  O         28.2310   -2.7910  -11.6650 O.2    24  PHE24      -0.2867
     16  CB        25.6640   -3.4840  -13.8260 C.3    24  PHE24       0.0534
     17  CG        26.6660   -2.8090  -14.7010 C.ar   24  PHE24      -0.0203
     18  CD1       27.8000   -3.4910  -15.1200 C.ar   24  PHE24      -0.0042
     19  CD2       26.4490   -1.5410  -15.1670 C.ar   24  PHE24      -0.0042
     20  CE1       28.7100   -2.8870  -15.9780 C.ar   24  PHE24      -0.0003
     21  CE2       27.3690   -0.9290  -16.0410 C.ar   24  PHE24      -0.0003
     22  CZ        28.4900   -1.6030  -16.4470 C.ar   24  PHE24      -0.0000
     23  N         28.1330    7.3310  -16.2130 N.3    35  PHE35      -0.1241
     24  CA        26.8690    7.7310  -15.6420 C.3    35  PHE35       0.1605
     25  C         27.1660    8.7580  -14.5000 C.2    35  PHE35       0.2264
     26  O         26.7720    8.5400  -13.3070 O.2    35  PHE35      -0.2867
     27  CB        26.0750    6.5110  -15.1170 C.3    35  PHE35       0.0534
     28  CG        25.8110    5.4890  -16.1450 C.ar   35  PHE35      -0.0203
     29  CD1       24.7810    5.6380  -17.1060 C.ar   35  PHE35      -0.0042
     30  CD2       26.6240    4.3580  -16.2250 C.ar   35  PHE35      -0.0042
     31  CE1       24.5350    4.6660  -18.0730 C.ar   35  PHE35      -0.0003
     32  CE2       26.4190    3.4190  -17.2250 C.ar   35  PHE35      -0.0003
     33  CZ        25.3750    3.5660  -18.1300 C.ar   35  PHE35      -0.0000
     34  N         14.7210    5.8290  -17.5670 N.3    55  HIS55      -0.1226
     35  CA        15.8590    5.5020  -18.4000 C.3    55  HIS55       0.1752
     36  C         16.1190    3.9650  -18.4630 C.2    55  HIS55       0.2596
     37  O         16.3090    3.3900  -19.5700 O.2    55  HIS55      -0.2718
     38  CB        17.0930    6.2310  -17.8440 C.3    55  HIS55       0.0759
     39  CG        18.3710    5.7370  -18.3790 C.ar   55  HIS55       0.0818
     40  ND1       18.7520    5.9350  -19.6870 N.ar   55  HIS55      -0.2268
     41  CD2       19.3550    5.0020  -17.8120 C.ar   55  HIS55       0.1154
     42  CE1       19.9300    5.3820  -19.9020 C.ar   55  HIS55       0.1986
     43  NE2       20.3160    4.8090  -18.7780 N.ar   55  HIS55      -0.2212
     44  N         16.1960    3.3080  -17.2900 N.am   56  THR56      -0.1953
     45  CA        16.5150    1.8580  -17.2480 C.3    56  THR56       0.1897
     46  C         15.4700    1.0210  -17.9440 C.2    56  THR56       0.2313
     47  O         15.7970    0.0430  -18.6550 O.2    56  THR56      -0.2863
     48  CB        16.7880    1.3120  -15.8050 C.3    56  THR56       0.1794
     49  OG1       15.6570    1.4780  -14.9300 O.3    56  THR56      -0.2208
     50  CG2       18.0610    1.9360  -15.1940 C.3    56  THR56       0.0378
     51  N         16.1310    1.1710  -21.6650 N.3    59  VAL59      -0.1231
     52  CA        17.2830    0.3400  -21.9400 C.3    59  VAL59       0.1692
     53  C         16.9080   -1.1390  -22.0490 C.2    59  VAL59       0.2592
     54  O         17.2720   -1.8580  -23.0160 O.2    59  VAL59      -0.2718
     55  CB        18.3890    0.5460  -20.8460 C.3    59  VAL59       0.0266
     56  CG1       19.4660   -0.4960  -20.9280 C.3    59  VAL59       0.0020
     57  CG2       18.9650    1.9660  -20.9000 C.3    59  VAL59       0.0020
     58  N         16.2210   -1.6150  -21.0130 N.am   60  PHE60      -0.1976
     59  CA        15.8740   -3.0450  -20.9740 C.3    60  PHE60       0.1639
     60  C         14.7920   -3.4320  -21.9770 C.2    60  PHE60       0.2290
     61  O         14.7840   -4.5930  -22.4600 O.2    60  PHE60      -0.2864
     62  CB        15.5620   -3.5080  -19.5330 C.3    60  PHE60       0.0560
     63  CG        16.8170   -3.8090  -18.7560 C.ar   60  PHE60      -0.0200
     64  CD1       17.6840   -2.7900  -18.3010 C.ar   60  PHE60      -0.0042
     65  CD2       17.1810   -5.1350  -18.4630 C.ar   60  PHE60      -0.0042
     66  CE1       18.8560   -3.1030  -17.6270 C.ar   60  PHE60      -0.0003
     67  CE2       18.3400   -5.4370  -17.7660 C.ar   60  PHE60      -0.0003
     68  CZ        19.1800   -4.4280  -17.3490 C.ar   60  PHE60      -0.0000
     69  N         16.9780   -4.1210  -24.8940 N.3    63  MET63      -0.1245
     70  CA        17.7040   -5.3830  -24.6490 C.3    63  MET63       0.1570
     71  C         16.7810   -6.5950  -24.9420 C.2    63  MET63       0.2261
     72  O         17.2240   -7.6070  -25.5090 O.2    63  MET63      -0.2867
     73  CB        18.2400   -5.4720  -23.1820 C.3    63  MET63       0.0387
     74  CG        19.2060   -6.6360  -23.0130 C.3    63  MET63       0.0595
     75  SD        19.6300   -6.9650  -21.2650 S.3    63  MET63      -0.1393
     76  CE        20.5440   -5.4900  -20.8220 C.3    63  MET63       0.0692
     77  N         26.1510    5.7240  -27.1550 N.3    89  HIS89      -0.1241
     78  CA        27.1770    4.7090  -26.9750 C.3    89  HIS89       0.1621
     79  C         28.5460    5.0560  -27.6040 C.2    89  HIS89       0.2264
     80  O         29.4560    4.1870  -27.6600 O.2    89  HIS89      -0.2867
     81  CB        26.6410    3.3670  -27.4940 C.3    89  HIS89       0.0745
     82  CG        25.5300    2.7830  -26.6670 C.ar   89  HIS89       0.0817
     83  ND1       24.7710    1.7080  -27.1060 N.ar   89  HIS89      -0.2268
     84  CD2       25.0590    3.0920  -25.4220 C.ar   89  HIS89       0.1154
     85  CE1       23.9110    1.3760  -26.1410 C.ar   89  HIS89       0.1986
     86  NE2       24.0600    2.2030  -25.1230 N.ar   89  HIS89      -0.2212
     87  N         30.2000   -3.9010  -22.1120 N.3    97  PHE97      -0.1241
     88  CA        29.1290   -4.8460  -22.3090 C.3    97  PHE97       0.1605
     89  C         29.4320   -6.1610  -21.6460 C.2    97  PHE97       0.2264
     90  O         28.5330   -6.7990  -21.0740 O.2    97  PHE97      -0.2867
     91  CB        28.8000   -5.0050  -23.8170 C.3    97  PHE97       0.0534
     92  CG        28.1960   -3.7940  -24.4760 C.ar   97  PHE97      -0.0203
     93  CD1       28.9740   -2.6550  -24.8430 C.ar   97  PHE97      -0.0042
     94  CD2       26.8570   -3.7580  -24.7630 C.ar   97  PHE97      -0.0042
     95  CE1       28.3740   -1.5650  -25.4200 C.ar   97  PHE97      -0.0003
     96  CE2       26.2630   -2.6420  -25.3170 C.ar   97  PHE97      -0.0003
     97  CZ        27.0100   -1.5670  -25.6670 C.ar   97  PHE97      -0.0000
     98  N         28.5790   -5.7630  -17.9860 N.3   100  LEU100     -0.1245
     99  CA        27.1270   -5.7180  -17.7670 C.3   100  LEU100      0.1561
    100  C         26.5440   -7.1560  -17.7410 C.2   100  LEU100      0.2260
    101  O         25.7230   -7.4650  -16.8420 O.2   100  LEU100     -0.2867
    102  CB        26.4490   -4.8990  -18.8560 C.3   100  LEU100      0.0270
    103  CG        24.9090   -4.9060  -18.9060 C.3   100  LEU100      0.0019
    104  CD1       24.2830   -4.3550  -17.5860 C.3   100  LEU100      0.0001
    105  CD2       24.3440   -4.1510  -20.1140 C.3   100  LEU100      0.0001
@<TRIPOS>BOND
     1    80    79    2
     2    79    78    1
     3    81    78    1
     4    81    82    1
     5    77    78    1
     6    83    82   ar
     7    83    85   ar
     8    82    84   ar
     9    85    86   ar
    10    97    95   ar
    11    97    96   ar
    12    72    71    2
    13    84    86   ar
    14    95    93   ar
    15    96    94   ar
    16    71    70    1
    17    69    70    1
    18    93    92   ar
    19    94    92   ar
    20    70    73    1
    21    92    91    1
    22    91    88    1
    23    73    74    1
    24    54    53    2
    25    74    75    1
    26    61    60    2
    27    88    87    1
    28    88    89    1
    29    53    52    1
    30    53    58   am
    31    60    59    1
    32    52    51    1
    33    52    55    1
    34    89    90    2
    35    75    76    1
    36    58    59    1
    37    59    62    1
    38    56    55    1
    39    57    55    1
    40   105   103    1
    41    42    40   ar
    42    42    43   ar
    43    40    39   ar
    44    37    36    2
    45    62    63    1
    46   103   102    1
    47   103   104    1
    48   102    99    1
    49    43    41   ar
    50    63    65   ar
    51    63    64   ar
    52    47    46    2
    53    36    35    1
    54    36    44   am
    55    65    67   ar
    56    35    38    1
    57    35    34    1
    58    39    38    1
    59    39    41   ar
    60    64    66   ar
    61    33    31   ar
    62    33    32   ar
    63    31    29   ar
    64    98    99    1
    65    46    45    1
    66    99   100    1
    67    67    68   ar
    68   100   101    2
    69    66    68   ar
    70    44    45    1
    71    45    48    1
    72    32    30   ar
    73    29    28   ar
    74    22    21   ar
    75    22    20   ar
    76    30    28   ar
    77    23    24    1
    78    28    27    1
    79    21    19   ar
    80    20    18   ar
    81    48    50    1
    82    48    49    1
    83    24    27    1
    84    24    25    1
    85     9    11   ar
    86     9     7   ar
    87    19    17   ar
    88    18    17   ar
    89    11    10   ar
    90     7     6   ar
    91    17    16    1
    92    10     8   ar
    93    25    26    2
    94     6     8   ar
    95     6     5    1
    96     5     2    1
    97    16    13    1
    98     2     1    1
    99     2     3    1
   100    13    14    1
   101    13    12    1
   102     4     3    2
   103    14    15    2
