@<TRIPOS>MOLECULE
tmp/5lmaA00.pdb
 148 139 0 0 0
SMALL
GASTEIGER

@<TRIPOS>ATOM
      1  N         18.3660  -51.9360   37.6700 N.3    13  LYS13      -0.1245
      2  CA        19.1980  -51.1140   38.5430 C.3    13  LYS13       0.1561
      3  C         19.2000  -49.6670   38.0500 C.2    13  LYS13       0.2260
      4  O         19.7580  -49.3640   36.9920 O.2    13  LYS13      -0.2867
      5  CB        20.6280  -51.6640   38.5840 C.3    13  LYS13       0.0271
      6  CG        21.5680  -50.9390   39.5390 C.3    13  LYS13       0.0035
      7  CD        21.1170  -51.0780   40.9840 C.3    13  LYS13       0.0206
      8  CE        22.1300  -50.4870   41.9490 C.3    13  LYS13       0.1093
      9  NZ        21.6730  -50.6240   43.3600 N.3    13  LYS13      -0.1314
     10  N         20.2760  -45.8350   38.1720 N.3    15  LEU15      -0.1231
     11  CA        21.4340  -45.0220   38.5420 C.3    15  LEU15       0.1693
     12  C         21.0710  -43.5810   38.8270 C.2    15  LEU15       0.2592
     13  O         21.7400  -42.9110   39.6040 O.2    15  LEU15      -0.2718
     14  CB        22.4510  -45.0650   37.4100 C.3    15  LEU15       0.0284
     15  CG        22.9250  -46.4640   37.0180 C.3    15  LEU15       0.0019
     16  CD1       23.8150  -46.3850   35.7830 C.3    15  LEU15       0.0001
     17  CD2       23.6360  -47.1360   38.1840 C.3    15  LEU15       0.0001
     18  N         20.0220  -43.0920   38.1750 N.am   16  GLY16      -0.1957
     19  CA        19.5940  -41.7230   38.3380 C.3    16  GLY16       0.1869
     20  C         18.2700  -41.5010   37.6400 C.2    16  GLY16       0.2309
     21  O         17.7130  -42.4080   37.0010 O.2    16  GLY16      -0.2863
     22  N         17.9400  -43.2730   34.2580 N.3    23  VAL23      -0.1245
     23  CA        19.1980  -43.8020   33.7790 C.3    23  VAL23       0.1561
     24  C         19.3370  -45.1750   34.4340 C.2    23  VAL23       0.2260
     25  O         19.2290  -45.3020   35.6630 O.2    23  VAL23      -0.2867
     26  CB        20.3960  -42.9060   34.1480 C.3    23  VAL23       0.0252
     27  CG1       21.6800  -43.4830   33.5680 C.3    23  VAL23       0.0019
     28  CG2       20.1670  -41.4800   33.6710 C.3    23  VAL23       0.0019
     29  N         25.7500  -47.1880   31.0940 N.3    38  ALA38      -0.1245
     30  CA        24.6740  -46.4190   31.7100 C.3    38  ALA38       0.1562
     31  C         23.8090  -45.9490   30.5590 C.2    38  ALA38       0.2260
     32  O         24.3250  -45.4430   29.5550 O.2    38  ALA38      -0.2867
     33  CB        25.2290  -45.2400   32.4780 C.3    38  ALA38       0.0290
     34  N         32.7660  -38.3240   29.8190 N.3    71  VAL71      -0.1245
     35  CA        32.0330  -39.5710   29.6030 C.3    71  VAL71       0.1561
     36  C         31.8550  -39.8170   28.1000 C.2    71  VAL71       0.2260
     37  O         31.4410  -38.9180   27.3700 O.2    71  VAL71      -0.2867
     38  CB        30.6500  -39.5230   30.2810 C.3    71  VAL71       0.0252
     39  CG1       29.8030  -40.7260   29.8750 C.3    71  VAL71       0.0019
     40  CG2       30.7950  -39.4670   31.7950 C.3    71  VAL71       0.0019
     41  N         25.9450  -44.9100   27.2800 N.3    86  MET86      -0.1230
     42  CA        27.2580  -44.3670   27.6450 C.3    86  MET86       0.1702
     43  C         28.1080  -45.3680   28.4150 C.2    86  MET86       0.2592
     44  O         27.5860  -46.2610   29.0770 O.2    86  MET86      -0.2718
     45  CB        27.0600  -43.1350   28.5190 C.3    86  MET86       0.0401
     46  CG        26.4260  -41.9760   27.7760 C.3    86  MET86       0.0596
     47  SD        25.6530  -40.7370   28.8280 S.3    86  MET86      -0.1393
     48  CE        24.2160  -41.6460   29.4020 C.3    86  MET86       0.0692
     49  N         29.4240  -45.2020   28.3430 N.am   87  GLU87      -0.1966
     50  CA        30.3230  -46.0030   29.1590 C.3    87  GLU87       0.1733
     51  C         30.0200  -45.6880   30.6190 C.2    87  GLU87       0.2616
     52  O         29.9230  -44.5170   30.9740 O.2    87  GLU87      -0.2715
     53  CB        31.7640  -45.6320   28.8160 C.3    87  GLU87       0.0429
     54  CG        32.8370  -46.3360   29.6240 C.3    87  GLU87       0.1163
     55  CD        34.2360  -46.1190   29.0670 C.2    87  GLU87       0.3649
     56  OE1       35.0780  -47.0300   29.2280 O.co2  87  GLU87      -0.2457
     57  OE2       34.5060  -45.0550   28.4570 O.co2  87  GLU87      -0.2457
     58  N         29.8710  -46.6980   31.4730 N.am   88  MET88      -0.1963
     59  CA        29.5150  -46.4400   32.8820 C.3    88  MET88       0.1736
     60  C         30.7000  -46.0470   33.7650 C.2    88  MET88       0.2616
     61  O         31.7620  -46.6750   33.7280 O.2    88  MET88      -0.2715
     62  CB        28.7690  -47.6150   33.5250 C.3    88  MET88       0.0427
     63  CG        28.0550  -47.2620   34.8490 C.3    88  MET88       0.0599
     64  SD        27.2070  -48.7000   35.4620 S.3    88  MET88      -0.1393
     65  CE        27.0070  -48.2410   37.1800 C.3    88  MET88       0.0692
     66  N         30.5010  -45.0030   34.5660 N.am   89  ALA89      -0.1963
     67  CA        31.4880  -44.5390   35.5400 C.3    89  ALA89       0.1728
     68  C         30.9570  -45.1070   36.8450 C.2    89  ALA89       0.2616
     69  O         30.0470  -44.5510   37.4620 O.2    89  ALA89      -0.2715
     70  CB        31.5550  -43.0160   35.5600 C.3    89  ALA89       0.0334
     71  N         31.5300  -46.2220   37.2790 N.am   90  GLU90      -0.1963
     72  CA        30.8260  -47.0360   38.2470 C.3    90  GLU90       0.1733
     73  C         30.7450  -46.5800   39.6990 C.2    90  GLU90       0.2616
     74  O         29.9610  -47.1360   40.4580 O.2    90  GLU90      -0.2715
     75  CB        31.2350  -48.4970   38.0860 C.3    90  GLU90       0.0429
     76  CG        30.9370  -48.9810   36.6630 C.3    90  GLU90       0.1163
     77  CD        31.0220  -50.4860   36.4810 C.2    90  GLU90       0.3649
     78  OE1       30.5870  -51.1960   37.3890 O.co2  90  GLU90      -0.2457
     79  OE2       31.4760  -50.9380   35.4120 O.co2  90  GLU90      -0.2457
     80  N         31.5160  -45.5640   40.0820 N.am   91  LEU91      -0.1963
     81  CA        31.4000  -45.0200   41.4400 C.3    91  LEU91       0.1728
     82  C         30.3750  -43.8920   41.5350 C.2    91  LEU91       0.2617
     83  O         30.0350  -43.4690   42.6330 O.2    91  LEU91      -0.2715
     84  CB        32.7480  -44.5510   41.9730 C.3    91  LEU91       0.0311
     85  CG        33.7820  -45.6310   42.2880 C.3    91  LEU91       0.0022
     86  CD1       35.0350  -44.9680   42.8270 C.3    91  LEU91       0.0001
     87  CD2       33.2500  -46.6410   43.2960 C.3    91  LEU91       0.0001
     88  N         29.8960  -43.3920   40.3980 N.am   92  GLY92      -0.1941
     89  CA        28.8280  -42.4000   40.3910 C.3    92  GLY92       0.1998
     90  C         29.2190  -40.9630   40.6630 C.2    92  GLY92       0.2480
     91  O         30.3920  -40.6070   40.6450 O.2    92  GLY92      -0.2729
     92  N         28.2200  -40.1270   40.9620 N.am   93  PRO93      -0.2726
     93  CA        28.4800  -38.6970   41.1320 C.3    93  PRO93       0.1402
     94  C         29.4650  -38.3350   42.2490 C.2    93  PRO93       0.2269
     95  O         29.4180  -38.8820   43.3510 O.2    93  PRO93      -0.2865
     96  CB        27.0950  -38.1060   41.4140 C.3    93  PRO93       0.0296
     97  CG        26.1200  -39.1020   40.8830 C.3    93  PRO93       0.0237
     98  CD        26.7820  -40.4420   41.0060 C.3    93  PRO93       0.0939
     99  N         27.9870  -37.0570   45.8410 N.3    96  LYS96      -0.1245
    100  CA        27.5000  -38.1510   46.6820 C.3    96  LYS96       0.1561
    101  C         28.6550  -39.0030   47.2020 C.2    96  LYS96       0.2260
    102  O         28.6570  -39.4230   48.3560 O.2    96  LYS96      -0.2867
    103  CB        26.5190  -39.0260   45.9040 C.3    96  LYS96       0.0271
    104  CG        25.1820  -38.3620   45.6010 C.3    96  LYS96       0.0035
    105  CD        24.1440  -39.3940   45.1910 C.3    96  LYS96       0.0206
    106  CE        22.7260  -38.9550   45.5110 C.3    96  LYS96       0.1093
    107  NZ        21.7740  -40.0980   45.4020 N.3    96  LYS96      -0.1314
    108  N         27.6550  -32.6650   41.0250 N.3   136  ARG136     -0.1231
    109  CA        26.7320  -33.7580   40.7110 C.3   136  ARG136      0.1694
    110  C         26.8930  -34.2430   39.2670 C.2   136  ARG136      0.2592
    111  O         26.3960  -35.3180   38.9200 O.2   136  ARG136     -0.2718
    112  CB        25.2810  -33.3230   40.9240 C.3   136  ARG136      0.0321
    113  CG        24.8250  -32.2210   39.9750 C.3   136  ARG136      0.0489
    114  CD        23.3830  -31.7880   40.2280 C.3   136  ARG136      0.2205
    115  NE        23.0340  -30.6860   39.3430 N.pl3 136  ARG136     -0.0865
    116  CZ        23.3270  -29.4040   39.5690 C.cat 136  ARG136      0.5346
    117  NH1       23.9540  -29.0310   40.6750 N.pl3 136  ARG136      0.1354
    118  NH2       22.9780  -28.4770   38.6820 N.pl3 136  ARG136      0.1354
    119  N         27.5410  -33.4390   38.4250 N.am  137  ASN137     -0.1974
    120  CA        27.7710  -33.7620   37.0120 C.3   137  ASN137      0.1688
    121  C         29.2190  -34.1150   36.6990 C.2   137  ASN137      0.2292
    122  O         29.7000  -33.9200   35.5620 O.2   137  ASN137     -0.2864
    123  CB        27.2490  -32.6340   36.1220 C.3   137  ASN137      0.1181
    124  CG        25.7450  -32.4990   36.2030 C.2   137  ASN137      0.2629
    125  OD1       25.0500  -33.4530   36.5260 O.2   137  ASN137     -0.2716
    126  ND2       25.2300  -31.3180   35.8890 N.am  137  ASN137     -0.0877
    127  N         31.4060  -37.6430   37.3640 N.3   139  LEU139     -0.1245
    128  CA        31.2330  -39.0440   37.7430 C.3   139  LEU139      0.1561
    129  C         32.6100  -39.6530   37.9640 C.2   139  LEU139      0.2260
    130  O         33.5710  -39.3260   37.2670 O.2   139  LEU139     -0.2867
    131  CB        30.4820  -39.8120   36.6560 C.3   139  LEU139      0.0270
    132  CG        29.1360  -39.2310   36.2400 C.3   139  LEU139      0.0019
    133  CD1       28.5250  -40.0300   35.1000 C.3   139  LEU139      0.0001
    134  CD2       28.1780  -39.1450   37.4230 C.3   139  LEU139      0.0001
    135  N         30.1990  -35.2710   33.0010 N.3   149  SER149     -0.1202
    136  CA        29.0000  -35.8720   32.4270 C.3   149  SER149      0.2020
    137  C         27.9300  -34.8030   32.1940 C.2   149  SER149      0.2618
    138  O         28.1610  -33.6120   32.3940 O.2   149  SER149     -0.2717
    139  CB        28.4660  -36.9400   33.3960 C.3   149  SER149      0.2103
    140  OG        27.9460  -36.3570   34.5900 O.3   149  SER149     -0.2182
    141  N         26.7530  -35.2540   31.7800 N.am  150  ASP150     -0.1973
    142  CA        25.5440  -34.4170   31.7320 C.3   150  ASP150      0.1709
    143  C         25.6370  -33.2450   30.7690 C.2   150  ASP150      0.2293
    144  O         25.5710  -32.0800   31.1690 O.2   150  ASP150     -0.2864
    145  CB        25.1260  -33.9600   33.1470 C.3   150  ASP150      0.1436
    146  CG        24.5440  -35.0940   33.9860 C.2   150  ASP150      0.3671
    147  OD1       25.3020  -35.9770   34.4360 O.co2 150  ASP150     -0.2456
    148  OD2       23.3080  -35.0840   34.2190 O.co2 150  ASP150     -0.2456
@<TRIPOS>BOND
     1    41    42    1
     2    37    36    2
     3    42    43    1
     4    42    45    1
     5    46    45    1
     6    46    47    1
     7    36    35    1
     8    49    43   am
     9    49    50    1
    10    43    44    2
    11    57    55   ar
    12    53    50    1
    13    53    54    1
    14    47    48    1
    15    55    56   ar
    16    55    54    1
    17    50    51    1
    18    32    31    2
    19    35    34    1
    20    35    38    1
    21    39    38    1
    22    38    40    1
    23    31    30    1
    24    51    52    2
    25    51    58   am
    26   143   144    2
    27   143   142    1
    28    29    30    1
    29    58    59    1
    30    30    33    1
    31   142   141    1
    32   142   145    1
    33   141   137   am
    34   137   138    2
    35   137   136    1
    36   136   135    1
    37   136   139    1
    38    59    62    1
    39    59    60    1
    40   145   146    1
    41   139   140    1
    42    62    63    1
    43    27    26    1
    44    28    26    1
    45    61    60    2
    46    60    66   am
    47    23    26    1
    48    23    22    1
    49    23    24    1
    50   146   148   ar
    51   146   147   ar
    52    24    25    2
    53    66    67    1
    54    63    64    1
    55   133   132    1
    56    79    77   ar
    57    64    65    1
    58    67    70    1
    59    67    68    1
    60   122   121    2
    61    16    15    1
    62   126   124   am
    63   123   124    1
    64   123   120    1
    65   124   125    2
    66   132   131    1
    67   132   134    1
    68    77    76    1
    69    77    78   ar
    70   131   128    1
    71    76    75    1
    72   121   120    1
    73    68    71   am
    74    68    69    2
    75     4     3    2
    76    21    20    2
    77   120   119    1
    78    15    14    1
    79    15    17    1
    80   130   129    2
    81    71    72    1
    82   127   128    1
    83    14    11    1
    84    20    19    1
    85     1     2    1
    86   128   129    1
    87     3     2    1
    88    75    72    1
    89    10    11    1
    90    18    19    1
    91    18    12   am
    92    72    73    1
    93   119   110   am
    94    11    12    1
    95     2     5    1
    96     5     6    1
    97   118   116    1
    98    12    13    2
    99   111   110    2
   100   110   109    1
   101   115   116    2
   102   115   114    1
   103     6     7    1
   104   116   117    1
   105    73    80   am
   106    73    74    2
   107   113   114    1
   108   113   112    1
   109    80    81    1
   110    89    88    1
   111    89    90    1
   112    88    82   am
   113    91    90    2
   114    90    92   am
   115   109   112    1
   116   109   108    1
   117    97    98    1
   118    97    96    1
   119    92    98    1
   120    92    93    1
   121     7     8    1
   122    93    96    1
   123    93    94    1
   124    81    82    1
   125    81    84    1
   126    82    83    2
   127     8     9    1
   128    84    85    1
   129    94    95    2
   130    85    86    1
   131    85    87    1
   132   105   106    1
   133   105   104    1
   134   107   106    1
   135   104   103    1
   136    99   100    1
   137   103   100    1
   138   100   101    1
   139   101   102    2
