@<TRIPOS>MOLECULE
tmp/5lmbB00.pdb
 165 156 0 0 0
SMALL
GASTEIGER

@<TRIPOS>ATOM
      1  N          1.0320   27.8180  -77.4180 N.3    12  LYS12      -0.1245
      2  CA         0.5500   26.7950  -76.4850 C.3    12  LYS12       0.1561
      3  C          1.2400   26.8620  -75.1130 C.2    12  LYS12       0.2260
      4  O          2.4130   26.4850  -74.9640 O.2    12  LYS12      -0.2867
      5  CB         0.7430   25.3870  -77.0980 C.3    12  LYS12       0.0271
      6  CG        -0.4290   24.4260  -76.9110 C.3    12  LYS12       0.0035
      7  CD        -0.8260   24.2050  -75.4590 C.3    12  LYS12       0.0206
      8  CE        -1.9160   23.1470  -75.3420 C.3    12  LYS12       0.1093
      9  NZ        -3.1600   23.5280  -76.0680 N.3    12  LYS12      -0.1314
     10  N          1.6700   25.3920  -71.5350 N.3    14  LEU14      -0.1231
     11  CA         1.5030   24.0860  -70.8860 C.3    14  LEU14       0.1693
     12  C          1.1810   24.1860  -69.3940 C.2    14  LEU14       0.2593
     13  O          0.6150   23.2680  -68.8100 O.2    14  LEU14      -0.2718
     14  CB         2.7870   23.2770  -71.0380 C.3    14  LEU14       0.0284
     15  CG         3.2690   23.0640  -72.4690 C.3    14  LEU14       0.0019
     16  CD1        4.6470   22.4220  -72.4480 C.3    14  LEU14       0.0001
     17  CD2        2.2490   22.2220  -73.2330 C.3    14  LEU14       0.0001
     18  N          1.5690   25.2910  -68.7780 N.am   15  GLY15      -0.1942
     19  CA         1.4160   25.4650  -67.3410 C.3    15  GLY15       0.2014
     20  C          1.9520   26.8200  -66.9430 C.2    15  GLY15       0.2639
     21  O          2.5300   27.5370  -67.7720 O.2    15  GLY15      -0.2714
     22  N          1.7390   27.1860  -65.6840 N.am   16  SER16      -0.1949
     23  CA         2.1820   28.4780  -65.1770 C.3    16  SER16       0.1924
     24  C          2.4100   28.4080  -63.6720 C.2    16  SER16       0.2314
     25  O          2.1560   27.3730  -63.0440 O.2    16  SER16      -0.2863
     26  CB         1.1600   29.5670  -65.5120 C.3    16  SER16       0.2116
     27  OG        -0.0470   29.3810  -64.7910 O.3    16  SER16      -0.2180
     28  N          6.8550   31.8780  -61.0240 N.3    19  PHE19      -0.1241
     29  CA         7.9670   32.0970  -61.9510 C.3    19  PHE19       0.1605
     30  C          7.5520   32.7150  -63.2920 C.2    19  PHE19       0.2264
     31  O          8.2570   33.5700  -63.8300 O.2    19  PHE19      -0.2867
     32  CB         8.6830   30.7660  -62.2190 C.3    19  PHE19       0.0534
     33  CG         7.7920   29.7040  -62.8030 C.ar   19  PHE19      -0.0203
     34  CD1        7.5490   29.6540  -64.1820 C.ar   19  PHE19      -0.0042
     35  CD2        7.2000   28.7470  -61.9830 C.ar   19  PHE19      -0.0042
     36  CE1        6.7260   28.6800  -64.7210 C.ar   19  PHE19      -0.0003
     37  CE2        6.3840   27.7660  -62.5160 C.ar   19  PHE19      -0.0003
     38  CZ         6.1490   27.7270  -63.8910 C.ar   19  PHE19      -0.0000
     39  N          5.2290   27.8600  -68.6700 N.3    22  VAL22      -0.1245
     40  CA         5.8790   26.7450  -69.3430 C.3    22  VAL22       0.1561
     41  C          5.2110   26.6850  -70.7140 C.2    22  VAL22       0.2260
     42  O          3.9780   26.6450  -70.8060 O.2    22  VAL22      -0.2867
     43  CB         5.7140   25.4010  -68.6120 C.3    22  VAL22       0.0252
     44  CG1        6.3850   24.2840  -69.3950 C.3    22  VAL22       0.0019
     45  CG2        6.3020   25.4620  -67.1980 C.3    22  VAL22       0.0019
     46  N          9.6490   21.4810  -73.8340 N.3    37  ALA37      -0.1245
     47  CA         8.8170   22.2560  -72.9430 C.3    37  ALA37       0.1562
     48  C          9.7920   23.2280  -72.3100 C.2    37  ALA37       0.2260
     49  O         10.8590   22.8280  -71.8520 O.2    37  ALA37      -0.2867
     50  CB         8.1600   21.3770  -71.8860 C.3    37  ALA37       0.0290
     51  N         12.4100   13.7060  -65.9980 N.3    70  VAL70      -0.1245
     52  CA        12.4290   14.5360  -67.1980 C.3    70  VAL70       0.1561
     53  C         13.8380   15.0520  -67.4600 C.2    70  VAL70       0.2260
     54  O         14.4800   15.5850  -66.5490 O.2    70  VAL70      -0.2867
     55  CB        11.4970   15.7680  -67.0700 C.3    70  VAL70       0.0252
     56  CG1       11.6400   16.6910  -68.2760 C.3    70  VAL70       0.0019
     57  CG2       10.0430   15.3540  -66.9250 C.3    70  VAL70       0.0019
     58  N         13.5010   21.7100  -71.6290 N.3    85  MET85      -0.1230
     59  CA        13.4020   20.3080  -71.2810 C.3    85  MET85       0.1702
     60  C         12.8290   19.5350  -72.4380 C.2    85  MET85       0.2592
     61  O         12.2230   20.1030  -73.3150 O.2    85  MET85      -0.2718
     62  CB        12.5000   20.1410  -70.0540 C.3    85  MET85       0.0401
     63  CG        13.0350   20.8900  -68.8450 C.3    85  MET85       0.0596
     64  SD        11.8270   21.0580  -67.5260 S.3    85  MET85      -0.1393
     65  CE        10.7280   22.3000  -68.2100 C.3    85  MET85       0.0692
     66  N         13.0610   18.2340  -72.4370 N.am   86  GLU86      -0.1966
     67  CA        12.4620   17.3270  -73.3890 C.3    86  GLU86       0.1733
     68  C         10.9700   17.2450  -73.0770 C.2    86  GLU86       0.2616
     69  O         10.5880   17.1400  -71.9160 O.2    86  GLU86      -0.2715
     70  CB        13.1410   15.9710  -73.2650 C.3    86  GLU86       0.0429
     71  CG        12.6180   14.9130  -74.2060 C.3    86  GLU86       0.1163
     72  CD        13.3940   13.6170  -74.0850 C.2    86  GLU86       0.3649
     73  OE1       13.8400   13.2960  -72.9690 O.co2  86  GLU86      -0.2457
     74  OE2       13.5370   12.9150  -75.1050 O.co2  86  GLU86      -0.2457
     75  N         10.1110   17.3370  -74.0930 N.am   87  MET87      -0.1963
     76  CA         8.6660   17.3770  -73.8380 C.3    87  MET87       0.1736
     77  C          8.0050   16.0170  -73.6110 C.2    87  MET87       0.2616
     78  O          8.2090   15.0760  -74.3670 O.2    87  MET87      -0.2715
     79  CB         7.9130   18.1060  -74.9530 C.3    87  MET87       0.0427
     80  CG         6.4280   18.2260  -74.6190 C.3    87  MET87       0.0599
     81  SD         5.6600   19.6740  -75.3010 S.3    87  MET87      -0.1393
     82  CE         3.9280   19.3390  -74.9740 C.3    87  MET87       0.0692
     83  N          7.2220   15.9380  -72.5360 N.am   88  ALA88      -0.1963
     84  CA         6.4200   14.7690  -72.2130 C.3    88  ALA88       0.1728
     85  C          5.0360   15.1310  -72.7440 C.2    88  ALA88       0.2616
     86  O          4.2770   15.8320  -72.0810 O.2    88  ALA88      -0.2715
     87  CB         6.3970   14.5510  -70.7200 C.3    88  ALA88       0.0334
     88  N          4.7060   14.6250  -73.9260 N.am   89  GLU89      -0.1963
     89  CA         3.5950   15.1900  -74.7040 C.3    89  GLU89       0.1733
     90  C          2.1810   15.0080  -74.1720 C.2    89  GLU89       0.2616
     91  O          1.3370   15.8690  -74.4130 O.2    89  GLU89      -0.2715
     92  CB         3.7020   14.7740  -76.1750 C.3    89  GLU89       0.0429
     93  CG         5.0980   15.0950  -76.7310 C.3    89  GLU89       0.1163
     94  CD         5.1060   15.7800  -78.0870 C.2    89  GLU89       0.3649
     95  OE1        4.0850   16.3770  -78.4680 O.co2  89  GLU89      -0.2457
     96  OE2        6.1730   15.7650  -78.7310 O.co2  89  GLU89      -0.2457
     97  N          1.9150   13.9180  -73.4560 N.am   90  LEU90      -0.1963
     98  CA         0.5780   13.6910  -72.8850 C.3    90  LEU90       0.1728
     99  C          0.3360   14.5540  -71.6390 C.2    90  LEU90       0.2617
    100  O         -0.8150   14.7840  -71.2460 O.2    90  LEU90      -0.2715
    101  CB         0.3470   12.2070  -72.5740 C.3    90  LEU90       0.0311
    102  CG         0.6010   11.1930  -73.7090 C.3    90  LEU90       0.0022
    103  CD1       -0.0770    9.8680  -73.3850 C.3    90  LEU90       0.0001
    104  CD2        0.1370   11.7070  -75.0700 C.3    90  LEU90       0.0001
    105  N          1.4140   15.0250  -71.0150 N.am   91  GLY91      -0.1941
    106  CA         1.2950   15.9850  -69.9320 C.3    91  GLY91       0.1998
    107  C          0.9810   15.4000  -68.5690 C.2    91  GLY91       0.2480
    108  O          1.1380   14.2010  -68.3580 O.2    91  GLY91      -0.2729
    109  N          0.5230   16.2490  -67.6360 N.am   92  PRO92      -0.2726
    110  CA         0.3360   15.8360  -66.2330 C.3    92  PRO92       0.1402
    111  C         -0.6160   14.6770  -65.9990 C.2    92  PRO92       0.2269
    112  O         -1.6830   14.5950  -66.6150 O.2    92  PRO92      -0.2865
    113  CB        -0.1610   17.1110  -65.5420 C.3    92  PRO92       0.0296
    114  CG         0.3040   18.2280  -66.4190 C.3    92  PRO92       0.0237
    115  CD         0.3410   17.6960  -67.8130 C.3    92  PRO92       0.0939
    116  N         -4.4810   15.5900  -64.9170 N.3    95  LYS95      -0.1245
    117  CA        -5.3750   16.0730  -65.9720 C.3    95  LYS95       0.1561
    118  C         -5.6400   14.9860  -67.0060 C.2    95  LYS95       0.2260
    119  O         -6.7400   14.9110  -67.5690 O.2    95  LYS95      -0.2867
    120  CB        -4.8340   17.3320  -66.6510 C.3    95  LYS95       0.0271
    121  CG        -4.6990   18.5260  -65.7140 C.3    95  LYS95       0.0035
    122  CD        -5.1050   19.8400  -66.3750 C.3    95  LYS95       0.0206
    123  CE        -4.2720   20.1800  -67.6050 C.3    95  LYS95       0.1093
    124  NZ        -2.8350   20.3210  -67.2550 N.3    95  LYS95      -0.1314
    125  N          0.3150   16.1540  -60.5160 N.3   135  ARG135     -0.1231
    126  CA         0.5140   17.2570  -61.4530 C.3   135  ARG135      0.1694
    127  C          1.9720   17.3760  -61.9190 C.2   135  ARG135      0.2592
    128  O          2.2600   18.0330  -62.9250 O.2   135  ARG135     -0.2718
    129  CB         0.0500   18.5820  -60.8280 C.3   135  ARG135      0.0321
    130  CG         0.9210   19.0490  -59.6650 C.3   135  ARG135      0.0489
    131  CD         0.4870   20.3640  -59.0390 C.3   135  ARG135      0.2205
    132  NE         1.2190   20.5460  -57.7880 N.pl3 135  ARG135     -0.0865
    133  CZ         0.8540   20.0420  -56.6100 C.cat 135  ARG135      0.5346
    134  NH1       -0.2700   19.3500  -56.4810 N.pl3 135  ARG135      0.1354
    135  NH2        1.6170   20.2410  -55.5410 N.pl3 135  ARG135      0.1354
    136  N          2.8860   16.7650  -61.1710 N.am  136  ASN136     -0.1974
    137  CA         4.3210   16.7870  -61.4830 C.3   136  ASN136      0.1688
    138  C          4.8390   15.4310  -61.9470 C.2   136  ASN136      0.2292
    139  O          6.0320   15.1200  -61.8570 O.2   136  ASN136     -0.2864
    140  CB         5.0880   17.3100  -60.2700 C.3   136  ASN136      0.1181
    141  CG         4.7580   18.7490  -59.9840 C.2   136  ASN136      0.2629
    142  OD1        4.3510   19.4880  -60.8940 O.2   136  ASN136     -0.2716
    143  ND2        4.9210   19.1700  -58.7430 N.am  136  ASN136     -0.0877
    144  N          4.6040   13.5310  -65.4770 N.3   138  LEU138     -0.1245
    145  CA         4.2460   13.7770  -66.8650 C.3   138  LEU138      0.1561
    146  C          4.2970   12.5030  -67.6680 C.2   138  LEU138      0.2260
    147  O          5.2170   11.7060  -67.5130 O.2   138  LEU138     -0.2867
    148  CB         5.2020   14.7950  -67.4770 C.3   138  LEU138      0.0270
    149  CG         5.2970   16.0770  -66.6590 C.3   138  LEU138      0.0019
    150  CD1        6.2230   17.0540  -67.3520 C.3   138  LEU138      0.0001
    151  CD2        3.9050   16.6750  -66.4340 C.3   138  LEU138      0.0001
    152  N          8.7020   15.3480  -62.8880 N.3   148  SER148     -0.1202
    153  CA         9.1130   16.6690  -63.3430 C.3   148  SER148      0.2020
    154  C          9.0830   17.6540  -62.1770 C.2   148  SER148      0.2618
    155  O          8.8070   17.2600  -61.0410 O.2   148  SER148     -0.2717
    156  CB         8.1250   17.1680  -64.4150 C.3   148  SER148      0.2103
    157  OG         6.8570   17.4520  -63.8110 O.3   148  SER148     -0.2182
    158  N          9.3340   18.9300  -62.4860 N.am  149  ASP149     -0.1973
    159  CA         9.1410   20.0510  -61.5620 C.3   149  ASP149      0.1709
    160  C         10.0330   19.9870  -60.3160 C.2   149  ASP149      0.2293
    161  O          9.5660   19.7450  -59.1890 O.2   149  ASP149     -0.2864
    162  CB         7.6720   20.1830  -61.1730 C.3   149  ASP149      0.1436
    163  CG         6.8070   20.7260  -62.3210 C.2   149  ASP149      0.3671
    164  OD1        6.5130   19.9920  -63.3050 O.co2 149  ASP149     -0.2456
    165  OD2        6.4000   21.8920  -62.2100 O.co2 149  ASP149     -0.2456
@<TRIPOS>BOND
     1    96    94   ar
     2    95    94   ar
     3    94    93    1
     4     1     2    1
     5     5     6    1
     6     5     2    1
     7     6     7    1
     8    93    92    1
     9     2     3    1
    10    92    89    1
    11     9     8    1
    12     7     8    1
    13    81    82    1
    14    81    80    1
    15     3     4    2
    16    74    72   ar
    17   104   102    1
    18    79    80    1
    19    79    76    1
    20    89    90    1
    21    89    88    1
    22    91    90    2
    23    78    77    2
    24    71    72    1
    25    71    70    1
    26    90    97   am
    27    75    76    1
    28    75    68   am
    29    72    73   ar
    30    88    85   am
    31    76    77    1
    32    46    47    1
    33   102   103    1
    34   102   101    1
    35    77    83   am
    36    97    98    1
    37    67    70    1
    38    67    68    1
    39    67    66    1
    40    61    60    2
    41    17    15    1
    42    68    69    2
    43    47    48    1
    44    47    50    1
    45    98   101    1
    46    98    99    1
    47    85    84    1
    48    85    86    2
    49    83    84    1
    50    15    16    1
    51    15    14    1
    52    60    66   am
    53    60    59    1
    54    48    49    2
    55    84    87    1
    56    99   100    2
    57    99   105   am
    58    58    59    1
    59    10    11    1
    60    59    62    1
    61    14    11    1
    62   105   106    1
    63    11    12    1
    64    42    41    2
    65    41    40    1
    66    62    63    1
    67   106   107    1
    68    44    43    1
    69    12    13    2
    70    12    18   am
    71    40    39    1
    72    40    43    1
    73    63    64    1
    74    18    19    1
    75    43    45    1
    76   107   108    2
    77   107   109   am
    78    56    55    1
    79    65    64    1
    80   115   109    1
    81   115   114    1
    82    21    20    2
    83   146   147    2
    84   146   145    1
    85   109   110    1
    86   123   124    1
    87   123   122    1
    88   119   118    2
    89   148   145    1
    90   148   149    1
    91    53    52    1
    92    53    54    2
    93   150   149    1
    94    19    20    1
    95    52    55    1
    96    52    51    1
    97    55    57    1
    98   118   117    1
    99    20    22   am
   100   145   144    1
   101   149   151    1
   102   120   117    1
   103   120   121    1
   104   112   111    2
   105   114   113    1
   106   122   121    1
   107   110   111    1
   108   110   113    1
   109   117   116    1
   110    22    23    1
   111    26    23    1
   112    26    27    1
   113    23    24    1
   114    36    34   ar
   115    36    38   ar
   116   156   157    1
   117   156   153    1
   118    34    33   ar
   119    38    37   ar
   120    31    30    2
   121    24    25    2
   122   153   152    1
   123   153   154    1
   124   164   163   ar
   125    30    29    1
   126   128   127    2
   127    33    32    1
   128    33    35   ar
   129    37    35   ar
   130   158   154   am
   131   158   159    1
   132   163   165   ar
   133   163   162    1
   134    32    29    1
   135   154   155    2
   136    29    28    1
   137   138   139    2
   138   138   137    1
   139   127   126    1
   140   127   136   am
   141   159   162    1
   142   159   160    1
   143   137   136    1
   144   137   140    1
   145   126   129    1
   146   126   125    1
   147   142   141    2
   148   129   130    1
   149   160   161    2
   150   140   141    1
   151   141   143   am
   152   130   131    1
   153   131   132    1
   154   132   133    2
   155   133   134    1
   156   133   135    1
