@<TRIPOS>MOLECULE
tmp/5lmcA00.pdb
 131 131 0 0 0
SMALL
GASTEIGER

@<TRIPOS>ATOM
      1  N         25.2880   70.1780   59.6920 N.3   259  THR259     -0.1203
      2  CA        25.5100   70.6290   61.0630 C.3   259  THR259      0.1994
      3  C         26.8590   71.3640   61.1200 C.2   259  THR259      0.2618
      4  O         27.7950   71.0180   60.3950 O.2   259  THR259     -0.2717
      5  CB        25.4810   69.4350   62.0430 C.3   259  THR259      0.1784
      6  OG1       25.6330   69.8910   63.3950 O.3   259  THR259     -0.2211
      7  CG2       26.6020   68.4460   61.7120 C.3   259  THR259      0.0376
      8  N         26.9410   72.3970   61.9530 N.am  260  MET260     -0.1965
      9  CA        28.1500   73.2120   62.0570 C.3   260  MET260      0.1736
     10  C         28.9360   72.8490   63.3110 C.2   260  MET260      0.2617
     11  O         30.1630   72.9630   63.3310 O.2   260  MET260     -0.2715
     12  CB        27.8080   74.7260   62.0890 C.3   260  MET260      0.0427
     13  CG        27.2330   75.2900   60.7890 C.3   260  MET260      0.0599
     14  SD        26.9120   77.0810   60.8210 S.3   260  MET260     -0.1393
     15  CE        25.4630   77.1460   61.8900 C.3   260  MET260      0.0692
     16  N         28.2310   72.4500   64.3680 N.am  261  SER261     -0.1950
     17  CA        28.8870   72.0990   65.6380 C.3   261  SER261      0.1924
     18  C         28.2970   70.8280   66.2580 C.2   261  SER261      0.2314
     19  O         28.3540   70.6290   67.4770 O.2   261  SER261     -0.2863
     20  CB        28.8030   73.2560   66.6390 C.3   261  SER261      0.2116
     21  OG        27.4680   73.7620   66.7560 O.3   261  SER261     -0.2180
     22  N         25.2460   69.7390   66.8400 N.3   263  ASN263     -0.1225
     23  CA        24.0400   69.7290   67.6580 C.3   263  ASN263      0.1785
     24  C         22.8910   69.0300   66.9430 C.2   263  ASN263      0.2597
     25  O         22.1790   68.2240   67.5350 O.2   263  ASN263     -0.2718
     26  CB        23.6440   71.1520   68.0550 C.3   263  ASN263      0.1169
     27  CG        24.6670   71.7960   68.9750 C.2   263  ASN263      0.2627
     28  OD1       25.3580   71.1010   69.7050 O.2   263  ASN263     -0.2716
     29  ND2       24.7590   73.1270   68.9490 N.am  263  ASN263     -0.0877
     30  N         22.7190   69.3470   65.6620 N.am  264  THR264     -0.1953
     31  CA        21.6900   68.7110   64.8470 C.3   264  THR264      0.1897
     32  C         22.0170   67.2290   64.6250 C.2   264  THR264      0.2313
     33  O         21.1170   66.3850   64.5210 O.2   264  THR264     -0.2863
     34  CB        21.5170   69.4750   63.5110 C.3   264  THR264      0.1794
     35  OG1       21.1650   70.8380   63.7980 O.3   264  THR264     -0.2208
     36  CG2       20.4300   68.8450   62.6500 C.3   264  THR264      0.0378
     37  N         20.7310   73.3960   61.0540 N.3   312  SER312     -0.1202
     38  CA        20.7570   74.4660   62.0430 C.3   312  SER312      0.2020
     39  C         20.4070   75.7730   61.3300 C.2   312  SER312      0.2619
     40  O         20.2550   75.7890   60.1030 O.2   312  SER312     -0.2717
     41  CB        22.1190   74.5560   62.7250 C.3   312  SER312      0.2103
     42  OG        23.1680   74.5110   61.7710 O.3   312  SER312     -0.2182
     43  N         20.2580   76.8600   62.0840 N.am  313  THR313     -0.1938
     44  CA        20.0940   78.1750   61.4660 C.3   313  THR313      0.2028
     45  C         21.4620   78.8190   61.2990 C.2   313  THR313      0.2642
     46  O         22.2410   78.8870   62.2520 O.2   313  THR313     -0.2714
     47  CB        19.1970   79.1160   62.2870 C.3   313  THR313      0.1808
     48  OG1       17.8900   78.5420   62.3950 O.3   313  THR313     -0.2208
     49  CG2       19.0880   80.4960   61.5880 C.3   313  THR313      0.0379
     50  N         21.7440   79.2800   60.0800 N.am  314  MET314     -0.1962
     51  CA        23.0150   79.9150   59.7540 C.3   314  MET314      0.1736
     52  C         22.7510   81.2430   59.0390 C.2   314  MET314      0.2616
     53  O         22.2520   81.2520   57.9090 O.2   314  MET314     -0.2715
     54  CB        23.8210   78.9870   58.8410 C.3   314  MET314      0.0427
     55  CG        25.1670   79.5600   58.3450 C.3   314  MET314      0.0599
     56  SD        25.8940   78.4790   57.0620 S.3   314  MET314     -0.1393
     57  CE        27.3520   79.4090   56.5940 C.3   314  MET314      0.0692
     58  N         23.0990   82.3550   59.6790 N.am  315  ASN315     -0.1958
     59  CA        22.7920   83.6910   59.1340 C.3   315  ASN315      0.1819
     60  C         21.3100   83.8300   58.7330 C.2   315  ASN315      0.2621
     61  O         20.9980   84.2540   57.6130 O.2   315  ASN315     -0.2715
     62  CB        23.6990   84.0260   57.9280 C.3   315  ASN315      0.1195
     63  CG        25.1950   83.8840   58.2420 C.2   315  ASN315      0.2630
     64  OD1       25.6600   84.2960   59.2980 O.2   315  ASN315     -0.2716
     65  ND2       25.9430   83.2810   57.3180 N.am  315  ASN315     -0.0877
     66  N         20.4090   83.4630   59.6470 N.am  316  ASN316     -0.1972
     67  CA        18.9550   83.4950   59.4240 C.3   316  ASN316      0.1688
     68  C         18.4060   82.6570   58.2690 C.2   316  ASN316      0.2292
     69  O         17.2330   82.7940   57.9280 O.2   316  ASN316     -0.2864
     70  CB        18.4220   84.9400   59.3180 C.3   316  ASN316      0.1181
     71  CG        19.0400   85.8550   60.3460 C.2   316  ASN316      0.2629
     72  OD1       19.9410   86.6330   60.0350 O.2   316  ASN316     -0.2716
     73  ND2       18.5870   85.7450   61.5840 N.am  316  ASN316     -0.0877
     74  N         18.7970   72.5780   65.2490 N.3   344  SER344     -0.1202
     75  CA        19.1530   73.4250   66.3860 C.3   344  SER344      0.2020
     76  C         19.3260   74.9040   65.9800 C.2   344  SER344      0.2619
     77  O         19.4970   75.2260   64.8060 O.2   344  SER344     -0.2717
     78  CB        20.4380   72.8910   67.0380 C.3   344  SER344      0.2103
     79  OG        20.8200   73.6740   68.1620 O.3   344  SER344     -0.2182
     80  N         19.2640   75.8010   66.9540 N.am  345  HIS345     -0.1961
     81  CA        19.4830   77.2200   66.7120 C.3   345  HIS345      0.1787
     82  C         20.0940   77.8340   67.9620 C.2   345  HIS345      0.2621
     83  O         20.0140   77.2590   69.0540 O.2   345  HIS345     -0.2715
     84  CB        18.1650   77.9400   66.3790 C.3   345  HIS345      0.0785
     85  CG        17.2030   77.9730   67.5220 C.ar  345  HIS345      0.0821
     86  ND1       16.4380   76.8840   67.8800 N.ar  345  HIS345     -0.2267
     87  CD2       16.9080   78.9510   68.4130 C.ar  345  HIS345      0.1154
     88  CE1       15.7030   77.1910   68.9330 C.ar  345  HIS345      0.1986
     89  NE2       15.9670   78.4380   69.2760 N.ar  345  HIS345     -0.2212
     90  N         20.6810   79.0130   67.8030 N.am  346  GLY346     -0.1940
     91  CA        21.3200   79.7110   68.9060 C.3   346  GLY346      0.2014
     92  C         20.4760   80.8130   69.5280 C.2   346  GLY346      0.2639
     93  O         20.5530   81.0640   70.7330 O.2   346  GLY346     -0.2714
     94  N         19.6810   81.4990   68.7220 N.am  347  TRP347     -0.1959
     95  CA        18.8960   82.6110   69.2630 C.3   347  TRP347      0.1771
     96  C         17.5050   82.7160   68.6660 C.2   347  TRP347      0.2620
     97  O         16.5510   82.2000   69.2470 O.2   347  TRP347     -0.2715
     98  CB        19.6550   83.9650   69.2420 C.3   347  TRP347      0.0590
     99  CG        20.3820   84.3210   67.9670 C.ar  347  TRP347      0.0006
    100  CD1       19.9530   85.1830   66.9860 C.ar  347  TRP347      0.0946
    101  CD2       21.6870   83.8700   67.5590 C.ar  347  TRP347      0.0152
    102  NE1       20.9020   85.2710   65.9860 N.ar  347  TRP347     -0.2442
    103  CE2       21.9710   84.4770   66.3140 C.ar  347  TRP347      0.0810
    104  CE3       22.6380   83.0110   68.1220 C.ar  347  TRP347      0.0012
    105  CZ2       23.1650   84.2470   65.6240 C.ar  347  TRP347      0.0191
    106  CZ3       23.8250   82.7820   67.4370 C.ar  347  TRP347      0.0001
    107  CH2       24.0770   83.3930   66.1990 C.ar  347  TRP347      0.0015
    108  N         17.3800   83.3650   67.5150 N.am  348  SER348     -0.1936
    109  CA        16.0680   83.5450   66.9080 C.3   348  SER348      0.2055
    110  C         15.6650   82.4230   65.9310 C.2   348  SER348      0.2643
    111  O         14.4950   82.3050   65.5860 O.2   348  SER348     -0.2714
    112  CB        15.9670   84.9210   66.2420 C.3   348  SER348      0.2130
    113  OG        17.0770   85.1540   65.3940 O.3   348  SER348     -0.2179
    114  N         16.6230   81.6060   65.5000 N.am  349  GLY349     -0.1954
    115  CA        16.3360   80.4670   64.6290 C.3   349  GLY349      0.1869
    116  C         15.5820   80.8300   63.3540 C.2   349  GLY349      0.2309
    117  O         15.7340   81.9280   62.8290 O.2   349  GLY349     -0.2863
    118  N         20.8420   75.4340   71.0340 N.3   374  TRP374     -0.1241
    119  CA        22.2360   75.0620   71.2640 C.3   374  TRP374      0.1605
    120  C         22.3820   73.5340   71.3150 C.2   374  TRP374      0.2264
    121  O         21.7790   72.8200   70.5170 O.2   374  TRP374     -0.2867
    122  CB        22.7800   75.6990   72.5540 C.3   374  TRP374      0.0550
    123  CG        22.7660   77.2210   72.5820 C.ar  374  TRP374      0.0003
    124  CD1       22.0990   78.0180   73.4760 C.ar  374  TRP374      0.0946
    125  CD2       23.4580   78.1150   71.6930 C.ar  374  TRP374      0.0152
    126  NE1       22.3380   79.3430   73.2030 N.ar  374  TRP374     -0.2442
    127  CE2       23.1700   79.4290   72.1140 C.ar  374  TRP374      0.0810
    128  CE3       24.3030   77.9290   70.5890 C.ar  374  TRP374      0.0012
    129  CZ2       23.6790   80.5490   71.4640 C.ar  374  TRP374      0.0191
    130  CZ3       24.8150   79.0470   69.9500 C.ar  374  TRP374      0.0001
    131  CH2       24.5020   80.3350   70.3860 C.ar  374  TRP374      0.0015
@<TRIPOS>BOND
     1    57    56    1
     2    56    55    1
     3    65    63   am
     4    61    60    2
     5    53    52    2
     6    69    68    2
     7    62    63    1
     8    62    59    1
     9    63    64    2
    10    68    67    1
    11    55    54    1
    12    60    59    1
    13    60    66   am
    14    54    51    1
    15    52    58   am
    16    52    51    1
    17    59    58    1
    18    70    67    1
    19    70    71    1
    20    67    66    1
    21     1     2    1
    22    51    50    1
    23    72    71    2
    24    50    45   am
    25    40    39    2
    26    71    73   am
    27     4     3    2
    28    13    14    1
    29    13    12    1
    30    14    15    1
    31    37    38    1
    32     2     3    1
    33     2     5    1
    34     3     8   am
    35    45    44    1
    36    45    46    2
    37    39    38    1
    38    39    43   am
    39    44    43    1
    40    44    47    1
    41    49    47    1
    42     7     5    1
    43    42    41    1
    44     8     9    1
    45     5     6    1
    46    38    41    1
    47     9    12    1
    48     9    10    1
    49    47    48    1
    50    36    34    1
    51   117   116    2
    52    10    11    2
    53    10    16   am
    54   116   115    1
    55    34    35    1
    56    34    31    1
    57    16    17    1
    58    33    32    2
    59    32    31    1
    60   115   114    1
    61    77    76    2
    62    31    30    1
    63    74    75    1
    64   113   112    1
    65   114   110   am
    66   111   110    2
    67   105   107   ar
    68   105   103   ar
    69    17    18    1
    70    17    20    1
    71    30    24   am
    72   110   109    1
    73    76    75    1
    74    76    80   am
    75   102   103   ar
    76   102   100   ar
    77   107   106   ar
    78   112   109    1
    79    18    19    2
    80   103   101   ar
    81    84    81    1
    82    84    85    1
    83    75    78    1
    84    20    21    1
    85    81    80    1
    86    81    82    1
    87    22    23    1
    88   109   108    1
    89    24    25    2
    90    24    23    1
    91   100    99   ar
    92    78    79    1
    93   106   104   ar
    94   108    96   am
    95    85    86   ar
    96    85    87   ar
    97   101    99   ar
    98   101   104   ar
    99    23    26    1
   100    90    82   am
   101    90    91    1
   102    86    88   ar
   103    82    83    2
   104    99    98    1
   105    26    27    1
   106    87    89   ar
   107    96    97    2
   108    96    95    1
   109    94    95    1
   110    94    92   am
   111    91    92    1
   112    88    89   ar
   113    29    27   am
   114    27    28    2
   115    98    95    1
   116    92    93    2
   117   130   131   ar
   118   130   128   ar
   119   131   129   ar
   120   121   120    2
   121   128   125   ar
   122   118   119    1
   123   119   120    1
   124   119   122    1
   125   129   127   ar
   126   125   127   ar
   127   125   123   ar
   128   127   126   ar
   129   122   123    1
   130   123   124   ar
   131   126   124   ar
