@<TRIPOS>MOLECULE
tmp/5lmkA00.pdb
 193 185 0 0 0
SMALL
GASTEIGER

@<TRIPOS>ATOM
      1  N         -4.1520   19.2900  -34.2720 N.3     9  GLU9       -0.1231
      2  CA        -2.8370   19.4970  -33.6430 C.3     9  GLU9        0.1699
      3  C         -2.8480   19.0970  -32.1690 C.2     9  GLU9        0.2592
      4  O         -3.9120   19.0370  -31.5450 O.2     9  GLU9       -0.2718
      5  CB        -2.3830   20.9640  -33.7690 C.3     9  GLU9        0.0402
      6  CG        -3.3770   21.9870  -33.2300 C.3     9  GLU9        0.1161
      7  CD        -2.7930   23.3780  -33.1050 C.2     9  GLU9        0.3649
      8  OE1       -1.7880   23.5460  -32.3800 O.co2   9  GLU9       -0.2457
      9  OE2       -3.3500   24.3080  -33.7220 O.co2   9  GLU9       -0.2457
     10  N         -1.6590   18.8430  -31.6220 N.am   10  LYS10      -0.1966
     11  CA        -1.4840   18.6260  -30.1860 C.3    10  LYS10       0.1728
     12  C         -1.5840   19.9570  -29.4430 C.2    10  LYS10       0.2616
     13  O         -0.9610   20.9480  -29.8390 O.2    10  LYS10      -0.2715
     14  CB        -0.1420   17.9440  -29.8950 C.3    10  LYS10       0.0311
     15  CG         0.0650   17.5580  -28.4370 C.3    10  LYS10       0.0038
     16  CD         1.5250   17.2680  -28.1340 C.3    10  LYS10       0.0206
     17  CE         1.7630   17.0950  -26.6400 C.3    10  LYS10       0.1093
     18  NZ         3.0850   16.4670  -26.3510 N.3    10  LYS10      -0.1314
     19  N         -2.3760   19.9650  -28.3720 N.am   11  ILE11      -0.1963
     20  CA        -2.5420   21.1420  -27.5150 C.3    11  ILE11       0.1727
     21  C         -1.5610   21.1070  -26.3370 C.2    11  ILE11       0.2617
     22  O         -0.9850   22.1390  -25.9820 O.2    11  ILE11      -0.2715
     23  CB        -3.9950   21.2970  -27.0010 C.3    11  ILE11       0.0290
     24  CG1       -4.9740   21.5460  -28.1550 C.3    11  ILE11       0.0022
     25  CG2       -4.0860   22.4470  -26.0110 C.3    11  ILE11       0.0023
     26  CD1       -6.4350   21.5190  -27.7450 C.3    11  ILE11       0.0001
     27  N         -1.3840   19.9300  -25.7360 N.am   12  GLY12      -0.1940
     28  CA        -0.4640   19.7640  -24.6080 C.3    12  GLY12       0.2014
     29  C         -0.7120   18.5510  -23.7330 C.2    12  GLY12       0.2639
     30  O         -1.5510   17.7000  -24.0480 O.2    12  GLY12      -0.2714
     31  N          0.0320   18.4870  -22.6290 N.am   13  GLU13      -0.1963
     32  CA        -0.0410   17.3800  -21.6700 C.3    13  GLU13       0.1733
     33  C         -0.3260   17.8860  -20.2620 C.2    13  GLU13       0.2616
     34  O          0.3930   18.7480  -19.7420 O.2    13  GLU13      -0.2715
     35  CB         1.2580   16.5680  -21.6730 C.3    13  GLU13       0.0429
     36  CG         1.4820   15.7310  -22.9230 C.3    13  GLU13       0.1163
     37  CD         2.8480   15.0760  -22.9540 C.2    13  GLU13       0.3649
     38  OE1        3.1770   14.3200  -22.0140 O.co2  13  GLU13      -0.2457
     39  OE2        3.5910   15.3110  -23.9300 O.co2  13  GLU13      -0.2457
     40  N         -1.3820   17.3410  -19.6590 N.am   14  GLY14      -0.1955
     41  CA        -1.7760   17.6750  -18.2910 C.3    14  GLY14       0.1869
     42  C         -1.3460   16.5990  -17.3140 C.2    14  GLY14       0.2309
     43  O         -0.2310   16.0760  -17.4170 O.2    14  GLY14      -0.2863
     44  N         -3.6850   15.9210  -24.8710 N.3    19  VAL19      -0.1245
     45  CA        -4.8340   16.6870  -25.3790 C.3    19  VAL19       0.1561
     46  C         -4.6020   17.1740  -26.8180 C.2    19  VAL19       0.2260
     47  O         -3.6020   17.8350  -27.1040 O.2    19  VAL19      -0.2867
     48  CB        -5.2040   17.8720  -24.4400 C.3    19  VAL19       0.0252
     49  CG1       -6.4610   18.5970  -24.9180 C.3    19  VAL19       0.0019
     50  CG2       -5.4030   17.3840  -23.0110 C.3    19  VAL19       0.0019
     51  N         -6.4690   19.1250  -30.3240 N.3    21  LYS21      -0.1245
     52  CA        -7.5550   19.8600  -30.9690 C.3    21  LYS21       0.1561
     53  C         -8.1120   18.9980  -32.0930 C.2    21  LYS21       0.2260
     54  O         -7.3550   18.4280  -32.8820 O.2    21  LYS21      -0.2867
     55  CB        -7.0680   21.2060  -31.5140 C.3    21  LYS21       0.0271
     56  CG        -8.1480   22.0650  -32.1630 C.3    21  LYS21       0.0035
     57  CD        -7.5610   23.3700  -32.6630 C.3    21  LYS21       0.0206
     58  CE        -8.5870   24.2020  -33.4160 C.3    21  LYS21       0.1093
     59  NZ        -7.9860   25.5060  -33.8200 N.3    21  LYS21      -0.1314
     60  N        -11.7560   19.2160  -27.8700 N.3    32  ALA32      -0.1245
     61  CA       -10.4530   18.7880  -27.3640 C.3    32  ALA32       0.1562
     62  C        -10.5120   17.3120  -26.9840 C.2    32  ALA32       0.2260
     63  O        -11.3870   16.8920  -26.2200 O.2    32  ALA32      -0.2867
     64  CB       -10.0290   19.6320  -26.1810 C.3    32  ALA32       0.0290
     65  N        -15.0010   23.2530  -17.4860 N.3    63  VAL63      -0.1245
     66  CA       -14.8250   22.6680  -18.8210 C.3    63  VAL63       0.1561
     67  C        -15.7200   21.4270  -19.0050 C.2    63  VAL63       0.2260
     68  O        -15.7040   20.5080  -18.1790 O.2    63  VAL63      -0.2867
     69  CB       -13.3310   22.3810  -19.1220 C.3    63  VAL63       0.0252
     70  CG1      -12.8200   21.1940  -18.3130 C.3    63  VAL63       0.0019
     71  CG2      -13.1010   22.1590  -20.6110 C.3    63  VAL63       0.0019
     72  N        -13.8090   16.6920  -24.8400 N.3    79  PHE79      -0.1227
     73  CA       -14.0980   17.9440  -24.1320 C.3    79  PHE79       0.1736
     74  C        -14.5370   19.0450  -25.0970 C.2    79  PHE79       0.2595
     75  O        -14.2220   18.9940  -26.2900 O.2    79  PHE79      -0.2718
     76  CB       -12.8470   18.4460  -23.3940 C.3    79  PHE79       0.0547
     77  CG       -12.4980   17.6700  -22.1570 C.ar   79  PHE79      -0.0202
     78  CD1      -13.1150   17.9570  -20.9370 C.ar   79  PHE79      -0.0042
     79  CD2      -11.5180   16.6750  -22.1960 C.ar   79  PHE79      -0.0042
     80  CE1      -12.7760   17.2500  -19.7890 C.ar   79  PHE79      -0.0003
     81  CE2      -11.1710   15.9690  -21.0500 C.ar   79  PHE79      -0.0003
     82  CZ       -11.7980   16.2570  -19.8470 C.ar   79  PHE79      -0.0000
     83  N        -15.2370   20.0520  -24.5700 N.am   80  GLU80      -0.1965
     84  CA       -15.4160   21.3230  -25.2810 C.3    80  GLU80       0.1733
     85  C        -14.0420   21.9710  -25.4960 C.2    80  GLU80       0.2616
     86  O        -13.1310   21.8060  -24.6670 O.2    80  GLU80      -0.2715
     87  CB       -16.3610   22.2760  -24.5230 C.3    80  GLU80       0.0429
     88  CG       -15.7790   22.8800  -23.2510 C.3    80  GLU80       0.1163
     89  CD       -16.6240   23.9830  -22.6500 C.2    80  GLU80       0.3649
     90  OE1      -16.9320   24.9740  -23.3410 O.co2  80  GLU80      -0.2457
     91  OE2      -16.9610   23.8670  -21.4580 O.co2  80  GLU80      -0.2457
     92  N        -13.8980   22.6770  -26.6160 N.am   81  PHE81      -0.1960
     93  CA       -12.6490   23.3480  -26.9550 C.3    81  PHE81       0.1771
     94  C        -12.6750   24.7950  -26.4960 C.2    81  PHE81       0.2619
     95  O        -13.6210   25.5210  -26.7860 O.2    81  PHE81      -0.2715
     96  CB       -12.3850   23.2680  -28.4660 C.3    81  PHE81       0.0574
     97  CG       -11.2040   24.0820  -28.9310 C.ar   81  PHE81      -0.0200
     98  CD1       -9.9090   23.5530  -28.8850 C.ar   81  PHE81      -0.0042
     99  CD2      -11.3820   25.3810  -29.4370 C.ar   81  PHE81      -0.0042
    100  CE1       -8.8170   24.3080  -29.3190 C.ar   81  PHE81      -0.0003
    101  CE2      -10.2920   26.1370  -29.8700 C.ar   81  PHE81      -0.0003
    102  CZ        -9.0090   25.6010  -29.8120 C.ar   81  PHE81      -0.0000
    103  N        -11.6250   25.2060  -25.7910 N.am   82  LEU82      -0.1963
    104  CA       -11.3990   26.6230  -25.4830 C.3    82  LEU82       0.1728
    105  C        -10.1270   27.1320  -26.1640 C.2    82  LEU82       0.2616
    106  O         -9.1860   26.3670  -26.3740 O.2    82  LEU82      -0.2715
    107  CB       -11.3860   26.8770  -23.9720 C.3    82  LEU82       0.0311
    108  CG       -12.7720   26.8330  -23.3120 C.3    82  LEU82       0.0022
    109  CD1      -13.0420   25.4670  -22.6980 C.3    82  LEU82       0.0001
    110  CD2      -12.8950   27.9150  -22.2540 C.3    82  LEU82       0.0001
    111  N        -10.1200   28.4220  -26.4980 N.am   83  HIS83      -0.1959
    112  CA        -9.1200   29.0230  -27.4000 C.3    83  HIS83       0.1787
    113  C         -7.7250   29.1910  -26.8010 C.2    83  HIS83       0.2620
    114  O         -6.7270   29.0640  -27.5100 O.2    83  HIS83      -0.2715
    115  CB        -9.6270   30.3610  -27.9600 C.3    83  HIS83       0.0785
    116  CG       -10.9490   30.2570  -28.6600 C.ar   83  HIS83       0.0821
    117  ND1      -11.0620   30.1350  -30.0310 N.ar   83  HIS83      -0.2267
    118  CD2      -12.2160   30.2360  -28.1760 C.ar   83  HIS83       0.1154
    119  CE1      -12.3400   30.0500  -30.3590 C.ar   83  HIS83       0.1986
    120  NE2      -13.0610   30.1080  -29.2530 N.ar   83  HIS83      -0.2212
    121  N         -7.6620   29.4650  -25.4990 N.am   84  GLN84      -0.1963
    122  CA        -6.4110   29.8270  -24.8300 C.3    84  GLN84       0.1733
    123  C         -6.4370   29.4270  -23.3490 C.2    84  GLN84       0.2616
    124  O         -7.5120   29.2940  -22.7610 O.2    84  GLN84      -0.2715
    125  CB        -6.1670   31.3420  -25.0060 C.3    84  GLN84       0.0408
    126  CG        -4.8530   31.9050  -24.4750 C.3    84  GLN84       0.0908
    127  CD        -3.6680   31.6100  -25.3680 C.2    84  GLN84       0.2608
    128  OE1       -3.1530   32.5070  -26.0360 O.2    84  GLN84      -0.2717
    129  NE2       -3.2250   30.3500  -25.3870 N.am   84  GLN84      -0.0878
    130  N         -5.2550   29.2010  -22.7710 N.am   85  ASP85      -0.1971
    131  CA        -5.1000   29.0610  -21.3180 C.3    85  ASP85       0.1709
    132  C         -4.5790   30.3590  -20.7070 C.2    85  ASP85       0.2293
    133  O         -3.9320   31.1470  -21.4000 O.2    85  ASP85      -0.2864
    134  CB        -4.2430   27.8330  -20.9310 C.3    85  ASP85       0.1436
    135  CG        -2.7470   28.0100  -21.2060 C.2    85  ASP85       0.3671
    136  OD1       -2.0860   28.8480  -20.5560 O.co2  85  ASP85      -0.2456
    137  OD2       -2.2140   27.2530  -22.0430 O.co2  85  ASP85      -0.2456
    138  N         -0.5340   31.4640  -20.9600 N.3    88  LYS88      -0.1245
    139  CA        -0.1570   31.9820  -22.2800 C.3    88  LYS88       0.1561
    140  C         -0.7910   33.3390  -22.6000 C.2    88  LYS88       0.2260
    141  O         -0.1910   34.1540  -23.3030 O.2    88  LYS88      -0.2867
    142  CB        -0.4750   30.9610  -23.3740 C.3    88  LYS88       0.0271
    143  CG         0.5140   29.8020  -23.4230 C.3    88  LYS88       0.0035
    144  CD        -0.0460   28.5910  -24.1510 C.3    88  LYS88       0.0206
    145  CE         0.3540   28.5590  -25.6170 C.3    88  LYS88       0.1093
    146  NZ         0.0650   27.2210  -26.2070 N.3    88  LYS88      -0.1314
    147  N         -4.1140   26.4650  -11.1370 N.3   128  LYS128     -0.1245
    148  CA        -2.9420   27.1800  -11.6590 C.3   128  LYS128      0.1561
    149  C         -3.3380   27.7030  -13.0470 C.2   128  LYS128      0.2260
    150  O         -4.2360   27.1250  -13.6670 O.2   128  LYS128     -0.2867
    151  CB        -1.6960   26.2690  -11.7170 C.3   128  LYS128      0.0271
    152  CG        -1.7930   25.0610  -12.6410 C.3   128  LYS128      0.0035
    153  CD        -0.5870   24.1580  -12.4720 C.3   128  LYS128      0.0206
    154  CE        -0.5590   23.0630  -13.5200 C.3   128  LYS128      0.1093
    155  NZ         0.6330   22.1960  -13.3320 N.3   128  LYS128     -0.1314
    156  N         -2.3650   27.4850  -16.1040 N.3   130  GLN130     -0.1231
    157  CA        -2.4210   26.4490  -17.1480 C.3   130  GLN130      0.1698
    158  C         -3.7480   25.6900  -17.1840 C.2   130  GLN130      0.2592
    159  O         -4.2000   25.2760  -18.2570 O.2   130  GLN130     -0.2718
    160  CB        -1.2860   25.4310  -16.9650 C.3   130  GLN130      0.0381
    161  CG         0.1170   25.9510  -17.2530 C.3   130  GLN130      0.0905
    162  CD         0.7630   26.6980  -16.0870 C.2   130  GLN130      0.2608
    163  OE1        0.1970   26.8190  -14.9860 O.2   130  GLN130     -0.2717
    164  NE2        1.9630   27.2200  -16.3330 N.am  130  GLN130     -0.0878
    165  N         -4.3530   25.5070  -16.0090 N.am  131  ASN131     -0.1974
    166  CA        -5.6170   24.7770  -15.8550 C.3   131  ASN131      0.1688
    167  C         -6.8750   25.6610  -15.9170 C.2   131  ASN131      0.2292
    168  O         -7.9860   25.2030  -15.6270 O.2   131  ASN131     -0.2864
    169  CB        -5.5840   23.9400  -14.5650 C.3   131  ASN131      0.1181
    170  CG        -4.6200   22.7660  -14.6530 C.2   131  ASN131      0.2629
    171  OD1       -4.2680   22.3200  -15.7440 O.2   131  ASN131     -0.2716
    172  ND2       -4.1910   22.2570  -13.5010 N.am  131  ASN131     -0.0877
    173  N         -8.9640   28.0090  -18.5090 N.3   133  LEU133     -0.1245
    174  CA        -9.1000   28.1480  -19.9600 C.3   133  LEU133      0.1561
    175  C        -10.0910   29.2420  -20.3400 C.2   133  LEU133      0.2260
    176  O        -11.1170   29.3960  -19.6880 O.2   133  LEU133     -0.2867
    177  CB        -9.5010   26.8100  -20.5950 C.3   133  LEU133      0.0270
    178  CG        -8.6940   25.5330  -20.3000 C.3   133  LEU133      0.0019
    179  CD1       -9.3350   24.3490  -21.0080 C.3   133  LEU133      0.0001
    180  CD2       -7.2230   25.6400  -20.6850 C.3   133  LEU133      0.0001
    181  N        -10.2880   23.5920  -15.5100 N.3   143  ALA143     -0.1231
    182  CA        -9.9500   22.4040  -16.3010 C.3   143  ALA143      0.1694
    183  C         -8.9600   21.4890  -15.5890 C.2   143  ALA143      0.2592
    184  O         -8.3170   21.8960  -14.6150 O.2   143  ALA143     -0.2718
    185  CB        -9.4100   22.8080  -17.6640 C.3   143  ALA143      0.0304
    186  N         -8.8460   20.2650  -16.1110 N.am  144  ASP144     -0.1974
    187  CA        -7.9930   19.1840  -15.5910 C.3   144  ASP144      0.1709
    188  C         -8.3070   18.7950  -14.1360 C.2   144  ASP144      0.2293
    189  O         -7.6970   19.2920  -13.1820 O.2   144  ASP144     -0.2864
    190  CB        -6.4910   19.4500  -15.8190 C.3   144  ASP144      0.1436
    191  CG        -5.6500   18.1610  -15.8300 C.2   144  ASP144      0.3671
    192  OD1       -6.1100   17.0900  -15.3600 O.co2 144  ASP144     -0.2456
    193  OD2       -4.5010   18.2250  -16.3110 O.co2 144  ASP144     -0.2456
@<TRIPOS>BOND
     1     1     2    1
     2    59    58    1
     3     5     2    1
     4     5     6    1
     5     9     7   ar
     6     2     3    1
     7    58    57    1
     8     6     7    1
     9     7     8   ar
    10    54    53    2
    11    57    56    1
    12     3    10   am
    13     3     4    2
    14    56    55    1
    15    53    52    1
    16    10    11    1
    17    55    52    1
    18    52    51    1
    19   119   117   ar
    20   119   120   ar
    21    11    14    1
    22    11    12    1
    23   117   116   ar
    24    14    15    1
    25   101   102   ar
    26   101    99   ar
    27    13    12    2
    28   102   100   ar
    29    12    19   am
    30    99    97   ar
    31   100    98   ar
    32   120   118   ar
    33    97    98   ar
    34    97    96    1
    35   116   118   ar
    36   116   115    1
    37    96    93    1
    38    15    16    1
    39    19    20    1
    40    24    26    1
    41    24    23    1
    42    16    17    1
    43   115   112    1
    44    60    61    1
    45    20    23    1
    46    20    21    1
    47   114   113    2
    48   112   113    1
    49   112   111    1
    50    61    62    1
    51    61    64    1
    52    47    46    2
    53    23    25    1
    54    62    63    2
    55    93    92    1
    56    93    94    1
    57    46    45    1
    58   113   121   am
    59    95    94    2
    60    17    18    1
    61    92    85   am
    62   111   105   am
    63    94   103   am
    64   106   105    2
    65    21    22    2
    66    21    27   am
    67    75    74    2
    68   146   145    1
    69   105   104    1
    70   128   127    2
    71   103   104    1
    72    27    28    1
    73   145   144    1
    74   121   122    1
    75    85    84    1
    76    85    86    2
    77   104   107    1
    78   129   127   am
    79    45    44    1
    80    45    48    1
    81   127   126    1
    82    84    83    1
    83    84    87    1
    84    74    83   am
    85    74    73    1
    86   125   122    1
    87   125   126    1
    88    49    48    1
    89    72    73    1
    90   122   123    1
    91    28    29    1
    92    87    88    1
    93    48    50    1
    94   144   143    1
    95    73    76    1
    96    30    29    2
    97   107   108    1
    98    39    37   ar
    99    29    31   am
   100   143   142    1
   101    76    77    1
   102   142   139    1
   103   123   130   am
   104   123   124    2
   105    90    89   ar
   106   108   109    1
   107   108   110    1
   108   141   140    2
   109    88    89    1
   110    37    36    1
   111    37    38   ar
   112    36    35    1
   113   130   131    1
   114    89    91   ar
   115    31    32    1
   116   140   139    1
   117   139   138    1
   118    79    77   ar
   119    79    81   ar
   120    77    78   ar
   121   137   135   ar
   122    35    32    1
   123    32    33    1
   124   133   132    2
   125   131   134    1
   126   131   132    1
   127   135   134    1
   128   135   136   ar
   129    81    82   ar
   130   179   178    1
   131    78    80   ar
   132   180   178    1
   133    71    69    1
   134   177   178    1
   135   177   174    1
   136   175   174    1
   137   175   176    2
   138    33    34    2
   139    33    40   am
   140   174   173    1
   141    82    80   ar
   142    40    41    1
   143    69    66    1
   144    69    70    1
   145    67    66    1
   146    67    68    2
   147    66    65    1
   148    41    42    1
   149   159   158    2
   150   185   182    1
   151    43    42    2
   152   161   160    1
   153   161   162    1
   154   158   157    1
   155   158   165   am
   156   157   160    1
   157   157   156    1
   158   164   162   am
   159   193   191   ar
   160   182   183    1
   161   182   181    1
   162   186   187    1
   163   186   183   am
   164   162   163    2
   165   165   166    1
   166   167   166    1
   167   167   168    2
   168   166   169    1
   169   191   190    1
   170   191   192   ar
   171   190   187    1
   172   171   170    2
   173   187   188    1
   174   183   184    2
   175   170   169    1
   176   170   172   am
   177   188   189    2
   178   150   149    2
   179   154   155    1
   180   154   153    1
   181   149   148    1
   182   152   153    1
   183   152   151    1
   184   151   148    1
   185   148   147    1
