@<TRIPOS>MOLECULE
tmp/5ln2A00.pdb
 195 187 0 0 0
SMALL
GASTEIGER

@<TRIPOS>ATOM
      1  N         -0.0440   -6.5680    8.6860 N.3     3  ILE3       -0.1245
      2  CA         1.0010   -6.6210    7.6580 C.3     3  ILE3        0.1561
      3  C          1.4870   -5.2170    7.2780 C.2     3  ILE3        0.2260
      4  O          0.6740   -4.3700    6.8880 O.2     3  ILE3       -0.2867
      5  CB         0.4960   -7.3540    6.3650 C.3     3  ILE3        0.0252
      6  CG1       -0.3570   -8.5980    6.6930 C.3     3  ILE3        0.0019
      7  CG2        1.6590   -7.6900    5.4230 C.3     3  ILE3        0.0019
      8  CD1        0.3740   -9.7350    7.4160 C.3     3  ILE3        0.0001
      9  N          4.1740   -5.8640    0.4380 N.3     8  GLN8       -0.1245
     10  CA         3.6720   -5.9480   -0.9340 C.3     8  GLN8        0.1566
     11  C          4.7440   -5.7090   -1.9960 C.2     8  GLN8        0.2260
     12  O          4.5750   -6.0990   -3.1500 O.2     8  GLN8       -0.2867
     13  CB         2.5100   -4.9770   -1.1500 C.3     8  GLN8        0.0367
     14  CG         1.2420   -5.3350   -0.4030 C.3     8  GLN8        0.0905
     15  CD         0.0000   -5.1350   -1.2490 C.2     8  GLN8        0.2608
     16  OE1       -0.2220   -4.0570   -1.7990 O.2     8  GLN8       -0.2717
     17  NE2       -0.8120   -6.1840   -1.3710 N.am    8  GLN8       -0.0878
     18  N         -0.4390  -12.0100   -4.2860 N.3    38  LEU38      -0.1231
     19  CA        -1.6400  -11.9530   -3.4730 C.3    38  LEU38       0.1693
     20  C         -2.8760  -11.6630   -4.3290 C.2    38  LEU38       0.2592
     21  O         -3.9220  -12.3010   -4.1670 O.2    38  LEU38      -0.2718
     22  CB        -1.4810  -10.8990   -2.3770 C.3    38  LEU38       0.0284
     23  CG        -2.4590  -10.9750   -1.2120 C.3    38  LEU38       0.0019
     24  CD1       -2.1970  -12.1900   -0.3200 C.3    38  LEU38       0.0001
     25  CD2       -2.3520   -9.6870   -0.4080 C.3    38  LEU38       0.0001
     26  N         -2.7530  -10.7170   -5.2560 N.am   39  PHE39      -0.1976
     27  CA        -3.8640  -10.4140   -6.1450 C.3    39  PHE39       0.1639
     28  C         -4.2940  -11.6430   -6.9470 C.2    39  PHE39       0.2290
     29  O         -5.4850  -11.9570   -7.0180 O.2    39  PHE39      -0.2864
     30  CB        -3.5330   -9.2710   -7.1010 C.3    39  PHE39       0.0560
     31  CG        -4.5610   -9.0820   -8.1700 C.ar   39  PHE39      -0.0200
     32  CD1       -5.7430   -8.4000   -7.8920 C.ar   39  PHE39      -0.0042
     33  CD2       -4.3610   -9.5920   -9.4470 C.ar   39  PHE39      -0.0042
     34  CE1       -6.7050   -8.2320   -8.8770 C.ar   39  PHE39      -0.0003
     35  CE2       -5.3280   -9.4280  -10.4450 C.ar   39  PHE39      -0.0003
     36  CZ        -6.4940   -8.7420  -10.1560 C.ar   39  PHE39      -0.0000
     37  N         -3.7530  -14.8990   -6.4000 N.3    41  LEU41      -0.1231
     38  CA        -4.3290  -15.9430   -5.5650 C.3    41  LEU41       0.1693
     39  C         -5.7590  -15.5790   -5.1890 C.2    41  LEU41       0.2593
     40  O         -6.6480  -16.4350   -5.1950 O.2    41  LEU41      -0.2718
     41  CB        -3.4770  -16.2020   -4.3160 C.3    41  LEU41       0.0284
     42  CG        -2.2080  -17.0330   -4.5400 C.3    41  LEU41       0.0019
     43  CD1       -1.2630  -16.8130   -3.3760 C.3    41  LEU41       0.0001
     44  CD2       -2.5280  -18.5170   -4.7000 C.3    41  LEU41       0.0001
     45  N         -5.9840  -14.3010   -4.8940 N.am   42  GLY42      -0.1942
     46  CA        -7.3280  -13.8290   -4.5970 C.3    42  GLY42       0.2014
     47  C         -8.2540  -14.0490   -5.7760 C.2    42  GLY42       0.2638
     48  O         -9.3840  -14.4970   -5.5970 O.2    42  GLY42      -0.2714
     49  N         -7.7790  -13.7300   -6.9790 N.am   43  GLN43      -0.1977
     50  CA        -8.5840  -13.9030   -8.1850 C.3    43  GLN43       0.1601
     51  C         -8.8720  -15.3630   -8.4740 C.2    43  GLN43       0.2287
     52  O         -9.9570  -15.7010   -8.9520 O.2    43  GLN43      -0.2864
     53  CB        -7.9220  -13.2380   -9.3870 C.3    43  GLN43       0.0394
     54  CG        -7.8700  -11.7200   -9.2860 C.3    43  GLN43       0.0908
     55  CD        -9.2180  -11.0960   -8.9550 C.2    43  GLN43       0.2608
     56  OE1       -9.5610  -10.8930   -7.7820 O.2    43  GLN43      -0.2717
     57  NE2       -9.9920  -10.7960   -9.9870 N.am   43  GLN43      -0.0878
     58  N         -9.1730  -17.7250   -6.1310 N.3    45  ILE45      -0.1231
     59  CA       -10.2190  -18.0720   -5.1550 C.3    45  ILE45       0.1692
     60  C        -11.5980  -17.6010   -5.6080 C.2    45  ILE45       0.2591
     61  O        -12.5740  -18.3350   -5.4940 O.2    45  ILE45      -0.2718
     62  CB        -9.9030  -17.4910   -3.7510 C.3    45  ILE45       0.0266
     63  CG1       -8.7130  -18.2320   -3.1440 C.3    45  ILE45       0.0019
     64  CG2      -11.1280  -17.5790   -2.8180 C.3    45  ILE45       0.0020
     65  CD1       -7.9900  -17.4590   -2.0490 C.3    45  ILE45       0.0001
     66  N        -11.6720  -16.3750   -6.1160 N.am   46  MET46      -0.1979
     67  CA       -12.9580  -15.8030   -6.4900 C.3    46  MET46       0.1605
     68  C        -13.5430  -16.4450   -7.7420 C.2    46  MET46       0.2287
     69  O        -14.7410  -16.7580   -7.7690 O.2    46  MET46      -0.2864
     70  CB       -12.8610  -14.2790   -6.6460 C.3    46  MET46       0.0413
     71  CG       -12.4910  -13.5380   -5.3530 C.3    46  MET46       0.0598
     72  SD       -13.4950  -13.9520   -3.9030 S.3    46  MET46      -0.1393
     73  CE       -15.0660  -13.2080   -4.3370 C.3    46  MET46       0.0692
     74  N        -14.8740  -19.9610   -1.8500 N.3    51  TYR51      -0.1241
     75  CA       -15.3800  -19.4520   -0.5810 C.3    51  TYR51       0.1605
     76  C        -16.8160  -19.8990   -0.3500 C.2    51  TYR51       0.2264
     77  O        -17.5520  -20.1710   -1.3020 O.2    51  TYR51      -0.2867
     78  CB       -15.3000  -17.9270   -0.5410 C.3    51  TYR51       0.0534
     79  CG       -16.0550  -17.2580   -1.6650 C.ar   51  TYR51      -0.0201
     80  CD1      -17.3630  -16.8050   -1.4820 C.ar   51  TYR51      -0.0009
     81  CD2      -15.4680  -17.0890   -2.9160 C.ar   51  TYR51      -0.0009
     82  CE1      -18.0640  -16.2020   -2.5170 C.ar   51  TYR51       0.0417
     83  CE2      -16.1560  -16.4910   -3.9560 C.ar   51  TYR51       0.0417
     84  CZ       -17.4550  -16.0460   -3.7510 C.ar   51  TYR51       0.1957
     85  OH       -18.1380  -15.4490   -4.7870 O.3    51  TYR51      -0.2866
     86  N        -18.6590  -15.8670    3.6940 N.3    56  GLN56      -0.1231
     87  CA       -17.6630  -15.4920    2.6840 C.3    56  GLN56       0.1698
     88  C        -16.2430  -15.2620    3.2100 C.2    56  GLN56       0.2592
     89  O        -15.3030  -15.1350    2.4200 O.2    56  GLN56      -0.2718
     90  CB       -18.1610  -14.3010    1.8530 C.3    56  GLN56       0.0381
     91  CG       -19.4430  -14.6180    1.0750 C.3    56  GLN56       0.0905
     92  CD       -19.8310  -13.5550    0.0640 C.2    56  GLN56       0.2608
     93  OE1      -19.3720  -12.4140    0.1270 O.2    56  GLN56      -0.2717
     94  NE2      -20.6970  -13.9270   -0.8750 N.am   56  GLN56      -0.0878
     95  N        -16.0810  -15.2350    4.5320 N.am   57  HIS57      -0.1976
     96  CA       -14.7500  -15.0940    5.1300 C.3    57  HIS57       0.1656
     97  C        -13.9310  -16.3840    5.0860 C.2    57  HIS57       0.2291
     98  O        -12.7180  -16.3540    5.3110 O.2    57  HIS57      -0.2864
     99  CB       -14.8340  -14.6000    6.5820 C.3    57  HIS57       0.0771
    100  CG       -15.4050  -13.2230    6.7310 C.ar   57  HIS57       0.0820
    101  ND1      -16.1400  -12.8400    7.8330 N.ar   57  HIS57      -0.2267
    102  CD2      -15.3610  -12.1420    5.9160 C.ar   57  HIS57       0.1154
    103  CE1      -16.5170  -11.5820    7.6940 C.ar   57  HIS57       0.1986
    104  NE2      -16.0560  -11.1350    6.5400 N.ar   57  HIS57      -0.2212
    105  N        -12.4430  -19.7350    3.1490 N.3    59  VAL59      -0.1245
    106  CA       -12.0710  -20.3900    1.9020 C.3    59  VAL59       0.1561
    107  C        -11.9660  -21.8950    2.1380 C.2    59  VAL59       0.2260
    108  O        -11.2990  -22.3370    3.0720 O.2    59  VAL59      -0.2867
    109  CB       -10.7240  -19.8440    1.3710 C.3    59  VAL59       0.0252
    110  CG1      -10.2530  -20.6330    0.1590 C.3    59  VAL59       0.0019
    111  CG2      -10.8570  -18.3680    1.0230 C.3    59  VAL59       0.0019
    112  N         -5.1980  -25.4690   -4.5270 N.3    66  LEU66      -0.1245
    113  CA        -4.8880  -24.4740   -3.5060 C.3    66  LEU66       0.1561
    114  C         -4.6560  -25.1230   -2.1460 C.2    66  LEU66       0.2260
    115  O         -3.7860  -24.6780   -1.3910 O.2    66  LEU66      -0.2867
    116  CB        -5.9820  -23.4030   -3.4120 C.3    66  LEU66       0.0270
    117  CG        -5.7610  -22.2990   -2.3670 C.3    66  LEU66       0.0019
    118  CD1       -4.4680  -21.5200   -2.6070 C.3    66  LEU66       0.0001
    119  CD2       -6.9530  -21.3630   -2.3480 C.3    66  LEU66       0.0001
    120  N         -1.2970  -24.6540    0.1240 N.3    70  PHE70      -0.1241
    121  CA        -1.3510  -24.0560    1.4500 C.3    70  PHE70       0.1605
    122  C         -1.2030  -25.0730    2.5690 C.2    70  PHE70       0.2264
    123  O         -0.8300  -24.7110    3.6900 O.2    70  PHE70      -0.2867
    124  CB        -2.6560  -23.2620    1.6110 C.3    70  PHE70       0.0534
    125  CG        -2.5980  -21.8680    1.0320 C.ar   70  PHE70      -0.0203
    126  CD1       -1.5690  -21.4880    0.1660 C.ar   70  PHE70      -0.0042
    127  CD2       -3.5880  -20.9420    1.3380 C.ar   70  PHE70      -0.0042
    128  CE1       -1.5220  -20.2000   -0.3640 C.ar   70  PHE70      -0.0003
    129  CE2       -3.5510  -19.6550    0.8100 C.ar   70  PHE70      -0.0003
    130  CZ        -2.5170  -19.2850   -0.0420 C.ar   70  PHE70      -0.0000
    131  N         -9.2900  -22.0590    5.3850 N.3    75  PHE75      -0.1241
    132  CA        -8.7180  -20.9500    6.1490 C.3    75  PHE75       0.1605
    133  C         -9.6280  -19.7330    6.0830 C.2    75  PHE75       0.2264
    134  O        -10.4860  -19.6270    5.2060 O.2    75  PHE75      -0.2867
    135  CB        -7.2940  -20.5890    5.6770 C.3    75  PHE75       0.0534
    136  CG        -7.2200  -20.1160    4.2480 C.ar   75  PHE75      -0.0203
    137  CD1       -7.2360  -18.7560    3.9490 C.ar   75  PHE75      -0.0042
    138  CD2       -7.1350  -21.0310    3.2050 C.ar   75  PHE75      -0.0042
    139  CE1       -7.1700  -18.3170    2.6250 C.ar   75  PHE75      -0.0003
    140  CE2       -7.0730  -20.6080    1.8800 C.ar   75  PHE75      -0.0003
    141  CZ        -7.0840  -19.2400    1.5900 C.ar   75  PHE75      -0.0000
    142  N        -10.0140  -15.6960    5.4850 N.3    77  VAL77      -0.1231
    143  CA        -9.3660  -14.5920    4.7580 C.3    77  VAL77       0.1692
    144  C         -8.9130  -13.4640    5.6750 C.2    77  VAL77       0.2591
    145  O         -8.1490  -12.6060    5.2460 O.2    77  VAL77      -0.2718
    146  CB       -10.2600  -14.0010    3.6360 C.3    77  VAL77       0.0266
    147  CG1      -10.5830  -15.0650    2.5980 C.3    77  VAL77       0.0020
    148  CG2      -11.5260  -13.3630    4.2150 C.3    77  VAL77       0.0020
    149  N         -9.3790  -13.4830    6.9240 N.am   78  LYS78      -0.1980
    150  CA        -9.0340  -12.4570    7.9100 C.3    78  LYS78       0.1596
    151  C         -7.6770  -12.7010    8.5680 C.2    78  LYS78       0.2287
    152  O         -7.0940  -11.7840    9.1520 O.2    78  LYS78      -0.2864
    153  CB       -10.1210  -12.3580    8.9920 C.3    78  LYS78       0.0298
    154  CG       -11.4830  -11.8700    8.4910 C.3    78  LYS78       0.0038
    155  CD       -11.4710  -10.3720    8.1820 C.3    78  LYS78       0.0206
    156  CE       -12.8120   -9.8930    7.6310 C.3    78  LYS78       0.1093
    157  NZ       -12.9920  -10.2310    6.1880 N.3    78  LYS78      -0.1314
    158  N         -4.3980  -12.7970    8.0730 N.3    80  HIS80      -0.1241
    159  CA        -3.4300  -12.3370    7.0790 C.3    80  HIS80       0.1621
    160  C         -2.0120  -12.8550    7.2950 C.2    80  HIS80       0.2264
    161  O         -1.3610  -13.2760    6.3410 O.2    80  HIS80      -0.2867
    162  CB        -3.4650  -10.8090    6.9730 C.3    80  HIS80       0.0745
    163  CG        -4.7400  -10.2890    6.3900 C.ar   80  HIS80       0.0817
    164  ND1       -4.9590   -8.9520    6.1370 N.ar   80  HIS80      -0.2268
    165  CD2       -5.8590  -10.9350    5.9890 C.ar   80  HIS80       0.1154
    166  CE1       -6.1660   -8.7960    5.6220 C.ar   80  HIS80       0.1986
    167  NE2       -6.7330   -9.9840    5.5220 N.ar   80  HIS80      -0.2212
    168  N         -1.9050  -16.4640    6.2130 N.3    83  ILE83      -0.1231
    169  CA        -1.9230  -16.5310    4.7480 C.3    83  ILE83       0.1692
    170  C         -0.5420  -16.2730    4.1400 C.2    83  ILE83       0.2592
    171  O         -0.1000  -17.0250    3.2690 O.2    83  ILE83      -0.2718
    172  CB        -3.0050  -15.6010    4.1550 C.3    83  ILE83       0.0266
    173  CG1       -4.3910  -16.1990    4.4170 C.3    83  ILE83       0.0019
    174  CG2       -2.7990  -15.3940    2.6560 C.3    83  ILE83       0.0020
    175  CD1       -5.5220  -15.1930    4.3580 C.3    83  ILE83       0.0001
    176  N          0.1490  -15.2350    4.6170 N.am   84  TYR84      -0.1976
    177  CA         1.5000  -14.9480    4.1400 C.3    84  TYR84       0.1639
    178  C          2.4670  -16.1140    4.3690 C.2    84  TYR84       0.2290
    179  O          3.2630  -16.4340    3.4870 O.2    84  TYR84      -0.2864
    180  CB         2.0370  -13.6290    4.7130 C.3    84  TYR84       0.0560
    181  CG         1.6380  -12.4240    3.8950 C.ar   84  TYR84      -0.0198
    182  CD1        2.3290  -12.0930    2.7350 C.ar   84  TYR84      -0.0009
    183  CD2        0.5630  -11.6240    4.2670 C.ar   84  TYR84      -0.0009
    184  CE1        1.9610  -10.9970    1.9650 C.ar   84  TYR84       0.0417
    185  CE2        0.1940  -10.5130    3.5040 C.ar   84  TYR84       0.0417
    186  CZ         0.8950  -10.2130    2.3570 C.ar   84  TYR84       0.1957
    187  OH         0.5410   -9.1170    1.6000 O.3    84  TYR84      -0.2866
    188  N          1.6280  -18.8270    1.8420 N.3    87  ILE87      -0.1245
    189  CA         2.1340  -18.4300    0.5250 C.3    87  ILE87       0.1561
    190  C          3.6450  -18.6440    0.4650 C.2    87  ILE87       0.2260
    191  O          4.1610  -19.2020   -0.5030 O.2    87  ILE87      -0.2867
    192  CB         1.7570  -16.9590    0.1820 C.3    87  ILE87       0.0252
    193  CG1        0.2380  -16.8250    0.0410 C.3    87  ILE87       0.0019
    194  CG2        2.4550  -16.4780   -1.0880 C.3    87  ILE87       0.0019
    195  CD1       -0.2510  -15.3810   -0.0110 C.3    87  ILE87       0.0001
@<TRIPOS>BOND
     1    35    36   ar
     2    35    33   ar
     3    36    34   ar
     4    57    55   am
     5    33    31   ar
     6    53    54    1
     7    53    50    1
     8    54    55    1
     9    55    56    2
    10    52    51    2
    11    34    32   ar
    12    51    50    1
    13    50    49    1
    14    31    32   ar
    15    31    30    1
    16    69    68    2
    17    68    67    1
    18    30    27    1
    19    29    28    2
    20    49    47   am
    21    28    27    1
    22    70    67    1
    23    70    71    1
    24    67    66    1
    25    37    38    1
    26    27    26    1
    27    58    59    1
    28    66    60   am
    29    47    48    2
    30    47    46    1
    31    60    61    2
    32    60    59    1
    33    38    39    1
    34    38    41    1
    35    71    72    1
    36    26    20   am
    37    40    39    2
    38    39    45   am
    39    59    62    1
    40    45    46    1
    41    85    84    1
    42    44    42    1
    43    42    41    1
    44    42    43    1
    45   112   113    1
    46    73    72    1
    47    20    21    2
    48    20    19    1
    49    18    19    1
    50    83    84   ar
    51    83    81   ar
    52    62    63    1
    53    62    64    1
    54    84    82   ar
    55   113   116    1
    56   113   114    1
    57    19    22    1
    58   116   117    1
    59    12    11    2
    60    63    65    1
    61    81    79   ar
    62   118   117    1
    63    82    80   ar
    64    22    23    1
    65   117   119    1
    66   114   115    2
    67    11    10    1
    68    74    75    1
    69    16    15    2
    70    79    80   ar
    71    79    78    1
    72    17    15   am
    73    77    76    2
    74    15    14    1
    75    23    25    1
    76    23    24    1
    77    13    10    1
    78    13    14    1
    79   194   192    1
    80    10     9    1
    81    94    92   am
    82    75    78    1
    83    75    76    1
    84   191   190    2
    85   128   130   ar
    86   128   126   ar
    87   130   129   ar
    88   195   193    1
    89   193   192    1
    90    92    93    2
    91    92    91    1
    92   120   121    1
    93   110   109    1
    94   126   125   ar
    95   192   189    1
    96   190   189    1
    97   189   188    1
    98   129   127   ar
    99   111   109    1
   100   125   127   ar
   101   125   124    1
   102    91    90    1
   103   109   106    1
   104   121   124    1
   105   121   122    1
   106   141   140   ar
   107   141   139   ar
   108   187   186    1
   109    90    87    1
   110   140   138   ar
   111   106   107    1
   112   106   105    1
   113   184   186   ar
   114   184   182   ar
   115   107   108    2
   116   186   185   ar
   117    89    88    2
   118   122   123    2
   119   147   146    1
   120   139   137   ar
   121   174   172    1
   122    87    88    1
   123    87    86    1
   124   182   181   ar
   125   138   136   ar
   126    88    95   am
   127   171   170    2
   128   179   178    2
   129   185   183   ar
   130   146   148    1
   131   146   143    1
   132   181   183   ar
   133   181   180    1
   134   137   136   ar
   135   177   178    1
   136   177   176    1
   137   177   180    1
   138   170   176   am
   139   170   169    1
   140   172   173    1
   141   172   169    1
   142   136   135    1
   143   175   173    1
   144    95    96    1
   145   169   168    1
   146   143   142    1
   147   143   144    1
   148    97    96    1
   149    97    98    2
   150    96    99    1
   151   134   133    2
   152   145   144    2
   153   131   132    1
   154     7     5    1
   155   167   166   ar
   156   167   165   ar
   157   166   164   ar
   158   144   149   am
   159   135   132    1
   160   102   104   ar
   161   102   100   ar
   162   165   163   ar
   163   133   132    1
   164   164   163   ar
   165   157   156    1
   166   161   160    2
   167     5     6    1
   168     5     2    1
   169   163   162    1
   170   104   103   ar
   171    99   100    1
   172     6     8    1
   173   100   101   ar
   174     4     3    2
   175   149   150    1
   176   162   159    1
   177   159   160    1
   178   159   158    1
   179     3     2    1
   180   156   155    1
   181     2     1    1
   182   103   101   ar
   183   150   151    1
   184   150   153    1
   185   155   154    1
   186   154   153    1
   187   151   152    2
