@<TRIPOS>MOLECULE
tmp/5lneB01.pdb
 100 93 0 0 0
SMALL
GASTEIGER

@<TRIPOS>ATOM
      1  N        -13.1060  -48.8410    8.3790 N.3     1  PHE1       -0.1241
      2  CA       -12.8430  -49.1650    9.8280 C.3     1  PHE1        0.1605
      3  C        -14.1610  -49.4220   10.5300 C.2     1  PHE1        0.2264
      4  O        -15.1100  -48.6550   10.3060 O.2     1  PHE1       -0.2867
      5  CB       -12.0840  -48.0280   10.4770 C.3     1  PHE1        0.0534
      6  CG       -11.8490  -48.1900   11.9700 C.ar    1  PHE1       -0.0203
      7  CD1      -10.9170  -49.1320   12.4490 C.ar    1  PHE1       -0.0042
      8  CD2      -12.5220  -47.4000   12.8630 C.ar    1  PHE1       -0.0042
      9  CE1      -10.6950  -49.2690   13.8000 C.ar    1  PHE1       -0.0003
     10  CE2      -12.3090  -47.5190   14.2280 C.ar    1  PHE1       -0.0003
     11  CZ       -11.3840  -48.4300   14.7020 C.ar    1  PHE1       -0.0000
     12  N        -10.0390  -53.6260   10.9840 N.3    44  ASN44      -0.1225
     13  CA        -9.8590  -53.1190    9.6550 C.3    44  ASN44       0.1785
     14  C        -10.8520  -53.8250    8.7480 C.2    44  ASN44       0.2597
     15  O        -10.9950  -55.0270    8.8040 O.2    44  ASN44      -0.2718
     16  CB        -8.4310  -53.3760    9.2360 C.3    44  ASN44       0.1169
     17  CG        -8.0350  -52.6330    7.9710 C.2    44  ASN44       0.2627
     18  OD1       -8.4020  -53.0390    6.8330 O.2    44  ASN44      -0.2716
     19  ND2       -7.3140  -51.5190    8.1490 N.am   44  ASN44      -0.0877
     20  N        -11.5150  -53.0690    7.8890 N.am   45  ASP45      -0.1960
     21  CA       -12.4940  -53.6560    6.9660 C.3    45  ASP45       0.1840
     22  C        -11.9020  -54.4600    5.7390 C.2    45  ASP45       0.2622
     23  O        -12.6200  -55.2430    5.1670 O.2    45  ASP45      -0.2715
     24  CB       -13.5050  -52.6290    6.5180 C.3    45  ASP45       0.1450
     25  CG       -14.3980  -52.1490    7.6820 C.2    45  ASP45       0.3671
     26  OD1      -14.8460  -52.9830    8.4570 O.co2  45  ASP45      -0.2456
     27  OD2      -14.7290  -50.9560    7.7650 O.co2  45  ASP45      -0.2456
     28  N        -10.6200  -54.2880    5.3940 N.am   46  TYR46      -0.1974
     29  CA       -10.0400  -55.0580    4.3380 C.3    46  TYR46       0.1639
     30  C         -9.1800  -56.1900    4.8780 C.2    46  TYR46       0.2290
     31  O         -9.1470  -57.2600    4.2910 O.2    46  TYR46      -0.2864
     32  CB        -9.2260  -54.1810    3.3970 C.3    46  TYR46       0.0560
     33  CG        -9.8920  -52.9370    2.8420 C.ar   46  TYR46      -0.0198
     34  CD1      -11.2040  -52.9430    2.4180 C.ar   46  TYR46      -0.0009
     35  CD2       -9.1510  -51.8100    2.6140 C.ar   46  TYR46      -0.0009
     36  CE1      -11.7680  -51.8080    1.8740 C.ar   46  TYR46       0.0417
     37  CE2       -9.6800  -50.6950    2.0150 C.ar   46  TYR46       0.0417
     38  CZ       -10.9860  -50.6950    1.6550 C.ar   46  TYR46       0.1957
     39  OH       -11.5100  -49.5250    1.1150 O.3    46  TYR46      -0.2866
     40  N         -4.8190  -50.9680    3.9350 N.3    51  ASP51      -0.1239
     41  CA        -5.1850  -49.5750    4.2200 C.3    51  ASP51       0.1674
     42  C         -5.2980  -49.4750    5.7090 C.2    51  ASP51       0.2266
     43  O         -6.3620  -49.6090    6.2280 O.2    51  ASP51      -0.2867
     44  CB        -6.5100  -49.1600    3.5450 C.3    51  ASP51       0.1410
     45  CG        -6.7550  -47.6570    3.6270 C.2    51  ASP51       0.3668
     46  OD1       -5.8710  -46.9760    4.1800 O.co2  51  ASP51      -0.2456
     47  OD2       -7.8260  -47.1230    3.1530 O.co2  51  ASP51      -0.2456
     48  N         -5.5650  -48.5890    9.5720 N.3    53  ASP53      -0.1239
     49  CA        -6.2980  -47.6340   10.3730 C.3    53  ASP53       0.1674
     50  C         -5.5020  -47.1560   11.5610 C.2    53  ASP53       0.2266
     51  O         -4.8630  -47.9510   12.1860 O.2    53  ASP53      -0.2867
     52  CB        -7.6280  -48.2300   10.8150 C.3    53  ASP53       0.1410
     53  CG        -8.5850  -48.4810    9.6370 C.2    53  ASP53       0.3668
     54  OD1       -8.8880  -47.4640    8.9520 O.co2  53  ASP53      -0.2456
     55  OD2       -9.1000  -49.6580    9.4690 O.co2  53  ASP53      -0.2456
     56  N        -10.4280  -41.7010   14.1550 N.3   130  LYS130     -0.1245
     57  CA        -9.8470  -42.6370   13.2310 C.3   130  LYS130      0.1561
     58  C         -9.4460  -41.8920   11.9990 C.2   130  LYS130      0.2260
     59  O        -10.2560  -41.1060   11.5050 O.2   130  LYS130     -0.2867
     60  CB       -10.8990  -43.7080   12.8620 C.3   130  LYS130      0.0271
     61  CG       -10.5240  -44.5510   11.6120 C.3   130  LYS130      0.0035
     62  CD       -11.3900  -44.1720   10.3760 C.3   130  LYS130      0.0206
     63  CE       -10.7380  -44.7250    9.1560 C.3   130  LYS130      0.1093
     64  NZ       -11.4710  -44.5470    7.8670 N.3   130  LYS130     -0.1314
     65  N         -7.2010  -43.3260    8.1980 N.3   132  ALA132     -0.1245
     66  CA        -6.5050  -44.4690    7.6080 C.3   132  ALA132      0.1562
     67  C         -5.3160  -43.9510    6.8510 C.2   132  ALA132      0.2260
     68  O         -4.8460  -42.8540    7.1330 O.2   132  ALA132     -0.2867
     69  CB        -7.4500  -45.2930    6.7520 C.3   132  ALA132      0.0290
     70  N         -4.6020  -44.5700    3.0590 N.3   134  LEU134     -0.1245
     71  CA        -4.7910  -44.2340    1.5970 C.3   134  LEU134      0.1561
     72  C         -5.7330  -43.0750    1.3770 C.2   134  LEU134      0.2260
     73  O         -6.6180  -42.8560    2.1740 O.2   134  LEU134     -0.2867
     74  CB        -5.2710  -45.4730    0.7820 C.3   134  LEU134      0.0270
     75  CG        -4.4240  -46.8020    0.9170 C.3   134  LEU134      0.0019
     76  CD1       -4.9970  -48.0030    0.1640 C.3   134  LEU134      0.0001
     77  CD2       -2.9580  -46.6290    0.5040 C.3   134  LEU134      0.0001
     78  N         -7.7190  -40.7300    3.8020 N.3   137  GLY137     -0.1210
     79  CA        -7.7810  -41.4460    5.0900 C.3   137  GLY137      0.1956
     80  C         -9.1780  -41.5790    5.6850 C.2   137  GLY137      0.2611
     81  O         -9.3230  -42.3060    6.6660 O.2   137  GLY137     -0.2717
     82  N        -10.2020  -40.9310    5.0760 N.am  138  ASN138     -0.1974
     83  CA       -11.6200  -40.9690    5.5200 C.3   138  ASN138      0.1688
     84  C        -11.7920  -40.8870    7.0490 C.2   138  ASN138      0.2292
     85  O        -12.2720  -41.8310    7.6820 O.2   138  ASN138     -0.2864
     86  CB       -12.3970  -42.1700    4.8810 C.3   138  ASN138      0.1181
     87  CG       -12.3170  -42.1670    3.3340 C.2   138  ASN138      0.2629
     88  OD1      -12.1340  -43.2050    2.6890 O.2   138  ASN138     -0.2716
     89  ND2      -12.4000  -40.9840    2.7430 N.am  138  ASN138     -0.0877
     90  N        -13.0110  -40.3610   10.7580 N.3   140  ARG140     -0.1245
     91  CA       -14.2600  -40.5360   11.4000 C.3   140  ARG140      0.1563
     92  C        -14.1640  -40.2410   12.8860 C.2   140  ARG140      0.2260
     93  O        -13.1570  -40.4590   13.4490 O.2   140  ARG140     -0.2867
     94  CB       -14.6750  -42.0270   11.2620 C.3   140  ARG140      0.0307
     95  CG       -14.9230  -42.5070    9.8490 C.3   140  ARG140      0.0489
     96  CD       -16.1210  -41.7500    9.3280 C.3   140  ARG140      0.2205
     97  NE       -16.6610  -42.4200    8.1670 N.pl3 140  ARG140     -0.0865
     98  CZ       -16.3040  -42.1600    6.9120 C.cat 140  ARG140      0.5346
     99  NH1      -15.4090  -41.2020    6.5900 N.pl3 140  ARG140      0.1354
    100  NH2      -16.8770  -42.8790    5.9490 N.pl3 140  ARG140      0.1354
@<TRIPOS>BOND
     1    76    75    1
     2    77    75    1
     3    74    75    1
     4    74    71    1
     5    39    38    1
     6    72    71    1
     7    72    73    2
     8    71    70    1
     9    38    36   ar
    10    38    37   ar
    11    36    34   ar
    12    37    35   ar
    13    34    33   ar
    14    35    33   ar
    15    88    87    2
    16    89    87   am
    17    33    32    1
    18    47    45   ar
    19    87    86    1
    20    32    29    1
    21    44    45    1
    22    44    41    1
    23    45    46   ar
    24    78    79    1
    25    40    41    1
    26    41    42    1
    27    31    30    2
    28    29    30    1
    29    29    28    1
    30    86    83    1
    31    82    83    1
    32    82    80   am
    33    79    80    1
    34    23    22    2
    35    28    22   am
    36    83    84    1
    37    80    81    2
    38    42    43    2
    39    22    21    1
    40   100    98    1
    41    24    21    1
    42    24    25    1
    43    99    98    1
    44    69    66    1
    45    18    17    2
    46    67    68    2
    47    67    66    1
    48    98    97    2
    49    21    20    1
    50    84    85    2
    51    66    65    1
    52    25    27   ar
    53    25    26   ar
    54    64    63    1
    55    20    14   am
    56    17    19   am
    57    17    16    1
    58    97    96    1
    59     1     2    1
    60    14    15    2
    61    14    13    1
    62    54    53   ar
    63    63    62    1
    64    16    13    1
    65    96    95    1
    66    55    53   ar
    67    48    49    1
    68    53    52    1
    69    13    12    1
    70     2     5    1
    71     2     3    1
    72    95    94    1
    73     4     3    2
    74    49    52    1
    75    49    50    1
    76    62    61    1
    77     5     6    1
    78    90    91    1
    79    94    91    1
    80    91    92    1
    81    59    58    2
    82    50    51    2
    83    61    60    1
    84     6     7   ar
    85     6     8   ar
    86    58    57    1
    87     7     9   ar
    88    60    57    1
    89     8    10   ar
    90    92    93    2
    91    57    56    1
    92     9    11   ar
    93    10    11   ar
