@<TRIPOS>MOLECULE
tmp/5lnfA00.pdb
 151 141 0 0 0
SMALL
GASTEIGER

@<TRIPOS>ATOM
      1  N          5.2410    6.4230   -3.8420 N.3    23  LEU23      -0.1245
      2  CA         3.9640    6.0410   -3.2490 C.3    23  LEU23       0.1561
      3  C          3.1160    7.2640   -2.9160 C.2    23  LEU23       0.2260
      4  O          2.1600    7.1850   -2.1440 O.2    23  LEU23      -0.2867
      5  CB         4.1900    5.1840   -2.0050 C.3    23  LEU23       0.0270
      6  CG         5.0950    3.9650   -2.2150 C.3    23  LEU23       0.0019
      7  CD1        5.1000    3.0830   -0.9800 C.3    23  LEU23       0.0001
      8  CD2        4.6620    3.1710   -3.4380 C.3    23  LEU23       0.0001
      9  N          0.7020    6.0480   -6.4060 N.3    28  LEU28      -0.1245
     10  CA        -0.0120    5.1710   -5.4850 C.3    28  LEU28       0.1561
     11  C         -1.3990    4.8160   -6.0210 C.2    28  LEU28       0.2260
     12  O         -1.8310    3.6710   -5.9080 O.2    28  LEU28      -0.2867
     13  CB        -0.1340    5.8310   -4.1070 C.3    28  LEU28       0.0270
     14  CG        -0.7510    4.9620   -3.0090 C.3    28  LEU28       0.0019
     15  CD1        0.1590    3.7940   -2.6780 C.3    28  LEU28       0.0001
     16  CD2       -1.0260    5.7940   -1.7670 C.3    28  LEU28       0.0001
     17  N         -1.1520    2.1970   -8.8650 N.3    31  SER31      -0.1202
     18  CA        -0.5370    1.0090   -8.2890 C.3    31  SER31       0.2020
     19  C         -1.5440    0.2420   -7.4340 C.2    31  SER31       0.2618
     20  O         -1.6490   -0.9810   -7.5250 O.2    31  SER31      -0.2717
     21  CB         0.6830    1.4000   -7.4530 C.3    31  SER31       0.2103
     22  OG         1.5880    2.1940   -8.2090 O.3    31  SER31      -0.2182
     23  N         -2.3020    0.9670   -6.6190 N.am   32  LEU32      -0.1979
     24  CA        -3.3210    0.3460   -5.7830 C.3    32  LEU32       0.1596
     25  C         -4.4810   -0.1480   -6.6410 C.2    32  LEU32       0.2287
     26  O         -5.0510   -1.2080   -6.3850 O.2    32  LEU32      -0.2864
     27  CB        -3.8280    1.3170   -4.7100 C.3    32  LEU32       0.0297
     28  CG        -2.7950    1.7660   -3.6710 C.3    32  LEU32       0.0022
     29  CD1       -3.4580    2.6290   -2.6120 C.3    32  LEU32       0.0001
     30  CD2       -2.1190    0.5730   -3.0190 C.3    32  LEU32       0.0001
     31  N         -3.5870   -3.4350   -8.2080 N.3    35  ILE35      -0.1245
     32  CA        -3.5970   -4.5210   -7.2390 C.3    35  ILE35       0.1561
     33  C         -5.0220   -4.8610   -6.8140 C.2    35  ILE35       0.2260
     34  O         -5.3510   -6.0250   -6.6120 O.2    35  ILE35      -0.2867
     35  CB        -2.7450   -4.1870   -5.9960 C.3    35  ILE35       0.0252
     36  CG1       -1.2860   -3.9820   -6.4020 C.3    35  ILE35       0.0019
     37  CG2       -2.8510   -5.2950   -4.9510 C.3    35  ILE35       0.0019
     38  CD1       -0.3830   -3.5850   -5.2530 C.3    35  ILE35       0.0001
     39  N         -8.3250   -0.8070   -0.0100 N.3    65  MET65      -0.1245
     40  CA        -7.5430   -0.3090   -1.1380 C.3    65  MET65       0.1570
     41  C         -8.4420    0.1990   -2.2550 C.2    65  MET65       0.2261
     42  O         -8.1230    1.1940   -2.9090 O.2    65  MET65      -0.2867
     43  CB        -6.5960   -1.3880   -1.6640 C.3    65  MET65       0.0387
     44  CG        -5.4270   -1.6790   -0.7360 C.3    65  MET65       0.0595
     45  SD        -4.4940   -3.1460   -1.2200 S.3    65  MET65      -0.1393
     46  CE        -3.7810   -2.6090   -2.7710 C.3    65  MET65       0.0692
     47  N         -5.8260    3.8150    4.8460 N.3    95  MET95      -0.1245
     48  CA        -4.4820    3.2780    4.6510 C.3    95  MET95       0.1570
     49  C         -3.9390    2.7300    5.9610 C.2    95  MET95       0.2261
     50  O         -3.3450    1.6540    5.9940 O.2    95  MET95      -0.2867
     51  CB        -3.5380    4.3500    4.1100 C.3    95  MET95       0.0387
     52  CG        -3.8500    4.7810    2.6880 C.3    95  MET95       0.0595
     53  SD        -2.7430    6.0730    2.0970 S.3    95  MET95      -0.1393
     54  CE        -1.1770    5.2110    2.1460 C.3    95  MET95       0.0692
     55  N         -5.6290   -0.6680    6.6580 N.3    98  LEU98      -0.1231
     56  CA        -5.2310   -1.7470    5.7680 C.3    98  LEU98       0.1693
     57  C         -3.7860   -2.1650    6.0290 C.2    98  LEU98       0.2591
     58  O         -3.4770   -3.3540    6.0180 O.2    98  LEU98      -0.2718
     59  CB        -5.4690   -1.3410    4.3050 C.3    98  LEU98       0.0284
     60  CG        -4.2620   -0.8510    3.5130 C.3    98  LEU98       0.0019
     61  CD1       -3.5130   -2.0290    2.9080 C.3    98  LEU98       0.0001
     62  CD2       -4.7060    0.1180    2.4320 C.3    98  LEU98       0.0001
     63  N         -2.9040   -1.2000    6.2900 N.am   99  GLN99      -0.1979
     64  CA        -1.5170   -1.5290    6.6230 C.3    99  GLN99       0.1601
     65  C         -1.4730   -2.3120    7.9320 C.2    99  GLN99       0.2287
     66  O         -0.6280   -3.1850    8.1190 O.2    99  GLN99      -0.2864
     67  CB        -0.6260   -0.2760    6.7120 C.3    99  GLN99       0.0394
     68  CG        -1.0150    0.7050    7.8040 C.3    99  GLN99       0.0908
     69  CD        -0.1470    1.9520    7.8080 C.2    99  GLN99       0.2608
     70  OE1       -0.4450    2.9350    7.1300 O.2    99  GLN99      -0.2717
     71  NE2        0.9320    1.9240    8.5760 N.am   99  GLN99      -0.0878
     72  N          0.0610   -6.7300    4.8040 N.3   103  HIS103     -0.1227
     73  CA         0.5080   -6.3320    3.4800 C.3   103  HIS103      0.1737
     74  C         -0.0700   -7.2680    2.4300 C.2   103  HIS103      0.2438
     75  O         -0.3550   -8.4330    2.7230 O.2   103  HIS103     -0.2733
     76  CB         2.0390   -6.3430    3.3910 C.3   103  HIS103      0.0758
     77  CG         2.6600   -7.7030    3.5540 C.ar  103  HIS103      0.0818
     78  ND1        2.8410   -8.5830    2.5070 N.ar  103  HIS103     -0.2268
     79  CD2        3.1510   -8.3240    4.6510 C.ar  103  HIS103      0.1154
     80  CE1        3.4160   -9.6840    2.9560 C.ar  103  HIS103      0.1986
     81  NE2        3.6140   -9.5520    4.2530 N.ar  103  HIS103     -0.2212
     82  N         -0.2470   -6.7780    1.1970 N.am  104  PRO104     -0.2729
     83  CA        -0.6850   -7.6160    0.0870 C.3   104  PRO104      0.1401
     84  C          0.3780   -8.6550   -0.2630 C.2   104  PRO104      0.2269
     85  O          1.5640   -8.4640    0.0340 O.2   104  PRO104     -0.2865
     86  CB        -0.8870   -6.6250   -1.0670 C.3   104  PRO104      0.0296
     87  CG        -0.0490   -5.4460   -0.7130 C.3   104  PRO104      0.0237
     88  CD        -0.0450   -5.3760    0.7900 C.3   104  PRO104      0.0939
     89  N          2.3390   -7.8080   -5.3930 N.3   109  ALA109     -0.1245
     90  CA         3.1910   -6.6390   -5.2980 C.3   109  ALA109      0.1562
     91  C          4.3830   -6.8080   -6.2310 C.2   109  ALA109      0.2260
     92  O          5.3400   -6.0340   -6.1920 O.2   109  ALA109     -0.2867
     93  CB         3.6500   -6.4130   -3.8640 C.3   109  ALA109      0.0290
     94  N          6.1630   -3.9650   -8.0540 N.3   112  MET112     -0.1245
     95  CA         6.8660   -2.9500   -7.2870 C.3   112  MET112      0.1570
     96  C          8.3500   -3.2930   -7.2540 C.2   112  MET112      0.2261
     97  O          8.7060   -4.4710   -7.2810 O.2   112  MET112     -0.2867
     98  CB         6.3140   -2.8950   -5.8580 C.3   112  MET112      0.0387
     99  CG         4.7940   -2.8510   -5.7810 C.3   112  MET112      0.0595
    100  SD         4.0880   -1.3700   -6.5230 S.3   112  MET112     -0.1393
    101  CE         4.6960   -0.1260   -5.3930 C.3   112  MET112      0.0692
    102  N          6.6460   -4.1640    1.9770 N.3   118  PHE118     -0.1241
    103  CA         5.9070   -3.7890    3.1660 C.3   118  PHE118      0.1605
    104  C          5.7370   -4.9980    4.0850 C.2   118  PHE118      0.2264
    105  O          5.1030   -5.9800    3.7110 O.2   118  PHE118     -0.2867
    106  CB         4.5280   -3.2330    2.7630 C.3   118  PHE118      0.0534
    107  CG         4.5780   -2.1810    1.6810 C.ar  118  PHE118     -0.0203
    108  CD1        4.3990   -0.8420    1.9870 C.ar  118  PHE118     -0.0042
    109  CD2        4.8060   -2.5330    0.3560 C.ar  118  PHE118     -0.0042
    110  CE1        4.4480    0.1200    0.9980 C.ar  118  PHE118     -0.0003
    111  CE2        4.8580   -1.5750   -0.6350 C.ar  118  PHE118     -0.0003
    112  CZ         4.6800   -0.2470   -0.3140 C.ar  118  PHE118     -0.0000
    113  N          5.2020   -2.4140    9.7140 N.3   123  LEU123     -0.1245
    114  CA         4.1640   -1.4030    9.5300 C.3   123  LEU123      0.1561
    115  C          3.4350   -1.1640   10.8420 C.2   123  LEU123      0.2260
    116  O          2.9880   -0.0570   11.1370 O.2   123  LEU123     -0.2867
    117  CB         3.1480   -1.8520    8.4790 C.3   123  LEU123      0.0270
    118  CG         3.7060   -2.1700    7.0930 C.3   123  LEU123      0.0019
    119  CD1        2.5730   -2.5400    6.1500 C.3   123  LEU123      0.0001
    120  CD2        4.5040   -0.9960    6.5460 C.3   123  LEU123      0.0001
    121  N          8.3270    5.1680    8.9140 N.3   135  GLN135     -0.1231
    122  CA         7.1500    4.8730    8.1160 C.3   135  GLN135      0.1698
    123  C          7.5020    4.7970    6.6350 C.2   135  GLN135      0.2592
    124  O          8.6710    4.8020    6.2620 O.2   135  GLN135     -0.2718
    125  CB         6.0720    5.9370    8.3500 C.3   135  GLN135      0.0381
    126  CG         5.4070    5.8590    9.7160 C.3   135  GLN135      0.0905
    127  CD         4.6310    4.5690    9.9170 C.2   135  GLN135      0.2608
    128  OE1        3.4570    4.4770    9.5570 O.2   135  GLN135     -0.2717
    129  NE2        5.2740    3.5700   10.5000 N.am  135  GLN135     -0.0878
    130  N          6.4760    4.7450    5.8010 N.am  136  CYS136     -0.1956
    131  CA         6.6510    4.5920    4.3700 C.3   136  CYS136      0.1843
    132  C          6.4130    5.9330    3.6890 C.2   136  CYS136      0.2625
    133  O          7.3410    6.5970    3.2330 O.2   136  CYS136     -0.2714
    134  CB         5.6680    3.5350    3.8370 C.3   136  CYS136      0.0997
    135  SG         5.2320    2.2690    5.0260 S.3   136  CYS136     -0.0797
    136  N          5.1530    6.3280    3.6520 N.am  137  LEU137     -0.1963
    137  CA         4.7540    7.6130    3.1050 C.3   137  LEU137      0.1728
    138  C          3.9280    8.3670    4.1340 C.2   137  LEU137      0.2616
    139  O          3.3500    9.4120    3.8490 O.2   137  LEU137     -0.2715
    140  CB         3.9390    7.4200    1.8280 C.3   137  LEU137      0.0311
    141  CG         2.9450    6.2620    1.8700 C.3   137  LEU137      0.0022
    142  CD1        1.7580    6.5480    0.9720 C.3   137  LEU137      0.0001
    143  CD2        3.6130    4.9770    1.4250 C.3   137  LEU137      0.0001
    144  N          3.8800    7.8090    5.3320 N.am  138  ILE138     -0.1977
    145  CA         3.0650    8.3580    6.4030 C.3   138  ILE138      0.1596
    146  C          3.7970    9.5120    7.0840 C.2   138  ILE138      0.2287
    147  O          3.5000   10.6830    6.8440 O.2   138  ILE138     -0.2864
    148  CB         2.7270    7.2730    7.4510 C.3   138  ILE138      0.0276
    149  CG1        2.1870    6.0090    6.7760 C.3   138  ILE138      0.0022
    150  CG2        1.7250    7.7920    8.4680 C.3   138  ILE138      0.0022
    151  CD1        0.8710    6.1970    6.0500 C.3   138  ILE138      0.0001
@<TRIPOS>BOND
     1    17    18    1
     2    18    21    1
     3    18    19    1
     4    22    21    1
     5    31    32    1
     6    94    95    1
     7    20    19    2
     8    19    23   am
     9    95    96    1
    10    95    98    1
    11    97    96    2
    12    32    33    1
    13    32    35    1
    14    33    34    2
    15    25    26    2
    16    25    24    1
    17    23    24    1
    18   100    99    1
    19   100   101    1
    20     9    10    1
    21    36    35    1
    22    36    38    1
    23    91    92    2
    24    91    90    1
    25    11    12    2
    26    11    10    1
    27    35    37    1
    28    98    99    1
    29    24    27    1
    30    10    13    1
    31    89    90    1
    32    90    93    1
    33    27    28    1
    34    13    14    1
    35     1     2    1
    36    28    30    1
    37    28    29    1
    38     8     6    1
    39     2     3    1
    40     2     5    1
    41    14    15    1
    42    14    16    1
    43     3     4    2
    44    42    41    2
    45    46    45    1
    46    41    40    1
    47     6     5    1
    48     6     7    1
    49    43    40    1
    50    43    44    1
    51    45    44    1
    52    40    39    1
    53    86    87    1
    54    86    83    1
    55    87    88    1
    56   111   112   ar
    57   111   109   ar
    58   112   110   ar
    59    84    85    2
    60    84    83    1
    61    83    82    1
    62   109   107   ar
    63    88    82    1
    64   142   141    1
    65   110   108   ar
    66    82    74   am
    67   143   141    1
    68   107   108   ar
    69   107   106    1
    70   140   141    1
    71   140   137    1
    72   102   103    1
    73    53    54    1
    74    53    52    1
    75    74    75    2
    76    74    73    1
    77    62    60    1
    78    78    80   ar
    79    78    77   ar
    80    52    51    1
    81   106   103    1
    82    61    60    1
    83    80    81   ar
    84   137   136    1
    85   137   138    1
    86   103   104    1
    87   133   132    2
    88    76    73    1
    89    76    77    1
    90    73    72    1
    91    60    59    1
    92    77    79   ar
    93   136   132   am
    94   132   131    1
    95   105   104    2
    96   134   131    1
    97   134   135    1
    98   139   138    2
    99    51    48    1
   100   138   144   am
   101    81    79   ar
   102    59    56    1
   103   131   130    1
   104    48    47    1
   105    48    49    1
   106   144   145    1
   107    56    57    1
   108    56    55    1
   109   130   123   am
   110    49    50    2
   111    58    57    2
   112    57    63   am
   113   151   149    1
   114   119   118    1
   115   124   123    2
   116    63    64    1
   117   145   146    1
   118   145   148    1
   119   120   118    1
   120    64    67    1
   121    64    65    1
   122   123   122    1
   123    67    68    1
   124   149   148    1
   125   147   146    2
   126   118   117    1
   127    70    69    2
   128   148   150    1
   129    68    69    1
   130    69    71   am
   131    65    66    2
   132   122   125    1
   133   122   121    1
   134   125   126    1
   135   117   114    1
   136   114   113    1
   137   114   115    1
   138   128   127    2
   139   126   127    1
   140   127   129   am
   141   115   116    2
