@<TRIPOS>MOLECULE
tmp/5lnkA00.pdb
 183 173 0 0 0
SMALL
GASTEIGER

@<TRIPOS>ATOM
      1  N        110.0210   27.0490  240.8040 N.3    61  GLY61      -0.1210
      2  CA       110.6180   28.1410  241.5400 C.3    61  GLY61       0.1956
      3  C        109.6480   28.7620  242.5250 C.2    61  GLY61       0.2612
      4  O        108.4870   28.3710  242.6470 O.2    61  GLY61      -0.2717
      5  N        110.1470   29.7550  243.2570 N.am   62  ARG62      -0.1965
      6  CA       109.3680   30.4200  244.2900 C.3    62  ARG62       0.1729
      7  C        109.3680   31.9210  244.0340 C.2    62  ARG62       0.2616
      8  O        109.9770   32.4120  243.0800 O.2    62  ARG62      -0.2715
      9  CB       109.9120   30.0880  245.6830 C.3    62  ARG62       0.0348
     10  CG       109.9320   28.6000  245.9330 C.3    62  ARG62       0.0492
     11  CD       108.5300   28.0460  245.9290 C.3    62  ARG62       0.2205
     12  NE       108.5000   26.5900  246.0000 N.pl3  62  ARG62      -0.0865
     13  CZ       108.6310   25.8900  247.1190 C.cat  62  ARG62       0.5346
     14  NH1      108.8290   26.5110  248.2720 N.pl3  62  ARG62       0.1354
     15  NH2      108.5820   24.5670  247.0810 N.pl3  62  ARG62       0.1354
     16  N        108.6720   32.6530  244.8980 N.am   63  GLY63      -0.1955
     17  CA       108.4820   34.0710  244.6850 C.3    63  GLY63       0.1869
     18  C        107.4190   34.3990  243.6690 C.2    63  GLY63       0.2309
     19  O        107.4170   35.5050  243.1230 O.2    63  GLY63      -0.2863
     20  N        107.2860   33.4480  240.7340 N.3    65  ALA65      -0.1245
     21  CA       107.7930   33.3650  239.3700 C.3    65  ALA65       0.1562
     22  C        107.2880   32.1120  238.6710 C.2    65  ALA65       0.2260
     23  O        106.9110   32.1540  237.4950 O.2    65  ALA65      -0.2867
     24  CB       109.3200   33.4000  239.3780 C.3    65  ALA65       0.0290
     25  N        113.1000   25.1620  237.8650 N.3    69  THR69      -0.1218
     26  CA       114.4380   25.4590  238.3590 C.3    69  THR69       0.1862
     27  C        115.5140   24.7960  237.5130 C.2    69  THR69       0.2287
     28  O        116.5550   25.4060  237.2430 O.2    69  THR69      -0.2866
     29  CB       114.5610   25.0150  239.8120 C.3    69  THR69       0.1770
     30  OG1      113.6130   25.7390  240.6040 O.3    69  THR69      -0.2211
     31  CG2      115.9630   25.2840  240.3340 C.3    69  THR69       0.0375
     32  N        116.6940   27.0940  234.6810 N.3    72  LYS72      -0.1231
     33  CA       117.4120   28.2800  235.1340 C.3    72  LYS72       0.1693
     34  C        118.8120   27.9230  235.6010 C.2    72  LYS72       0.2592
     35  O        119.7970   28.5380  235.1790 O.2    72  LYS72      -0.2718
     36  CB       116.6410   28.9780  236.2530 C.3    72  LYS72       0.0285
     37  CG       117.3170   30.2530  236.7240 C.3    72  LYS72       0.0035
     38  CD       116.6320   30.8670  237.9330 C.3    72  LYS72       0.0206
     39  CE       115.2800   31.4520  237.5750 C.3    72  LYS72       0.1093
     40  NZ       114.6060   32.0380  238.7630 N.3    72  LYS72      -0.1314
     41  N        118.9240   26.9090  236.4560 N.am   73  TRP73      -0.1976
     42  CA       120.2450   26.4960  236.8990 C.3    73  TRP73       0.1640
     43  C        121.0100   25.7680  235.8060 C.2    73  TRP73       0.2290
     44  O        122.2390   25.6760  235.8830 O.2    73  TRP73      -0.2864
     45  CB       120.1430   25.6140  238.1380 C.3    73  TRP73       0.0576
     46  CG       119.5760   26.3180  239.3180 C.ar   73  TRP73       0.0006
     47  CD1      119.1370   27.6060  239.3720 C.ar   73  TRP73       0.0946
     48  CD2      119.4140   25.7830  240.6300 C.ar   73  TRP73       0.0152
     49  NE1      118.6910   27.8990  240.6350 N.ar   73  TRP73      -0.2442
     50  CE2      118.8550   26.7950  241.4270 C.ar   73  TRP73       0.0810
     51  CE3      119.6800   24.5410  241.2070 C.ar   73  TRP73       0.0012
     52  CZ2      118.5570   26.6050  242.7690 C.ar   73  TRP73       0.0191
     53  CZ3      119.3860   24.3550  242.5380 C.ar   73  TRP73       0.0001
     54  CH2      118.8300   25.3800  243.3050 C.ar   73  TRP73       0.0015
     55  N        118.2850   35.0440  247.1970 N.3    90  ASN90      -0.1240
     56  CA       117.4670   36.2070  247.5100 C.3    90  ASN90       0.1653
     57  C        116.8110   35.9730  248.8620 C.2    90  ASN90       0.2266
     58  O        115.8960   35.1540  248.9830 O.2    90  ASN90      -0.2867
     59  CB       116.4250   36.4220  246.4160 C.3    90  ASN90       0.1155
     60  CG       115.6000   37.6730  246.6230 C.2    90  ASN90       0.2627
     61  OD1      115.5270   38.2160  247.7240 O.2    90  ASN90      -0.2716
     62  ND2      114.9510   38.1270  245.5600 N.am   90  ASN90      -0.0877
     63  N        115.5090   38.6770  250.5470 N.3    92  ASP92      -0.1225
     64  CA       114.4540   39.6650  250.6930 C.3    92  ASP92       0.1805
     65  C        113.1030   38.9830  250.6630 C.2    92  ASP92       0.2598
     66  O        112.8430   38.1200  249.8230 O.2    92  ASP92      -0.2718
     67  CB       114.5040   40.7030  249.5790 C.3    92  ASP92       0.1424
     68  CG       115.6370   41.6710  249.7390 C.2    92  ASP92       0.3668
     69  OD1      116.2440   41.7020  250.8290 O.co2  92  ASP92      -0.2456
     70  OD2      115.8990   42.4240  248.7780 O.co2  92  ASP92      -0.2456
     71  N        112.2380   39.3670  251.5870 N.am   93  GLU93      -0.1965
     72  CA       110.8320   39.0280  251.4640 C.3    93  GLU93       0.1733
     73  C        110.0380   40.3210  251.4250 C.2    93  GLU93       0.2617
     74  O        109.9440   41.0320  252.4300 O.2    93  GLU93      -0.2715
     75  CB       110.3510   38.1210  252.5880 C.3    93  GLU93       0.0429
     76  CG       108.9630   37.6550  252.2770 C.3    93  GLU93       0.1163
     77  CD       108.9270   36.8420  250.9900 C.2    93  GLU93       0.3649
     78  OE1      109.9580   36.2430  250.6230 O.co2  93  GLU93      -0.2457
     79  OE2      107.8950   36.8600  250.2930 O.co2  93  GLU93      -0.2457
     80  N        109.4680   40.6190  250.2600 N.am   94  GLY94      -0.1940
     81  CA       108.5890   41.7500  250.1020 C.3    94  GLY94       0.2014
     82  C        107.1370   41.3130  250.1240 C.2    94  GLY94       0.2638
     83  O        106.8080   40.1530  250.3520 O.2    94  GLY94      -0.2714
     84  N        106.2670   42.2860  249.8920 N.am   95  GLU95      -0.1977
     85  CA       104.8210   42.1180  249.8800 C.3    95  GLU95       0.1602
     86  C        104.3270   41.8430  251.2920 C.2    95  GLU95       0.2287
     87  O        105.0570   41.2800  252.1140 O.2    95  GLU95      -0.2864
     88  CB       104.4060   40.9910  248.9340 C.3    95  GLU95       0.0415
     89  CG       104.7390   41.2640  247.4840 C.3    95  GLU95       0.1163
     90  CD       104.4270   40.0900  246.5840 C.2    95  GLU95       0.3649
     91  OE1      104.1460   38.9980  247.1180 O.co2  95  GLU95      -0.2457
     92  OE2      104.4610   40.2570  245.3450 O.co2  95  GLU95      -0.2457
     93  N        111.6440   47.6390  248.7440 N.3   178  TYR178     -0.1241
     94  CA       110.9270   46.4660  248.2570 C.3   178  TYR178      0.1605
     95  C        111.5420   45.9260  246.9740 C.2   178  TYR178      0.2264
     96  O        111.8330   44.7300  246.8690 O.2   178  TYR178     -0.2867
     97  CB       109.4580   46.8100  248.0370 C.3   178  TYR178      0.0534
     98  CG       108.6940   45.7360  247.3120 C.ar  178  TYR178     -0.0201
     99  CD1      108.2560   44.6010  247.9690 C.ar  178  TYR178     -0.0009
    100  CD2      108.4210   45.8540  245.9610 C.ar  178  TYR178     -0.0009
    101  CE1      107.5590   43.6170  247.3000 C.ar  178  TYR178      0.0417
    102  CE2      107.7290   44.8760  245.2850 C.ar  178  TYR178      0.0417
    103  CZ       107.2990   43.7600  245.9570 C.ar  178  TYR178      0.1957
    104  OH       106.6070   42.7870  245.2750 O.3   178  TYR178     -0.2866
    105  N        114.2450   43.2570  246.3050 N.3   181  GLY181     -0.1210
    106  CA       113.9680   41.8390  246.2110 C.3   181  GLY181      0.1956
    107  C        113.7490   41.3360  244.8040 C.2   181  GLY181      0.2612
    108  O        113.6740   40.1200  244.6080 O.2   181  GLY181     -0.2717
    109  N        113.6510   42.2300  243.8270 N.am  182  GLU182     -0.1965
    110  CA       113.3960   41.8060  242.4610 C.3   182  GLU182      0.1733
    111  C        114.6400   41.1660  241.8630 C.2   182  GLU182      0.2616
    112  O        115.7700   41.5290  242.1940 O.2   182  GLU182     -0.2715
    113  CB       112.9500   42.9920  241.6140 C.3   182  GLU182      0.0429
    114  CG       111.6720   43.6120  242.1180 C.3   182  GLU182      0.1163
    115  CD       111.2500   44.8100  241.3120 C.2   182  GLU182      0.3649
    116  OE1      112.0300   45.2400  240.4400 O.co2 182  GLU182     -0.2457
    117  OE2      110.1400   45.3250  241.5560 O.co2 182  GLU182     -0.2457
    118  N        114.4110   40.2020  240.9670 N.am  183  GLU183     -0.1977
    119  CA       115.4980   39.3860  240.4350 C.3   183  GLU183      0.1602
    120  C        116.6500   40.2340  239.9290 C.2   183  GLU183      0.2287
    121  O        117.8170   39.9390  240.2050 O.2   183  GLU183     -0.2864
    122  CB       114.9830   38.4980  239.3050 C.3   183  GLU183      0.0415
    123  CG       116.0490   37.6090  238.6930 C.3   183  GLU183      0.1163
    124  CD       115.5160   36.7500  237.5640 C.2   183  GLU183      0.3649
    125  OE1      114.3220   36.8850  237.2250 O.co2 183  GLU183     -0.2457
    126  OE2      116.2890   35.9390  237.0140 O.co2 183  GLU183     -0.2457
    127  N        119.8650   34.0590  240.3060 N.3   216  VAL216     -0.1231
    128  CA       119.1590   34.5320  241.4870 C.3   216  VAL216      0.1692
    129  C        118.1120   33.4910  241.8470 C.2   216  VAL216      0.2592
    130  O        117.3880   33.0070  240.9710 O.2   216  VAL216     -0.2718
    131  CB       118.5090   35.9040  241.2420 C.3   216  VAL216      0.0266
    132  CG1      117.6870   36.3230  242.4390 C.3   216  VAL216      0.0020
    133  CG2      119.5740   36.9350  240.9300 C.3   216  VAL216      0.0020
    134  N        118.0370   33.1360  243.1270 N.am  217  ALA217     -0.1966
    135  CA       117.0830   32.1260  243.5540 C.3   217  ALA217      0.1728
    136  C        116.6470   32.4150  244.9810 C.2   217  ALA217      0.2616
    137  O        117.4050   32.9700  245.7800 O.2   217  ALA217     -0.2715
    138  CB       117.6720   30.7190  243.4400 C.3   217  ALA217      0.0334
    139  N        115.4100   32.0400  245.2850 N.am  218  ASN218     -0.1972
    140  CA       114.8080   32.3730  246.5630 C.3   218  ASN218      0.1688
    141  C        115.2810   31.4140  247.6490 C.2   218  ASN218      0.2292
    142  O        115.6970   30.2830  247.3820 O.2   218  ASN218     -0.2864
    143  CB       113.2870   32.3450  246.4590 C.3   218  ASN218      0.1181
    144  CG       112.6130   32.9970  247.6410 C.2   218  ASN218      0.2629
    145  OD1      113.2070   33.1550  248.7060 O.2   218  ASN218     -0.2716
    146  ND2      111.3650   33.3940  247.4550 N.am  218  ASN218     -0.0877
    147  N        113.8580   27.8560  247.4570 N.3   221  THR221     -0.1218
    148  CA       114.4440   26.9950  246.4360 C.3   221  THR221      0.1862
    149  C        115.8240   26.5060  246.8550 C.2   221  THR221      0.2287
    150  O        116.0770   25.2980  246.9380 O.2   221  THR221     -0.2866
    151  CB       114.5380   27.7480  245.1120 C.3   221  THR221      0.1770
    152  OG1      115.3430   28.9180  245.2930 O.3   221  THR221     -0.2211
    153  CG2      113.1650   28.1590  244.6390 C.3   221  THR221      0.0375
    154  N        103.5900   34.1230  246.6310 N.3   325  THR325     -0.1218
    155  CA       104.5860   33.4310  247.4310 C.3   325  THR325      0.1862
    156  C        103.9720   32.3480  248.3040 C.2   325  THR325      0.2287
    157  O        104.6840   31.7600  249.1220 O.2   325  THR325     -0.2866
    158  CB       105.3430   34.4280  248.3040 C.3   325  THR325      0.1770
    159  OG1      104.4140   35.1110  249.1520 O.3   325  THR325     -0.2211
    160  CG2      106.0650   35.4380  247.4370 C.3   325  THR325      0.0375
    161  N        110.0210   45.6610  235.2550 N.3   399  CYS399     -0.1221
    162  CA       109.9600   44.6020  236.2420 C.3   399  CYS399      0.1808
    163  C        108.5290   44.0930  236.3350 C.2   399  CYS399      0.2601
    164  O        107.6220   44.5870  235.6620 O.2   399  CYS399     -0.2717
    165  CB       110.4550   45.0900  237.5990 C.3   399  CYS399      0.0970
    166  SG       109.3240   46.2140  238.4260 S.3   399  CYS399     -0.0800
    167  N        108.3150   43.0910  237.1770 N.am  400  ALA400     -0.1965
    168  CA       106.9640   42.5950  237.3670 C.3   400  ALA400      0.1728
    169  C        106.1470   43.4870  238.2830 C.2   400  ALA400      0.2616
    170  O        104.9160   43.4230  238.2410 O.2   400  ALA400     -0.2715
    171  CB       106.9910   41.1690  237.9160 C.3   400  ALA400      0.0334
    172  N        106.8020   44.3280  239.0890 N.am  401  LEU401     -0.1977
    173  CA       106.0770   45.1750  240.0320 C.3   401  LEU401      0.1596
    174  C        105.0120   46.0030  239.3380 C.2   401  LEU401      0.2287
    175  O        103.8760   46.0920  239.8190 O.2   401  LEU401     -0.2864
    176  CB       107.0410   46.0900  240.7740 C.3   401  LEU401      0.0297
    177  CG       106.3560   47.1270  241.6510 C.3   401  LEU401      0.0022
    178  CD1      105.5740   46.4400  242.7450 C.3   401  LEU401      0.0001
    179  CD2      107.3770   48.0640  242.2280 C.3   401  LEU401      0.0001
    180  N        102.7230   43.6860  238.6680 N.3   404  GLY404     -0.1225
    181  CA       102.2350   43.3400  239.9850 C.3   404  GLY404      0.1811
    182  C        101.3160   44.3760  240.5890 C.2   404  GLY404      0.2280
    183  O        100.5020   44.0390  241.4530 O.2   404  GLY404     -0.2866
@<TRIPOS>BOND
     1    32    33    1
     2    33    34    1
     3    33    36    1
     4    35    34    2
     5   161   162    1
     6    34    41   am
     7   164   163    2
     8    43    44    2
     9    43    42    1
    10   162   163    1
    11   162   165    1
    12    36    37    1
    13   163   167   am
    14    41    42    1
    15    37    38    1
    16    42    45    1
    17   126   124   ar
    18   167   168    1
    19   125   124   ar
    20    28    27    2
    21   168   171    1
    22   168   169    1
    23    23    22    2
    24    27    26    1
    25   124   123    1
    26    39    38    1
    27    39    40    1
    28   165   166    1
    29    25    26    1
    30    45    46    1
    31   170   169    2
    32   169   172   am
    33    26    29    1
    34   180   181    1
    35    22    21    1
    36   123   122    1
    37   172   173    1
    38   122   119    1
    39    46    47   ar
    40    46    48   ar
    41   174   175    2
    42   174   173    1
    43    21    24    1
    44    21    20    1
    45    47    49   ar
    46    29    31    1
    47    29    30    1
    48   120   121    2
    49   120   119    1
    50   181   182    1
    51   173   176    1
    52   127   128    1
    53   119   118    1
    54   116   115   ar
    55   182   183    2
    56    48    51   ar
    57    48    50   ar
    58    49    50   ar
    59   176   177    1
    60     1     2    1
    61   133   131    1
    62   118   111   am
    63   130   129    2
    64    51    53   ar
    65   131   128    1
    66   131   132    1
    67   115   117   ar
    68   115   114    1
    69    50    52   ar
    70   128   129    1
    71     2     3    1
    72   113   114    1
    73   113   110    1
    74   177   179    1
    75   177   178    1
    76   129   134   am
    77   111   112    2
    78   111   110    1
    79   110   109    1
    80     3     4    2
    81     3     5   am
    82    53    54   ar
    83    52    54   ar
    84     8     7    2
    85    19    18    2
    86   134   135    1
    87     5     6    1
    88   138   135    1
    89   135   136    1
    90    18    17    1
    91   109   107   am
    92     7     6    1
    93     7    16   am
    94     6     9    1
    95   108   107    2
    96   153   151    1
    97    17    16    1
    98   107   106    1
    99   136   139   am
   100   136   137    2
   101   151   152    1
   102   151   148    1
   103   104   103    1
   104   102   103   ar
   105   102   100   ar
   106   139   140    1
   107    92    90   ar
   108    62    60   am
   109     9    10    1
   110    11    10    1
   111    11    12    1
   112   103   101   ar
   113   100    98   ar
   114    12    13    2
   115   106   105    1
   116    59    60    1
   117    59    56    1
   118   148   149    1
   119   148   147    1
   120   143   140    1
   121   143   144    1
   122   140   141    1
   123    90    91   ar
   124    90    89    1
   125    60    61    2
   126   154   155    1
   127   149   150    2
   128    96    95    2
   129    95    94    1
   130    15    13    1
   131    13    14    1
   132    55    56    1
   133   101    99   ar
   134    98    99   ar
   135    98    97    1
   136   142   141    2
   137   155   156    1
   138   155   158    1
   139   160   158    1
   140   146   144   am
   141    89    88    1
   142    56    57    1
   143   144   145    2
   144    97    94    1
   145    94    93    1
   146   156   157    2
   147   158   159    1
   148    70    68   ar
   149    57    58    2
   150    88    85    1
   151    67    68    1
   152    67    64    1
   153    68    69   ar
   154    66    65    2
   155    85    84    1
   156    85    86    1
   157    84    82   am
   158    81    82    1
   159    81    80    1
   160    82    83    2
   161    80    73   am
   162    79    77   ar
   163    63    64    1
   164    78    77   ar
   165    65    64    1
   166    65    71   am
   167    77    76    1
   168    86    87    2
   169    73    72    1
   170    73    74    2
   171    72    71    1
   172    72    75    1
   173    76    75    1
