@<TRIPOS>MOLECULE
tmp/5lnkK00.pdb
 115 109 0 0 0
SMALL
GASTEIGER

@<TRIPOS>ATOM
      1  N         56.0610  115.1780   84.3030 N.3     2  LEU2       -0.1245
      2  CA        55.8240  114.1240   85.2810 C.3     2  LEU2        0.1561
      3  C         55.9200  112.7420   84.6420 C.2     2  LEU2        0.2260
      4  O         56.3340  111.7730   85.3000 O.2     2  LEU2       -0.2867
      5  CB        54.4630  114.3540   85.9370 C.3     2  LEU2        0.0270
      6  CG        54.0370  113.4320   87.0670 C.3     2  LEU2        0.0019
      7  CD1       55.0570  113.5020   88.1800 C.3     2  LEU2        0.0001
      8  CD2       52.6740  113.8400   87.5790 C.3     2  LEU2        0.0001
      9  N         61.5220  106.6570   88.7580 N.3     9  MET9       -0.1245
     10  CA        61.1320  106.2730   90.1060 C.3     9  MET9        0.1570
     11  C         60.6420  104.8310   90.1250 C.2     9  MET9        0.2261
     12  O         60.9180  104.0850   91.0690 O.2     9  MET9       -0.2867
     13  CB        60.0710  107.2440   90.6190 C.3     9  MET9        0.0387
     14  CG        59.7310  107.1270   92.0910 C.3     9  MET9        0.0595
     15  SD        58.7790  108.5720   92.6120 S.3     9  MET9       -0.1393
     16  CE        58.4440  108.2120   94.3350 C.3     9  MET9        0.0692
     17  N         53.7090  121.9280   83.5660 N.3    53  SER53      -0.1202
     18  CA        52.8760  122.0510   84.7430 C.3    53  SER53       0.2020
     19  C         53.3270  123.2830   85.5010 C.2    53  SER53       0.2619
     20  O         54.4610  123.7380   85.3580 O.2    53  SER53      -0.2717
     21  CB        52.9740  120.8000   85.6210 C.3    53  SER53       0.2103
     22  OG        52.5310  119.6530   84.9170 O.3    53  SER53      -0.2182
     23  N         52.4340  123.8230   86.3230 N.am   54  LEU54      -0.1965
     24  CA        52.7770  125.0550   87.0120 C.3    54  LEU54       0.1728
     25  C         53.9650  124.8990   87.9440 C.2    54  LEU54       0.2617
     26  O         54.5150  125.9100   88.3910 O.2    54  LEU54      -0.2715
     27  CB        51.5590  125.5800   87.7670 C.3    54  LEU54       0.0311
     28  CG        50.9010  124.6980   88.8190 C.3    54  LEU54       0.0022
     29  CD1       51.6620  124.7630   90.1010 C.3    54  LEU54       0.0001
     30  CD2       49.4710  125.1380   89.0340 C.3    54  LEU54       0.0001
     31  N         54.3590  123.6730   88.2710 N.am   55  THR55      -0.1937
     32  CA        55.5080  123.5030   89.1470 C.3    55  THR55       0.2028
     33  C         56.8340  123.5890   88.3970 C.2    55  THR55       0.2642
     34  O         57.7660  124.2400   88.8770 O.2    55  THR55      -0.2714
     35  CB        55.4160  122.1760   89.8830 C.3    55  THR55       0.1808
     36  OG1       54.1650  122.1070   90.5690 O.3    55  THR55      -0.2208
     37  CG2       56.5140  122.0900   90.9030 C.3    55  THR55       0.0379
     38  N         56.9580  122.9360   87.2380 N.am   56  PHE56      -0.1973
     39  CA        58.2180  122.9580   86.4970 C.3    56  PHE56       0.1639
     40  C         57.9870  122.8180   84.9960 C.2    56  PHE56       0.2290
     41  O         57.0480  122.1530   84.5530 O.2    56  PHE56      -0.2864
     42  CB        59.1920  121.8900   87.0010 C.3    56  PHE56       0.0560
     43  CG        58.5540  120.5750   87.3100 C.ar   56  PHE56      -0.0200
     44  CD1       58.1310  119.7260   86.3060 C.ar   56  PHE56      -0.0042
     45  CD2       58.4470  120.1580   88.6230 C.ar   56  PHE56      -0.0042
     46  CE1       57.5570  118.5070   86.6150 C.ar   56  PHE56      -0.0003
     47  CE2       57.8920  118.9400   88.9370 C.ar   56  PHE56      -0.0003
     48  CZ        57.4480  118.1100   87.9310 C.ar   56  PHE56      -0.0000
     49  N         68.5690  107.6210   91.6190 N.3   101  LEU101     -0.1245
     50  CA        68.1640  108.7460   92.4520 C.3   101  LEU101      0.1561
     51  C         68.8930  110.0260   92.0580 C.2   101  LEU101      0.2260
     52  O         68.2840  111.1040   91.9790 O.2   101  LEU101     -0.2867
     53  CB        68.4150  108.3730   93.9110 C.3   101  LEU101      0.0270
     54  CG        67.9960  109.2510   95.0720 C.3   101  LEU101      0.0019
     55  CD1       67.5480  108.3540   96.1960 C.3   101  LEU101      0.0001
     56  CD2       69.1890  110.0310   95.5150 C.3   101  LEU101      0.0001
     57  N         67.2700  111.3480   89.0280 N.3   104  LEU104     -0.1231
     58  CA        66.0010  111.9510   89.4040 C.3   104  LEU104      0.1693
     59  C         66.1990  113.3850   89.8650 C.2   104  LEU104      0.2592
     60  O         65.5550  114.3090   89.3530 O.2   104  LEU104     -0.2718
     61  CB        65.3360  111.1200   90.4960 C.3   104  LEU104      0.0284
     62  CG        64.0150  111.6680   91.0220 C.3   104  LEU104      0.0019
     63  CD1       62.9940  111.6850   89.9150 C.3   104  LEU104      0.0001
     64  CD2       63.5160  110.8530   92.2000 C.3   104  LEU104      0.0001
     65  N         67.1090  113.6010   90.8150 N.am  105  PHE105     -0.1976
     66  CA        67.3100  114.9690   91.2820 C.3   105  PHE105      0.1639
     67  C         67.8770  115.8660   90.1920 C.2   105  PHE105      0.2290
     68  O         67.6210  117.0750   90.1970 O.2   105  PHE105     -0.2864
     69  CB        68.1940  114.9940   92.5210 C.3   105  PHE105      0.0560
     70  CG        67.5290  114.4400   93.7330 C.ar  105  PHE105     -0.0200
     71  CD1       66.5640  115.1730   94.3830 C.ar  105  PHE105     -0.0042
     72  CD2       67.8790  113.2110   94.2430 C.ar  105  PHE105     -0.0042
     73  CE1       65.9340  114.6840   95.4980 C.ar  105  PHE105     -0.0003
     74  CE2       67.2520  112.7210   95.3650 C.ar  105  PHE105     -0.0003
     75  CZ        66.2800  113.4580   95.9900 C.ar  105  PHE105     -0.0000
     76  N         64.7910  116.8980   88.2060 N.3   108  MET108     -0.1245
     77  CA        64.2090  117.9300   89.0570 C.3   108  MET108      0.1570
     78  C         64.8950  119.2680   88.8360 C.2   108  MET108      0.2261
     79  O         64.2380  120.2870   88.6080 O.2   108  MET108     -0.2867
     80  CB        64.3410  117.5240   90.5230 C.3   108  MET108      0.0387
     81  CG        63.5060  116.3480   90.9840 C.3   108  MET108      0.0595
     82  SD        61.7590  116.7400   91.1360 S.3   108  MET108     -0.1393
     83  CE        61.0990  115.9310   89.6970 C.3   108  MET108      0.0692
     84  N         63.0080  125.5360   94.7090 N.3   117  PHE117     -0.1241
     85  CA        62.9340  124.1340   94.3320 C.3   117  PHE117      0.1605
     86  C         64.2010  123.7250   93.5950 C.2   117  PHE117      0.2264
     87  O         64.7440  122.6340   93.8150 O.2   117  PHE117     -0.2867
     88  CB        61.6720  123.9300   93.4960 C.3   117  PHE117      0.0534
     89  CG        61.4600  122.5420   93.0220 C.ar  117  PHE117     -0.0203
     90  CD1       61.1690  121.5380   93.9030 C.ar  117  PHE117     -0.0042
     91  CD2       61.4300  122.2710   91.6820 C.ar  117  PHE117     -0.0042
     92  CE1       60.9460  120.2770   93.4620 C.ar  117  PHE117     -0.0003
     93  CE2       61.2020  121.0050   91.2350 C.ar  117  PHE117     -0.0003
     94  CZ        60.9570  120.0060   92.1290 C.ar  117  PHE117     -0.0000
     95  N         66.9780  123.4470   96.6050 N.3   120  ILE120     -0.1231
     96  CA        66.7910  122.2270   97.3770 C.3   120  ILE120      0.1692
     97  C         67.2100  121.0290   96.5450 C.2   120  ILE120      0.2591
     98  O         68.0820  120.2430   96.9410 O.2   120  ILE120     -0.2718
     99  CB        65.3300  122.1010   97.8270 C.3   120  ILE120      0.0266
    100  CG1       64.9430  123.2700   98.6960 C.3   120  ILE120      0.0019
    101  CG2       65.1390  120.8580   98.6280 C.3   120  ILE120      0.0020
    102  CD1       63.4710  123.3140   98.9160 C.3   120  ILE120      0.0001
    103  N         66.6310  120.9000   95.3500 N.am  121  MET121     -0.1979
    104  CA        67.0430  119.8100   94.4800 C.3   121  MET121      0.1605
    105  C         68.5100  119.9120   94.0920 C.2   121  MET121      0.2287
    106  O         69.0960  118.9080   93.6980 O.2   121  MET121     -0.2864
    107  CB        66.1750  119.7680   93.2260 C.3   121  MET121      0.0413
    108  CG        64.7250  119.4630   93.5150 C.3   121  MET121      0.0598
    109  SD        64.6060  117.8460   94.2900 S.3   121  MET121     -0.1393
    110  CE        62.8450  117.6500   94.5050 C.3   121  MET121      0.0692
    111  N         70.4540  118.4390   97.0240 N.3   124  ALA124     -0.1245
    112  CA        69.9390  117.0840   96.9020 C.3   124  ALA124      0.1562
    113  C         70.5150  116.3500   95.7040 C.2   124  ALA124      0.2260
    114  O         70.4600  115.1180   95.6700 O.2   124  ALA124     -0.2867
    115  CB        68.4210  117.1080   96.7940 C.3   124  ALA124      0.0290
@<TRIPOS>BOND
     1    17    18    1
     2     1     2    1
     3    41    40    2
     4     3     2    1
     5     3     4    2
     6    18    19    1
     7    18    21    1
     8    22    21    1
     9    40    39    1
    10     2     5    1
    11    20    19    2
    12    19    23   am
    13     5     6    1
    14    44    46   ar
    15    44    43   ar
    16    23    24    1
    17    39    42    1
    18    39    38    1
    19    46    48   ar
    20    42    43    1
    21    24    27    1
    22    24    25    1
    23     6     8    1
    24     6     7    1
    25    38    33   am
    26    43    45   ar
    27    27    28    1
    28    48    47   ar
    29    25    31   am
    30    25    26    2
    31    76    77    1
    32    31    32    1
    33    33    34    2
    34    33    32    1
    35    79    78    2
    36    45    47   ar
    37     9    10    1
    38    28    30    1
    39    28    29    1
    40    78    77    1
    41    57    58    1
    42    77    80    1
    43    32    35    1
    44    60    59    2
    45    58    59    1
    46    58    61    1
    47    83    82    1
    48    59    65   am
    49    35    36    1
    50    35    37    1
    51    63    62    1
    52    10    11    1
    53    10    13    1
    54    11    12    2
    55    67    68    2
    56    67    66    1
    57    61    62    1
    58    80    81    1
    59    13    14    1
    60    65    66    1
    61    81    82    1
    62    62    64    1
    63    93    91   ar
    64    93    94   ar
    65    66    69    1
    66    49    50    1
    67    91    89   ar
    68    52    51    2
    69    51    50    1
    70    14    15    1
    71    94    92   ar
    72    50    53    1
    73    69    70    1
    74    15    16    1
    75    89    88    1
    76    89    90   ar
    77   107   108    1
    78   107   104    1
    79    92    90   ar
    80    88    85    1
    81   108   109    1
    82    86    87    2
    83    86    85    1
    84   106   105    2
    85    70    72   ar
    86    70    71   ar
    87    53    54    1
    88   105   104    1
    89    72    74   ar
    90   109   110    1
    91    85    84    1
    92    71    73   ar
    93   104   103    1
    94    54    56    1
    95    54    55    1
    96   103    97   am
    97    74    75   ar
    98    73    75   ar
    99   114   113    2
   100   113   112    1
   101    97    98    2
   102    97    96    1
   103    95    96    1
   104   115   112    1
   105   112   111    1
   106    96    99    1
   107    99   101    1
   108    99   100    1
   109   100   102    1
