@<TRIPOS>MOLECULE
tmp/5lnkJ00.pdb
 94 93 0 0 0
SMALL
GASTEIGER

@<TRIPOS>ATOM
      1  N         41.7590  113.6350  153.3170 N.3    93  LEU93      -0.1245
      2  CA        42.6440  113.3230  152.2040 C.3    93  LEU93       0.1561
      3  C         44.0880  113.6430  152.5460 C.2    93  LEU93       0.2260
      4  O         44.9850  112.8290  152.3120 O.2    93  LEU93      -0.2867
      5  CB        42.2190  114.0960  150.9620 C.3    93  LEU93       0.0270
      6  CG        43.1930  113.9180  149.8050 C.3    93  LEU93       0.0019
      7  CD1       43.2200  112.4650  149.3810 C.3    93  LEU93       0.0001
      8  CD2       42.8340  114.8230  148.6390 C.3    93  LEU93       0.0001
      9  N         45.4910  111.6230  155.5360 N.3    96  PHE96      -0.1227
     10  CA        45.5360  110.2860  154.9630 C.3    96  PHE96       0.1736
     11  C         46.7520  110.1340  154.0660 C.2    96  PHE96       0.2595
     12  O         47.3850  109.0760  154.0380 O.2    96  PHE96      -0.2718
     13  CB        44.2570  110.0120  154.1810 C.3    96  PHE96       0.0547
     14  CG        44.2090  108.6530  153.5620 C.ar   96  PHE96      -0.0202
     15  CD1       43.8150  107.5610  154.3060 C.ar   96  PHE96      -0.0042
     16  CD2       44.5620  108.4660  152.2390 C.ar   96  PHE96      -0.0042
     17  CE1       43.7670  106.3110  153.7390 C.ar   96  PHE96      -0.0003
     18  CE2       44.5170  107.2180  151.6690 C.ar   96  PHE96      -0.0003
     19  CZ        44.1210  106.1400  152.4180 C.ar   96  PHE96      -0.0000
     20  N         47.1010  111.1920  153.3360 N.am   97  LEU97      -0.1980
     21  CA        48.2820  111.1540  152.4840 C.3    97  LEU97       0.1596
     22  C         49.5500  111.0580  153.3140 C.2    97  LEU97       0.2287
     23  O         50.4810  110.3240  152.9580 O.2    97  LEU97      -0.2864
     24  CB        48.3070  112.3900  151.5910 C.3    97  LEU97       0.0297
     25  CG        49.3920  112.5310  150.5380 C.3    97  LEU97       0.0022
     26  CD1       48.8210  113.2610  149.3340 C.3    97  LEU97       0.0001
     27  CD2       50.5490  113.3020  151.1300 C.3    97  LEU97       0.0001
     28  N         49.7420  109.5490  156.1740 N.3    99  ALA99      -0.1231
     29  CA        49.7640  108.1500  156.5670 C.3    99  ALA99       0.1694
     30  C         50.0950  107.2310  155.4060 C.2    99  ALA99       0.2591
     31  O         50.5380  106.1030  155.6330 O.2    99  ALA99      -0.2718
     32  CB        48.4210  107.7610  157.1720 C.3    99  ALA99       0.0304
     33  N         49.8880  107.6780  154.1700 N.am  100  VAL100     -0.1980
     34  CA        50.3100  106.8790  153.0300 C.3   100  VAL100      0.1595
     35  C         51.8180  106.9110  152.8940 C.2   100  VAL100      0.2287
     36  O         52.4520  105.8740  152.6750 O.2   100  VAL100     -0.2864
     37  CB        49.6200  107.3520  151.7420 C.3   100  VAL100      0.0276
     38  CG1       50.2300  106.6660  150.5480 C.3   100  VAL100      0.0022
     39  CG2       48.1390  107.0490  151.8070 C.3   100  VAL100      0.0022
     40  N         53.9300  107.3560  155.3520 N.3   102  LEU102     -0.1231
     41  CA        54.4120  106.4980  156.4290 C.3   102  LEU102      0.1693
     42  C         54.2170  105.0280  156.1040 C.2   102  LEU102      0.2592
     43  O         55.1220  104.2190  156.3180 O.2   102  LEU102     -0.2718
     44  CB        53.7170  106.8320  157.7420 C.3   102  LEU102      0.0284
     45  CG        54.0750  105.8160  158.8260 C.3   102  LEU102      0.0019
     46  CD1       55.5560  105.8490  159.1420 C.3   102  LEU102      0.0001
     47  CD2       53.2520  106.0430  160.0730 C.3   102  LEU102      0.0001
     48  N         53.0420  104.6580  155.5940 N.am  103  ALA103     -0.1966
     49  CA        52.7810  103.2500  155.3140 C.3   103  ALA103      0.1728
     50  C         53.7470  102.7090  154.2710 C.2   103  ALA103      0.2616
     51  O         54.2520  101.5900  154.4050 O.2   103  ALA103     -0.2715
     52  CB        51.3380  103.0560  154.8560 C.3   103  ALA103      0.0334
     53  N         54.0200  103.4910  153.2280 N.am  104  TYR104     -0.1974
     54  CA        55.0040  103.0790  152.2360 C.3   104  TYR104      0.1639
     55  C         56.3570  102.8290  152.8840 C.2   104  TYR104      0.2290
     56  O         56.9210  101.7290  152.7910 O.2   104  TYR104     -0.2864
     57  CB        55.1300  104.1440  151.1530 C.3   104  TYR104      0.0560
     58  CG        56.2650  103.8750  150.2110 C.ar  104  TYR104     -0.0198
     59  CD1       56.1420  102.9490  149.1910 C.ar  104  TYR104     -0.0009
     60  CD2       57.4740  104.5230  150.3600 C.ar  104  TYR104     -0.0009
     61  CE1       57.1880  102.6950  148.3360 C.ar  104  TYR104      0.0417
     62  CE2       58.5170  104.2790  149.5100 C.ar  104  TYR104      0.0417
     63  CZ        58.3760  103.3610  148.5040 C.ar  104  TYR104      0.1957
     64  OH        59.4270  103.1160  147.6560 O.3   104  TYR104     -0.2866
     65  N         57.1470  102.2930  155.8030 N.3   106  TRP106     -0.1227
     66  CA        57.0530  101.1850  156.7400 C.3   106  TRP106      0.1737
     67  C         56.9530   99.8440  156.0320 C.2   106  TRP106      0.2596
     68  O         57.2410   98.8130  156.6480 O.2   106  TRP106     -0.2718
     69  CB        55.8490  101.4070  157.6620 C.3   106  TRP106      0.0564
     70  CG        55.5650  100.3220  158.6490 C.ar  106  TRP106      0.0003
     71  CD1       54.5510   99.4190  158.5990 C.ar  106  TRP106      0.0946
     72  CD2       56.2870  100.0460  159.8470 C.ar  106  TRP106      0.0152
     73  NE1       54.6000   98.5890  159.6860 N.ar  106  TRP106     -0.2442
     74  CE2       55.6630   98.9520  160.4670 C.ar  106  TRP106      0.0810
     75  CE3       57.4130  100.6100  160.4510 C.ar  106  TRP106      0.0012
     76  CZ2       56.1210   98.4110  161.6630 C.ar  106  TRP106      0.0191
     77  CZ3       57.8670  100.0720  161.6440 C.ar  106  TRP106      0.0001
     78  CH2       57.2240   98.9830  162.2340 C.ar  106  TRP106      0.0015
     79  N         56.5430   99.8310  154.7610 N.am  107  THR107     -0.1939
     80  CA        56.5500   98.5920  153.9900 C.3   107  THR107      0.2028
     81  C         57.9310   98.2740  153.4360 C.2   107  THR107      0.2642
     82  O         58.3520   97.1130  153.4490 O.2   107  THR107     -0.2714
     83  CB        55.5480   98.6560  152.8410 C.3   107  THR107      0.1808
     84  OG1       55.8070   99.8160  152.0440 O.3   107  THR107     -0.2208
     85  CG2       54.1270   98.6830  153.3560 C.3   107  THR107      0.0379
     86  N         58.6480   99.2740  152.9340 N.am  108  GLN108     -0.1976
     87  CA        59.9660   98.9880  152.3870 C.3   108  GLN108      0.1601
     88  C         60.9470   98.6890  153.5150 C.2   108  GLN108      0.2287
     89  O         60.5930   98.6700  154.6960 O.2   108  GLN108     -0.2864
     90  CB        60.4470  100.1500  151.5290 C.3   108  GLN108      0.0394
     91  CG        59.5850  100.3550  150.3140 C.3   108  GLN108      0.0908
     92  CD        59.5400   99.1240  149.4490 C.2   108  GLN108      0.2608
     93  OE1       60.5580   98.4670  149.2440 O.2   108  GLN108     -0.2717
     94  NE2       58.3570   98.7880  148.9530 N.am  108  GLN108     -0.0878
@<TRIPOS>BOND
     1    64    63    1
     2    61    63   ar
     3    61    59   ar
     4    63    62   ar
     5     8     6    1
     6    94    92   am
     7    59    58   ar
     8    93    92    2
     9    26    25    1
    10     7     6    1
    11    92    91    1
    12    62    60   ar
    13     6     5    1
    14    58    60   ar
    15    58    57    1
    16    91    90    1
    17    25    27    1
    18    25    24    1
    19    38    37    1
    20     5     2    1
    21    57    54    1
    22    90    87    1
    23    24    21    1
    24    18    16   ar
    25    18    19   ar
    26    37    39    1
    27    37    34    1
    28    84    83    1
    29     2     3    1
    30     2     1    1
    31    54    55    1
    32    54    53    1
    33    16    14   ar
    34     4     3    2
    35    87    86    1
    36    87    88    1
    37    19    17   ar
    38    21    22    1
    39    21    20    1
    40    36    35    2
    41    56    55    2
    42    83    85    1
    43    83    80    1
    44    35    34    1
    45    86    81   am
    46    23    22    2
    47    34    33    1
    48    53    50   am
    49    20    11   am
    50    81    82    2
    51    81    80    1
    52    88    89    2
    53    14    13    1
    54    14    15   ar
    55    17    15   ar
    56    80    79    1
    57    12    11    2
    58    11    10    1
    59    33    30   am
    60    13    10    1
    61    50    51    2
    62    50    49    1
    63    79    67   am
    64    52    49    1
    65    10     9    1
    66    49    48    1
    67    40    41    1
    68    30    31    2
    69    30    29    1
    70    48    42   am
    71    65    66    1
    72    67    68    2
    73    67    66    1
    74    42    43    2
    75    42    41    1
    76    28    29    1
    77    41    44    1
    78    29    32    1
    79    66    69    1
    80    69    70    1
    81    44    45    1
    82    71    70   ar
    83    71    73   ar
    84    70    72   ar
    85    45    46    1
    86    45    47    1
    87    73    74   ar
    88    72    75   ar
    89    72    74   ar
    90    75    77   ar
    91    74    76   ar
    92    77    78   ar
    93    76    78   ar
