@<TRIPOS>MOLECULE
tmp/5lnkI04.pdb
 112 104 0 0 0
SMALL
GASTEIGER

@<TRIPOS>ATOM
      1  N         59.6130  120.5280  117.7480 N.3   206  ILE206     -0.1245
      2  CA        59.1040  119.1920  117.4510 C.3   206  ILE206      0.1561
      3  C         60.1030  118.4040  116.6180 C.2   206  ILE206      0.2260
      4  O         60.4920  117.2820  116.9750 O.2   206  ILE206     -0.2867
      5  CB        57.7370  119.2840  116.7570 C.3   206  ILE206      0.0252
      6  CG1       56.6710  119.6770  117.7690 C.3   206  ILE206      0.0019
      7  CG2       57.3920  117.9830  116.0900 C.3   206  ILE206      0.0019
      8  CD1       55.3330  119.9060  117.1550 C.3   206  ILE206      0.0001
      9  N         62.1160  114.8310  117.5360 N.3   210  ILE210     -0.1245
     10  CA        62.2350  113.6230  116.7250 C.3   210  ILE210      0.1561
     11  C         63.7010  113.2900  116.4830 C.2   210  ILE210      0.2260
     12  O         64.1170  112.1270  116.5740 O.2   210  ILE210     -0.2867
     13  CB        61.4670  113.7780  115.4030 C.3   210  ILE210      0.0252
     14  CG1       59.9750  113.9070  115.6620 C.3   210  ILE210      0.0019
     15  CG2       61.6990  112.5780  114.5380 C.3   210  ILE210      0.0019
     16  CD1       59.1860  114.1770  114.4280 C.3   210  ILE210      0.0001
     17  N         64.7090   95.6680  123.1010 N.3   322  ARG322     -0.1231
     18  CA        63.4630   96.2140  122.5810 C.3   322  ARG322      0.1694
     19  C         63.6520   97.6900  122.2660 C.2   322  ARG322      0.2592
     20  O         63.9990   98.4810  123.1490 O.2   322  ARG322     -0.2718
     21  CB        62.3330   96.0170  123.5870 C.3   322  ARG322      0.0321
     22  CG        60.9480   96.3530  123.0650 C.3   322  ARG322      0.0489
     23  CD        59.9130   96.1200  124.1600 C.3   322  ARG322      0.2205
     24  NE        58.5410   96.4190  123.7530 N.pl3 322  ARG322     -0.0865
     25  CZ        57.7140   95.5390  123.1950 C.cat 322  ARG322      0.5346
     26  NH1       58.1110   94.2920  122.9790 N.pl3 322  ARG322      0.1354
     27  NH2       56.4820   95.9010  122.8610 N.pl3 322  ARG322      0.1354
     28  N         63.4250   98.0570  121.0110 N.am  323  MET323     -0.1965
     29  CA        63.5500   99.4310  120.5470 C.3   323  MET323      0.1736
     30  C         62.1340   99.9250  120.3070 C.2   323  MET323      0.2617
     31  O         61.3900   99.3140  119.5330 O.2   323  MET323     -0.2715
     32  CB        64.3810   99.4820  119.2700 C.3   323  MET323      0.0427
     33  CG        65.6790   98.7210  119.4000 C.3   323  MET323      0.0599
     34  SD        66.5840   98.6010  117.8580 S.3   323  MET323     -0.1393
     35  CE        67.8060   97.3750  118.2930 C.3   323  MET323      0.0692
     36  N         61.7520  101.0130  120.9660 N.am  324  THR324     -0.1937
     37  CA        60.3230  101.1940  121.1570 C.3   324  THR324      0.2028
     38  C         59.6390  101.6140  119.8700 C.2   324  THR324      0.2642
     39  O         58.9830  100.7900  119.2260 O.2   324  THR324     -0.2714
     40  CB        60.0610  102.2190  122.2500 C.3   324  THR324      0.1808
     41  OG1       60.6840  101.7760  123.4610 O.3   324  THR324     -0.2208
     42  CG2       58.5670  102.3650  122.4850 C.3   324  THR324      0.0379
     43  N         59.7760  102.8670  119.4650 N.am  325  LEU325     -0.1977
     44  CA        59.4130  103.2280  118.1060 C.3   325  LEU325      0.1596
     45  C         60.6660  103.8080  117.4680 C.2   325  LEU325      0.2287
     46  O         60.9150  105.0120  117.5530 O.2   325  LEU325     -0.2864
     47  CB        58.2740  104.2100  118.1490 C.3   325  LEU325      0.0297
     48  CG        57.6720  104.7240  116.8580 C.3   325  LEU325      0.0022
     49  CD1       57.0660  103.5670  116.1140 C.3   325  LEU325      0.0001
     50  CD2       56.6210  105.7580  117.1970 C.3   325  LEU325      0.0001
     51  N         61.5020  102.8820  113.8320 N.3   327  PRO327     -0.2102
     52  CA        61.3620  103.1270  112.3880 C.3   327  PRO327      0.1504
     53  C         60.5500  104.3580  112.0420 C.2   327  PRO327      0.2576
     54  O         60.9790  105.1690  111.2070 O.2   327  PRO327     -0.2718
     55  CB        60.6810  101.8500  111.8920 C.3   327  PRO327      0.0282
     56  CG        61.0360  100.8410  112.8700 C.3   327  PRO327      0.0208
     57  CD        61.0010  101.5440  114.1790 C.3   327  PRO327      0.0893
     58  N         59.3820  104.5200  112.6660 N.am  328  THR328     -0.1939
     59  CA        58.5140  105.6450  112.3400 C.3   328  THR328      0.2028
     60  C         59.2470  106.9630  112.4940 C.2   328  THR328      0.2642
     61  O         59.1130  107.8630  111.6570 O.2   328  THR328     -0.2714
     62  CB        57.2750  105.6270  113.2240 C.3   328  THR328      0.1808
     63  OG1       56.5050  104.4530  112.9430 O.3   328  THR328     -0.2208
     64  CG2       56.4360  106.8560  112.9800 C.3   328  THR328      0.0379
     65  N         60.0470  107.0870  113.5460 N.am  329  MET329     -0.1976
     66  CA        60.7670  108.3280  113.7690 C.3   329  MET329      0.1605
     67  C         61.9950  108.4400  112.8750 C.2   329  MET329      0.2287
     68  O         62.4040  109.5540  112.5320 O.2   329  MET329     -0.2864
     69  CB        61.1260  108.4410  115.2460 C.3   329  MET329      0.0413
     70  CG        59.8970  108.4620  116.1190 C.3   329  MET329      0.0598
     71  SD        58.8620  109.8740  115.6940 S.3   329  MET329     -0.1393
     72  CE        57.4230  109.5820  116.7150 C.3   329  MET329      0.0692
     73  N         60.6030  109.3910  109.6680 N.3   332  LEU332     -0.1245
     74  CA        59.8860  110.6400  109.8610 C.3   332  LEU332      0.1561
     75  C         60.8420  111.8120  110.0020 C.2   332  LEU332      0.2260
     76  O         60.4700  112.9490  109.7010 O.2   332  LEU332     -0.2867
     77  CB        58.9710  110.5200  111.0740 C.3   332  LEU332      0.0270
     78  CG        58.0690  111.7070  111.3680 C.3   332  LEU332      0.0019
     79  CD1       57.2050  111.9600  110.1570 C.3   332  LEU332      0.0001
     80  CD2       57.2050  111.4010  112.5760 C.3   332  LEU332      0.0001
     81  N         60.9320  114.1560  105.8130 N.3   336  LEU336     -0.1245
     82  CA        59.8170  115.0560  106.0790 C.3   336  LEU336      0.1561
     83  C         59.8240  116.3200  105.2210 C.2   336  LEU336      0.2260
     84  O         58.7760  116.9590  105.0940 O.2   336  LEU336     -0.2867
     85  CB        59.7910  115.4170  107.5630 C.3   336  LEU336      0.0270
     86  CG        58.5690  116.2000  108.0280 C.3   336  LEU336      0.0019
     87  CD1       57.3390  115.3710  107.7370 C.3   336  LEU336      0.0001
     88  CD2       58.6590  116.5090  109.5050 C.3   336  LEU336      0.0001
     89  N         57.1460  117.1380  102.8680 N.3   339  LEU339     -0.1245
     90  CA        55.9820  117.7350  103.5070 C.3   339  LEU339      0.1561
     91  C         56.2620  119.2050  103.8290 C.2   339  LEU339      0.2260
     92  O         57.0850  119.8560  103.1820 O.2   339  LEU339     -0.2867
     93  CB        55.5620  116.9350  104.7340 C.3   339  LEU339      0.0270
     94  CG        54.4970  115.8830  104.4350 C.3   339  LEU339      0.0019
     95  CD1       55.0540  114.7600  103.5990 C.3   339  LEU339      0.0001
     96  CD2       53.8870  115.3700  105.7260 C.3   339  LEU339      0.0001
     97  N         52.4270  121.2930  105.6590 N.3   342  ILE342     -0.1245
     98  CA        51.9190  120.8330  106.9470 C.3   342  ILE342      0.1561
     99  C         52.4100  121.6700  108.1150 C.2   342  ILE342      0.2260
    100  O         51.9500  121.4690  109.2390 O.2   342  ILE342     -0.2867
    101  CB        52.3170  119.3620  107.1860 C.3   342  ILE342      0.0252
    102  CG1       51.4350  118.7180  108.2500 C.3   342  ILE342      0.0019
    103  CG2       53.7400  119.2750  107.6760 C.3   342  ILE342      0.0019
    104  CD1       49.9950  118.6150  107.8440 C.3   342  ILE342      0.0001
    105  N         49.8240  123.0300  110.4610 N.3   345  ILE345     -0.1245
    106  CA        49.0560  122.1320  111.3180 C.3   345  ILE345      0.1561
    107  C         49.5150  122.2860  112.7500 C.2   345  ILE345      0.2260
    108  O         48.7400  122.0920  113.6910 O.2   345  ILE345     -0.2867
    109  CB        49.1820  120.6670  110.8670 C.3   345  ILE345      0.0252
    110  CG1       48.0670  119.8630  111.4930 C.3   345  ILE345      0.0019
    111  CG2       50.4420  120.0400  111.3960 C.3   345  ILE345      0.0019
    112  CD1       46.7660  120.3240  111.0550 C.3   345  ILE345      0.0001
@<TRIPOS>BOND
     1    89    90    1
     2    92    91    2
     3    90    91    1
     4    90    93    1
     5    95    94    1
     6    94    93    1
     7    94    96    1
     8    84    83    2
     9    83    82    1
    10    97    98    1
    11    81    82    1
    12    82    85    1
    13    98   101    1
    14    98    99    1
    15   101   103    1
    16   101   102    1
    17    85    86    1
    18    87    86    1
    19   104   102    1
    20    86    88    1
    21    99   100    2
    22    73    74    1
    23    76    75    2
    24    74    75    1
    25    74    77    1
    26    79    78    1
    27   105   106    1
    28   109   106    1
    29   109   111    1
    30   109   110    1
    31   112   110    1
    32    77    78    1
    33    54    53    2
    34   106   107    1
    35    78    80    1
    36    61    60    2
    37    55    52    1
    38    55    56    1
    39    53    52    1
    40    53    58   am
    41    59    60    1
    42    59    58    1
    43    59    62    1
    44    52    51    1
    45    60    65   am
    46    68    67    2
    47   107   108    2
    48    56    57    1
    49    67    66    1
    50    63    62    1
    51    64    62    1
    52    65    66    1
    53    66    69    1
    54    51    57    1
    55    16    14    1
    56    15    13    1
    57    69    70    1
    58    13    14    1
    59    13    10    1
    60    71    70    1
    61    71    72    1
    62     7     5    1
    63    49    48    1
    64    11    12    2
    65    11    10    1
    66     3     4    2
    67     3     2    1
    68    10     9    1
    69     5     2    1
    70     5     6    1
    71    48    50    1
    72    48    47    1
    73     8     6    1
    74     2     1    1
    75    45    46    2
    76    45    44    1
    77    34    35    1
    78    34    33    1
    79    44    47    1
    80    44    43    1
    81    39    38    2
    82    32    33    1
    83    32    29    1
    84    43    38   am
    85    31    30    2
    86    38    37    1
    87    30    29    1
    88    30    36   am
    89    29    28    1
    90    36    37    1
    91    28    19   am
    92    37    40    1
    93    40    42    1
    94    40    41    1
    95    19    18    1
    96    19    20    2
    97    18    17    1
    98    18    21    1
    99    27    25    1
   100    26    25    1
   101    22    21    1
   102    22    23    1
   103    25    24    2
   104    24    23    1
