@<TRIPOS>MOLECULE
tmp/5lnkN00.pdb
 109 99 0 0 0
SMALL
GASTEIGER

@<TRIPOS>ATOM
      1  N         62.0510  150.2460  163.5750 N.3     5  ILE5       -0.1245
      2  CA        62.5230  148.9120  163.9290 C.3     5  ILE5        0.1561
      3  C         62.2920  147.9060  162.8080 C.2     5  ILE5        0.2260
      4  O         63.0180  146.9110  162.7040 O.2     5  ILE5       -0.2867
      5  CB        61.8590  148.4740  165.2460 C.3     5  ILE5        0.0252
      6  CG1       62.5030  147.1920  165.7670 C.3     5  ILE5        0.0019
      7  CG2       60.3670  148.3170  165.0610 C.3     5  ILE5        0.0019
      8  CD1       63.9530  147.3620  166.1550 C.3     5  ILE5        0.0001
      9  N         65.5920  145.9800  161.7150 N.3     9  LEU9       -0.1245
     10  CA        65.5970  144.5360  161.5200 C.3     9  LEU9        0.1561
     11  C         65.9140  144.1770  160.0770 C.2     9  LEU9        0.2260
     12  O         66.6410  143.2160  159.8180 O.2     9  LEU9       -0.2867
     13  CB        64.2630  143.9410  161.9560 C.3     9  LEU9        0.0270
     14  CG        64.0890  144.0100  163.4680 C.3     9  LEU9        0.0019
     15  CD1       62.7150  143.5450  163.8790 C.3     9  LEU9        0.0001
     16  CD2       65.1610  143.1700  164.1350 C.3     9  LEU9        0.0001
     17  N         74.6000  129.3490  162.1680 N.3    31  LEU31      -0.1245
     18  CA        74.4710  130.5560  162.9780 C.3    31  LEU31       0.1561
     19  C         74.0080  131.7350  162.1320 C.2    31  LEU31       0.2260
     20  O         72.9990  132.3810  162.4390 O.2    31  LEU31      -0.2867
     21  CB        75.8020  130.8690  163.6590 C.3    31  LEU31       0.0270
     22  CG        76.2700  129.8510  164.6930 C.3    31  LEU31       0.0019
     23  CD1       77.6480  130.2000  165.1990 C.3    31  LEU31       0.0001
     24  CD2       75.2870  129.8260  165.8320 C.3    31  LEU31       0.0001
     25  N         70.2280  131.2320  160.9650 N.3    34  ILE34      -0.1231
     26  CA        69.2370  131.2820  162.0420 C.3    34  ILE34       0.1692
     27  C         69.1160  132.6870  162.6150 C.2    34  ILE34       0.2591
     28  O         68.0170  133.1380  162.9680 O.2    34  ILE34      -0.2718
     29  CB        69.5770  130.2550  163.1340 C.3    34  ILE34       0.0266
     30  CG1       70.9290  130.5650  163.7580 C.3    34  ILE34       0.0019
     31  CG2       69.5880  128.8710  162.5680 C.3    34  ILE34       0.0020
     32  CD1       71.2980  129.6480  164.8630 C.3    34  ILE34       0.0001
     33  N         70.2300  133.4140  162.6900 N.am   35  VAL35      -0.1980
     34  CA        70.1530  134.8220  163.0660 C.3    35  VAL35       0.1595
     35  C         69.2800  135.5770  162.0750 C.2    35  VAL35       0.2287
     36  O         68.2650  136.1830  162.4440 O.2    35  VAL35      -0.2864
     37  CB        71.5580  135.4390  163.1550 C.3    35  VAL35       0.0276
     38  CG1       71.4550  136.9320  163.3780 C.3    35  VAL35       0.0022
     39  CG2       72.3310  134.8010  164.2790 C.3    35  VAL35       0.0022
     40  N         65.4960  134.4800  162.2010 N.3    38  GLY38      -0.1210
     41  CA        64.8060  135.0240  163.3560 C.3    38  GLY38       0.1956
     42  C         64.5320  136.5060  163.2050 C.2    38  GLY38       0.2611
     43  O         63.4440  136.9900  163.5330 O.2    38  GLY38      -0.2717
     44  N         65.5070  137.2460  162.6800 N.am   39  VAL39      -0.1979
     45  CA        65.2330  138.6310  162.3330 C.3    39  VAL39       0.1595
     46  C         64.0980  138.6990  161.3200 C.2    39  VAL39       0.2287
     47  O         63.2920  139.6390  161.3340 O.2    39  VAL39      -0.2864
     48  CB        66.5110  139.2990  161.8080 C.3    39  VAL39       0.0276
     49  CG1       66.2310  140.7200  161.4340 C.3    39  VAL39       0.0022
     50  CG2       67.5920  139.2370  162.8550 C.3    39  VAL39       0.0022
     51  N         61.4730  136.7090  161.2500 N.3    41  CYS41      -0.1221
     52  CA        60.3470  136.7930  162.1660 C.3    41  CYS41       0.1808
     53  C         60.1560  138.2260  162.6220 C.2    41  CYS41       0.2601
     54  O         59.0280  138.7180  162.6930 O.2    41  CYS41      -0.2717
     55  CB        60.5720  135.8870  163.3700 C.3    41  CYS41       0.0970
     56  SG        60.7570  134.1660  162.9480 S.3    41  CYS41      -0.0800
     57  N         61.2560  138.9240  162.9080 N.am   42  GLY42      -0.1957
     58  CA        61.1370  140.3160  163.3100 C.3    42  GLY42       0.1869
     59  C         60.3660  141.1460  162.3060 C.2    42  GLY42       0.2309
     60  O         59.3750  141.7970  162.6460 O.2    42  GLY42      -0.2863
     61  N         56.6350  139.8100  161.5330 N.3    45  LEU45      -0.1231
     62  CA        55.7940  140.1190  162.6820 C.3    45  LEU45       0.1693
     63  C         55.5020  141.6080  162.7560 C.2    45  LEU45       0.2592
     64  O         54.3510  142.0190  162.9350 O.2    45  LEU45      -0.2718
     65  CB        56.4570  139.6320  163.9670 C.3    45  LEU45       0.0284
     66  CG        56.5240  138.1200  164.1460 C.3    45  LEU45       0.0019
     67  CD1       57.3740  137.7760  165.3460 C.3    45  LEU45       0.0001
     68  CD2       55.1410  137.5660  164.3070 C.3    45  LEU45       0.0001
     69  N         56.5320  142.4370  162.6040 N.am   46  ASN46      -0.1974
     70  CA        56.3210  143.8740  162.7040 C.3    46  ASN46       0.1688
     71  C         55.4460  144.4320  161.5940 C.2    46  ASN46       0.2292
     72  O         55.0100  145.5830  161.7040 O.2    46  ASN46      -0.2864
     73  CB        57.6620  144.5910  162.7380 C.3    46  ASN46       0.1181
     74  CG        58.3210  144.5110  164.0960 C.2    46  ASN46       0.2629
     75  OD1       57.6440  144.4030  165.1140 O.2    46  ASN46      -0.2716
     76  ND2       59.6430  144.5530  164.1190 N.am   46  ASN46      -0.0877
     77  N         51.6600  137.6730  161.9630 N.3    50  SER50      -0.1217
     78  CA        51.9470  136.8560  163.1380 C.3    50  SER50       0.1889
     79  C         52.0470  135.3660  162.8470 C.2    50  SER50       0.2288
     80  O         53.0370  134.7190  163.2090 O.2    50  SER50      -0.2866
     81  CB        50.8670  137.0980  164.1870 C.3    50  SER50       0.2089
     82  OG        49.6130  136.6460  163.7060 O.3    50  SER50      -0.2183
     83  N         55.3960  133.0390  162.6480 N.3    54  LEU54      -0.1245
     84  CA        55.5730  131.8530  163.4730 C.3    54  LEU54       0.1561
     85  C         55.8380  130.5990  162.6540 C.2    54  LEU54       0.2260
     86  O         56.3990  129.6370  163.1850 O.2    54  LEU54      -0.2867
     87  CB        54.3630  131.6510  164.3750 C.3    54  LEU54       0.0270
     88  CG        54.3980  132.6810  165.4890 C.3    54  LEU54       0.0019
     89  CD1       53.1750  132.6010  166.3530 C.3    54  LEU54       0.0001
     90  CD2       55.6410  132.4200  166.3070 C.3    54  LEU54       0.0001
     91  N         59.2280  130.6440  161.8840 N.3    57  PHE57      -0.1241
     92  CA        59.8160  130.4320  163.1910 C.3    57  PHE57       0.1605
     93  C         59.6730  128.9900  163.6540 C.2    57  PHE57       0.2264
     94  O         60.2590  128.6180  164.6720 O.2    57  PHE57      -0.2867
     95  CB        59.1580  131.3870  164.1850 C.3    57  PHE57       0.0534
     96  CG        59.7960  131.4100  165.5310 C.ar   57  PHE57      -0.0203
     97  CD1       60.9570  132.1230  165.7390 C.ar   57  PHE57      -0.0042
     98  CD2       59.2110  130.7640  166.5990 C.ar   57  PHE57      -0.0042
     99  CE1       61.5410  132.1600  166.9730 C.ar   57  PHE57      -0.0003
    100  CE2       59.7900  130.8010  167.8410 C.ar   57  PHE57      -0.0003
    101  CZ        60.9530  131.5050  168.0300 C.ar   57  PHE57      -0.0000
    102  N         63.2430  127.7030  160.7990 N.3    61  LEU61      -0.1245
    103  CA        64.1900  127.6860  161.9090 C.3    61  LEU61       0.1561
    104  C         64.3590  126.2830  162.4690 C.2    61  LEU61       0.2260
    105  O         65.4520  125.7100  162.4180 O.2    61  LEU61      -0.2867
    106  CB        63.7640  128.6550  163.0030 C.3    61  LEU61       0.0270
    107  CG        63.9580  130.1210  162.6510 C.3    61  LEU61       0.0019
    108  CD1       63.4390  130.9860  163.7650 C.3    61  LEU61       0.0001
    109  CD2       65.4240  130.3820  162.4250 C.3    61  LEU61       0.0001
@<TRIPOS>BOND
     1    12    11    2
     2    11    10    1
     3   102   103    1
     4    25    26    1
     5    51    52    1
     6    46    47    2
     7    46    45    1
     8    49    48    1
     9    10     9    1
    10    10    13    1
    11    61    62    1
    12    71    72    2
    13    71    70    1
    14    48    45    1
    15    48    50    1
    16    91    92    1
    17   103   104    1
    18   103   106    1
    19    13    14    1
    20    77    78    1
    21    26    27    1
    22    26    29    1
    23    35    36    2
    24    35    34    1
    25    19    20    2
    26    19    18    1
    27    52    53    1
    28    52    55    1
    29    17    18    1
    30    40    41    1
    31    59    60    2
    32    59    58    1
    33    45    44    1
    34   105   104    2
    35   109   107    1
    36    31    29    1
    37    69    70    1
    38    69    63   am
    39    27    33   am
    40    27    28    2
    41    53    54    2
    42    53    57   am
    43    83    84    1
    44   107   106    1
    45   107   108    1
    46    85    86    2
    47    85    84    1
    48    44    42   am
    49    62    63    1
    50    62    65    1
    51    33    34    1
    52    70    73    1
    53     4     3    2
    54    73    74    1
    55    63    64    2
    56     3     2    1
    57    79    78    1
    58    79    80    2
    59    57    58    1
    60    56    55    1
    61    18    21    1
    62    34    37    1
    63    29    30    1
    64    78    81    1
    65    37    38    1
    66    37    39    1
    67    92    93    1
    68    92    95    1
    69    42    41    1
    70    42    43    2
    71    14    15    1
    72    14    16    1
    73    84    87    1
    74     1     2    1
    75    93    94    2
    76    21    22    1
    77    82    81    1
    78    30    32    1
    79     2     5    1
    80    65    66    1
    81    74    76   am
    82    74    75    2
    83    66    68    1
    84    66    67    1
    85    95    96    1
    86    87    88    1
    87    22    23    1
    88    22    24    1
    89     7     5    1
    90     5     6    1
    91    88    90    1
    92    88    89    1
    93    96    97   ar
    94    96    98   ar
    95    97    99   ar
    96     6     8    1
    97    98   100   ar
    98    99   101   ar
    99   100   101   ar
