@<TRIPOS>MOLECULE
tmp/5lnkH01.pdb
 139 133 0 0 0
SMALL
GASTEIGER

@<TRIPOS>ATOM
      1  N         77.4010  130.1600  173.8010 N.3    73  LEU73      -0.1245
      2  CA        76.0660  130.3340  173.2330 C.3    73  LEU73       0.1561
      3  C         75.0620  129.3820  173.8710 C.2    73  LEU73       0.2260
      4  O         74.1070  129.8170  174.5250 O.2    73  LEU73      -0.2867
      5  CB        76.0870  130.1270  171.7190 C.3    73  LEU73       0.0270
      6  CG        76.6900  131.2240  170.8550 C.3    73  LEU73       0.0019
      7  CD1       76.7510  130.7740  169.4100 C.3    73  LEU73       0.0001
      8  CD2       75.8520  132.4760  170.9910 C.3    73  LEU73       0.0001
      9  N         73.1430  130.0010  177.1870 N.3    76  ILE76      -0.1231
     10  CA        72.2920  131.1800  177.1020 C.3    76  ILE76       0.1692
     11  C         71.0150  130.8600  176.3420 C.2    76  ILE76       0.2591
     12  O         69.9190  131.2790  176.7320 O.2    76  ILE76      -0.2718
     13  CB        73.0590  132.3390  176.4500 C.3    76  ILE76       0.0266
     14  CG1       74.2130  132.7720  177.3420 C.3    76  ILE76       0.0019
     15  CG2       72.1380  133.5030  176.2120 C.3    76  ILE76       0.0020
     16  CD1       75.1190  133.7880  176.7010 C.3    76  ILE76       0.0001
     17  N         71.1330  130.1040  175.2530 N.am   77  LEU77      -0.1980
     18  CA        69.9510  129.7450  174.4820 C.3    77  LEU77       0.1596
     19  C         69.0250  128.8480  175.2860 C.2    77  LEU77       0.2287
     20  O         67.8160  129.0990  175.3660 O.2    77  LEU77      -0.2864
     21  CB        70.3640  129.0650  173.1820 C.3    77  LEU77       0.0297
     22  CG        69.1880  128.5840  172.3450 C.3    77  LEU77       0.0022
     23  CD1       68.3280  129.7610  171.9530 C.3    77  LEU77       0.0001
     24  CD2       69.6740  127.8490  171.1180 C.3    77  LEU77       0.0001
     25  N         67.3110  130.9900  177.9640 N.3    80  THR80      -0.1203
     26  CA        66.4070  131.9870  177.4020 C.3    80  THR80       0.1994
     27  C         65.1270  131.3560  176.8790 C.2    80  THR80       0.2617
     28  O         64.0240  131.8520  177.1460 O.2    80  THR80      -0.2717
     29  CB        67.1080  132.7520  176.2880 C.3    80  THR80       0.1784
     30  OG1       68.2700  133.4000  176.8170 O.3    80  THR80      -0.2211
     31  CG2       66.1790  133.7940  175.7130 C.3    80  THR80       0.0376
     32  N         65.2440  130.2320  176.1750 N.am   81  LEU81      -0.1979
     33  CA        64.0450  129.5130  175.7670 C.3    81  LEU81       0.1596
     34  C         63.2550  129.0480  176.9800 C.2    81  LEU81       0.2287
     35  O         62.0540  129.3130  177.0870 O.2    81  LEU81      -0.2864
     36  CB        64.4100  128.3370  174.8690 C.3    81  LEU81       0.0297
     37  CG        64.9710  128.7960  173.5280 C.3    81  LEU81       0.0022
     38  CD1       65.4140  127.6230  172.6890 C.3    81  LEU81       0.0001
     39  CD2       63.9160  129.5890  172.8040 C.3    81  LEU81       0.0001
     40  N         61.3830  132.0370  178.4810 N.3    84  THR84      -0.1218
     41  CA        60.3310  132.6610  177.6890 C.3    84  THR84       0.1862
     42  C         59.1870  131.7130  177.3700 C.2    84  THR84       0.2287
     43  O         58.1120  132.1770  176.9810 O.2    84  THR84      -0.2866
     44  CB        60.8980  133.2090  176.3840 C.3    84  THR84       0.1770
     45  OG1       61.5010  132.1410  175.6460 O.3    84  THR84      -0.2211
     46  CG2       61.9300  134.2770  176.6630 C.3    84  THR84       0.0375
     47  N         51.5130  137.9440  178.7590 N.3    96  ILE96      -0.1231
     48  CA        51.4030  138.3880  177.3740 C.3    96  ILE96       0.1692
     49  C         50.2840  137.5770  176.7530 C.2    96  ILE96       0.2592
     50  O         50.3880  136.3500  176.6600 O.2    96  ILE96      -0.2718
     51  CB        52.6980  138.2230  176.5610 C.3    96  ILE96       0.0266
     52  CG1       53.7670  139.2020  177.0190 C.3    96  ILE96       0.0019
     53  CG2       52.4410  138.4570  175.0960 C.3    96  ILE96       0.0020
     54  CD1       53.3800  140.6480  176.7890 C.3    96  ILE96       0.0001
     55  N         49.2270  138.2420  176.3200 N.am   97  ASN97      -0.1960
     56  CA        48.1140  137.5370  175.7070 C.3    97  ASN97       0.1819
     57  C         48.3420  137.5460  174.2050 C.2    97  ASN97       0.2621
     58  O         48.2550  138.5950  173.5610 O.2    97  ASN97      -0.2715
     59  CB        46.7840  138.1800  176.0850 C.3    97  ASN97       0.1195
     60  CG        45.6000  137.3390  175.6710 C.2    97  ASN97       0.2630
     61  OD1       45.6910  136.5210  174.7580 O.2    97  ASN97      -0.2716
     62  ND2       44.4870  137.5120  176.3620 N.am   97  ASN97      -0.0877
     63  N         48.6410  136.3800  173.6530 N.am   98  MET98      -0.1963
     64  CA        48.9150  136.2360  172.2360 C.3    98  MET98       0.1736
     65  C         47.7480  135.5310  171.5710 C.2    98  MET98       0.2616
     66  O         47.1590  134.6150  172.1480 O.2    98  MET98      -0.2715
     67  CB        50.2100  135.4610  172.0050 C.3    98  MET98       0.0427
     68  CG        51.4450  136.2400  172.3990 C.3    98  MET98       0.0599
     69  SD        52.9860  135.3700  172.0870 S.3    98  MET98      -0.1393
     70  CE        52.9870  134.2200  173.4480 C.3    98  MET98       0.0692
     71  N         47.3990  135.9810  170.3680 N.am   99  ASN99      -0.1958
     72  CA        46.3120  135.3370  169.6450 C.3    99  ASN99       0.1819
     73  C         46.6720  133.8920  169.3330 C.2    99  ASN99       0.2621
     74  O         45.9480  132.9630  169.7040 O.2    99  ASN99      -0.2715
     75  CB        45.9980  136.1100  168.3670 C.3    99  ASN99       0.1195
     76  CG        44.7040  135.6640  167.7240 C.2    99  ASN99       0.2630
     77  OD1       44.1710  134.6050  168.0460 O.2    99  ASN99      -0.2716
     78  ND2       44.2000  136.4630  166.7940 N.am   99  ASN99      -0.0877
     79  N         47.7840  133.6830  168.6310 N.am  100  LEU100     -0.1977
     80  CA        48.2430  132.3250  168.3680 C.3   100  LEU100      0.1596
     81  C         48.5650  131.5920  169.6610 C.2   100  LEU100      0.2287
     82  O         47.8790  130.6410  170.0310 O.2   100  LEU100     -0.2864
     83  CB        49.4310  132.3320  167.4180 C.3   100  LEU100      0.0297
     84  CG        48.9000  132.2630  165.9850 C.3   100  LEU100      0.0022
     85  CD1       48.1550  133.5260  165.5640 C.3   100  LEU100      0.0001
     86  CD2       50.0140  131.9660  165.0260 C.3   100  LEU100      0.0001
     87  N         53.1090  129.0040  169.4140 N.3   104  PHE104     -0.1241
     88  CA        54.3420  129.7020  169.7540 C.3   104  PHE104      0.1605
     89  C         55.1670  128.8810  170.7320 C.2   104  PHE104      0.2264
     90  O         56.3750  128.6990  170.5400 O.2   104  PHE104     -0.2867
     91  CB        54.0010  131.0760  170.3230 C.3   104  PHE104      0.0534
     92  CG        55.1560  131.8200  170.8950 C.ar  104  PHE104     -0.0203
     93  CD1       56.0550  132.4660  170.0810 C.ar  104  PHE104     -0.0042
     94  CD2       55.3000  131.9300  172.2600 C.ar  104  PHE104     -0.0042
     95  CE1       57.1060  133.1720  170.6290 C.ar  104  PHE104     -0.0003
     96  CE2       56.3250  132.6460  172.8050 C.ar  104  PHE104     -0.0003
     97  CZ        57.2390  133.2570  171.9970 C.ar  104  PHE104     -0.0000
     98  N         58.9490  127.4300  169.9280 N.3   108  MET108     -0.1245
     99  CA        60.1850  127.5730  170.6890 C.3   108  MET108      0.1570
    100  C         60.6580  126.2220  171.2150 C.2   108  MET108      0.2261
    101  O         61.8570  125.9120  171.1690 O.2   108  MET108     -0.2867
    102  CB        60.0090  128.5720  171.8250 C.3   108  MET108      0.0387
    103  CG        59.7040  129.9830  171.3740 C.3   108  MET108      0.0595
    104  SD        59.9360  131.1430  172.7340 S.3   108  MET108     -0.1393
    105  CE        58.6690  130.6150  173.8790 C.3   108  MET108      0.0692
    106  N         62.7040  124.9750  168.7670 N.3   111  LEU111     -0.1245
    107  CA        64.0440  125.5520  168.7430 C.3   111  LEU111      0.1561
    108  C         64.9480  125.0040  169.8350 C.2   111  LEU111      0.2260
    109  O         66.1680  125.1530  169.7320 O.2   111  LEU111     -0.2867
    110  CB        64.0080  127.0690  168.8910 C.3   111  LEU111      0.0270
    111  CG        63.4200  127.9220  167.7870 C.3   111  LEU111      0.0019
    112  CD1       63.5230  129.3530  168.2150 C.3   111  LEU111      0.0001
    113  CD2       64.1760  127.7070  166.5080 C.3   111  LEU111      0.0001
    114  N         68.8460  123.1670  169.5390 N.3   114  TYR114     -0.1241
    115  CA        70.1630  123.6830  169.1780 C.3   114  TYR114      0.1605
    116  C         71.1260  123.6300  170.3470 C.2   114  TYR114      0.2264
    117  O         72.3340  123.4900  170.1450 O.2   114  TYR114     -0.2867
    118  CB        70.0700  125.1110  168.6580 C.3   114  TYR114      0.0534
    119  CG        69.4280  125.1970  167.3140 C.ar  114  TYR114     -0.0201
    120  CD1       70.1790  125.0710  166.1640 C.ar  114  TYR114     -0.0009
    121  CD2       68.0690  125.3870  167.1960 C.ar  114  TYR114     -0.0009
    122  CE1       69.5960  125.1410  164.9400 C.ar  114  TYR114      0.0417
    123  CE2       67.4800  125.4620  165.9800 C.ar  114  TYR114      0.0417
    124  CZ        68.2440  125.3370  164.8570 C.ar  114  TYR114      0.1957
    125  OH        67.6290  125.4080  163.6410 O.3   114  TYR114     -0.2866
    126  N         74.6750  121.9750  169.5410 N.3   118  TRP118     -0.1241
    127  CA        75.8730  122.7600  169.7960 C.3   118  TRP118      0.1605
    128  C         76.5860  122.2900  171.0530 C.2   118  TRP118      0.2264
    129  O         77.8040  122.0800  171.0400 O.2   118  TRP118     -0.2867
    130  CB        75.4910  124.2280  169.9130 C.3   118  TRP118      0.0550
    131  CG        74.9770  124.7890  168.6450 C.ar  118  TRP118      0.0003
    132  CD1       75.0820  124.2390  167.4050 C.ar  118  TRP118      0.0946
    133  CD2       74.2000  125.9780  168.4940 C.ar  118  TRP118      0.0152
    134  NE1       74.4580  125.0390  166.4810 N.ar  118  TRP118     -0.2442
    135  CE2       73.9020  126.1100  167.1290 C.ar  118  TRP118      0.0810
    136  CE3       73.7440  126.9540  169.3820 C.ar  118  TRP118      0.0012
    137  CZ2       73.1710  127.1740  166.6320 C.ar  118  TRP118      0.0191
    138  CZ3       73.0210  128.0070  168.8860 C.ar  118  TRP118      0.0001
    139  CH2       72.7380  128.1110  167.5280 C.ar  118  TRP118      0.0015
@<TRIPOS>BOND
     1   125   124    1
     2   124   122   ar
     3   124   123   ar
     4   122   120   ar
     5    86    84    1
     6    85    84    1
     7   123   121   ar
     8    84    83    1
     9   120   119   ar
    10   134   135   ar
    11   134   132   ar
    12   113   111    1
    13   137   135   ar
    14   137   139   ar
    15    78    76   am
    16   135   133   ar
    17   121   119   ar
    18   119   118    1
    19   132   131   ar
    20    83    80    1
    21   139   138   ar
    22    76    77    2
    23    76    75    1
    24   111   112    1
    25   111   110    1
    26    75    72    1
    27    80    79    1
    28    80    81    1
    29   133   131   ar
    30   133   136   ar
    31    79    73   am
    32   131   130    1
    33   118   115    1
    34   107   106    1
    35   107   110    1
    36   107   108    1
    37   138   136   ar
    38   115   114    1
    39   115   116    1
    40    73    72    1
    41    73    74    2
    42     7     6    1
    43    87    88    1
    44   126   127    1
    45    72    71    1
    46    81    82    2
    47   109   108    2
    48    88    91    1
    49    88    89    1
    50   127   130    1
    51   127   128    1
    52    98    99    1
    53    93    95   ar
    54    93    92   ar
    55   117   116    2
    56    91    92    1
    57    71    65   am
    58    90    89    2
    59    95    97   ar
    60    99   100    1
    61    99   102    1
    62     6     8    1
    63     6     5    1
    64    92    94   ar
    65   129   128    2
    66    24    22    1
    67   101   100    2
    68   103   102    1
    69   103   104    1
    70    65    66    2
    71    65    64    1
    72     5     2    1
    73    23    22    1
    74    97    96   ar
    75    67    64    1
    76    67    68    1
    77    69    68    1
    78    69    70    1
    79    64    63    1
    80    94    96   ar
    81    22    21    1
    82    38    37    1
    83   104   105    1
    84    39    37    1
    85    21    18    1
    86     2     1    1
    87     2     3    1
    88    37    36    1
    89    58    57    2
    90    63    57   am
    91     3     4    2
    92    57    56    1
    93    18    17    1
    94    18    19    1
    95    61    60    2
    96    36    33    1
    97    53    51    1
    98    17    11   am
    99    19    20    2
   100    45    44    1
   101    60    59    1
   102    60    62   am
   103    56    59    1
   104    56    55    1
   105    31    29    1
   106    33    32    1
   107    33    34    1
   108    32    27   am
   109    15    13    1
   110    29    30    1
   111    29    26    1
   112    55    49   am
   113    11    12    2
   114    11    10    1
   115    44    46    1
   116    44    41    1
   117    13    10    1
   118    13    14    1
   119    51    52    1
   120    51    48    1
   121    50    49    2
   122    16    14    1
   123    49    48    1
   124    54    52    1
   125    27    28    2
   126    27    26    1
   127    34    35    2
   128    43    42    2
   129    10     9    1
   130    42    41    1
   131    48    47    1
   132    26    25    1
   133    41    40    1
