@<TRIPOS>MOLECULE
tmp/5lnkM01.pdb
 158 146 0 0 0
SMALL
GASTEIGER

@<TRIPOS>ATOM
      1  N         84.1780  111.1450   47.1820 N.3    15  LEU15      -0.1245
      2  CA        83.5400  110.6980   48.4140 C.3    15  LEU15       0.1561
      3  C         83.3350  109.1930   48.4210 C.2    15  LEU15       0.2260
      4  O         83.3180  108.5740   49.4890 O.2    15  LEU15      -0.2867
      5  CB        82.1940  111.3950   48.5840 C.3    15  LEU15       0.0270
      6  CG        81.4640  111.0600   49.8800 C.3    15  LEU15       0.0019
      7  CD1       82.2270  111.6760   51.0200 C.3    15  LEU15       0.0001
      8  CD2       80.0120  111.5170   49.8840 C.3    15  LEU15       0.0001
      9  N         86.0320  106.0610   50.6200 N.3    18  PRO18      -0.2102
     10  CA        86.0360  105.6690   52.0430 C.3    18  PRO18       0.1504
     11  C         84.8320  104.8380   52.4410 C.2    18  PRO18       0.2575
     12  O         84.9310  103.9520   53.3060 O.2    18  PRO18      -0.2718
     13  CB        86.0610  107.0200   52.7700 C.3    18  PRO18       0.0282
     14  CG        86.7160  107.9310   51.8140 C.3    18  PRO18       0.0208
     15  CD        86.1890  107.5170   50.4750 C.3    18  PRO18       0.0893
     16  N         83.6970  105.0740   51.7850 N.am   19  ILE19      -0.1980
     17  CA        82.5140  104.2590   52.0160 C.3    19  ILE19       0.1595
     18  C         82.8000  102.8050   51.6670 C.2    19  ILE19       0.2287
     19  O         82.4150  101.8810   52.3980 O.2    19  ILE19      -0.2864
     20  CB        81.3390  104.8220   51.2030 C.3    19  ILE19       0.0276
     21  CG1       81.2330  106.3320   51.4330 C.3    19  ILE19       0.0022
     22  CG2       80.0460  104.1180   51.5710 C.3    19  ILE19       0.0022
     23  CD1       81.0870  106.7380   52.8850 C.3    19  ILE19       0.0001
     24  N         85.8330  101.7040   51.7200 N.3    21  ALA21      -0.1231
     25  CA        86.8780  101.3730   52.6770 C.3    21  ALA21       0.1694
     26  C         86.3230  100.9710   54.0250 C.2    21  ALA21       0.2592
     27  O         87.0870  100.4930   54.8680 O.2    21  ALA21      -0.2718
     28  CB        87.8300  102.5510   52.8660 C.3    21  ALA21       0.0304
     29  N         85.0310  101.1550   54.2550 N.am   22  ILE22      -0.1966
     30  CA        84.4000  100.7650   55.5070 C.3    22  ILE22       0.1727
     31  C         83.4270   99.6030   55.3090 C.2    22  ILE22       0.2616
     32  O         83.6430   98.5130   55.8350 O.2    22  ILE22      -0.2715
     33  CB        83.7220  101.9710   56.1970 C.3    22  ILE22       0.0290
     34  CG1       82.6660  102.6200   55.3090 C.3    22  ILE22       0.0022
     35  CG2       84.7590  103.0070   56.5290 C.3    22  ILE22       0.0023
     36  CD1       81.8290  103.6540   55.9920 C.3    22  ILE22       0.0001
     37  N         82.3820   99.8000   54.5050 N.am   23  ASN23      -0.1972
     38  CA        81.1630   99.0210   54.6980 C.3    23  ASN23       0.1688
     39  C         81.3440   97.5350   54.4010 C.2    23  ASN23       0.2292
     40  O         80.8310   96.6940   55.1450 O.2    23  ASN23      -0.2864
     41  CB        80.0400   99.6110   53.8560 C.3    23  ASN23       0.1181
     42  CG        79.5900  100.9520   54.3770 C.2    23  ASN23       0.2629
     43  OD1       79.8020  101.2730   55.5450 O.2    23  ASN23      -0.2716
     44  ND2       78.9600  101.7420   53.5210 N.am   23  ASN23      -0.0877
     45  N         84.2080   95.4450   53.9520 N.3    25  ASN25      -0.1240
     46  CA        85.2890   94.8240   54.7330 C.3    25  ASN25       0.1653
     47  C         85.8320   93.5180   54.1570 C.2    25  ASN25       0.2266
     48  O         86.4830   92.7630   54.8810 O.2    25  ASN25      -0.2867
     49  CB        84.8900   94.5570   56.1890 C.3    25  ASN25       0.1155
     50  CG        85.0000   95.7760   57.0630 C.2    25  ASN25       0.2627
     51  OD1       85.6140   96.7750   56.6890 O.2    25  ASN25      -0.2716
     52  ND2       84.4810   95.6680   58.2780 N.am   25  ASN25      -0.0877
     53  N         87.9040   94.8930   49.5780 N.3    28  LYS28      -0.1245
     54  CA        89.0500   95.7830   49.6890 C.3    28  LYS28       0.1561
     55  C         90.3540   94.9990   49.6530 C.2    28  LYS28       0.2260
     56  O         91.3720   95.5050   49.1690 O.2    28  LYS28      -0.2867
     57  CB        88.9400   96.6000   50.9770 C.3    28  LYS28       0.0271
     58  CG        88.9280   95.7560   52.2410 C.3    28  LYS28       0.0035
     59  CD        88.7760   96.6160   53.4850 C.3    28  LYS28       0.0206
     60  CE        88.7310   95.7640   54.7450 C.3    28  LYS28       0.1093
     61  NZ        88.5740   96.5730   55.9880 N.3    28  LYS28      -0.1314
     62  N         94.8340  101.2730   54.6700 N.3   116  GLN116     -0.1245
     63  CA        94.6340  102.4110   55.5550 C.3   116  GLN116      0.1566
     64  C         95.3440  103.6480   55.0270 C.2   116  GLN116      0.2260
     65  O         94.7830  104.7500   55.0360 O.2   116  GLN116     -0.2867
     66  CB        95.1480  102.0480   56.9440 C.3   116  GLN116      0.0367
     67  CG        94.8490  103.0410   58.0240 C.3   116  GLN116      0.0905
     68  CD        95.3780  102.5820   59.3630 C.2   116  GLN116      0.2608
     69  OE1       95.8890  101.4710   59.4890 O.2   116  GLN116     -0.2717
     70  NE2       95.2720  103.4370   60.3700 N.am  116  GLN116     -0.0878
     71  N         93.4180  105.2420   52.5140 N.3   119  LYS119     -0.1231
     72  CA        92.2700  105.8890   53.1370 C.3   119  LYS119      0.1693
     73  C         92.6410  107.2920   53.5850 C.2   119  LYS119      0.2592
     74  O         91.9710  108.2700   53.2300 O.2   119  LYS119     -0.2718
     75  CB        91.7430  105.0830   54.3220 C.3   119  LYS119      0.0285
     76  CG        90.5020  105.7150   54.9420 C.3   119  LYS119      0.0035
     77  CD        89.9830  104.9460   56.1380 C.3   119  LYS119      0.0206
     78  CE        90.7900  105.2550   57.3820 C.3   119  LYS119      0.1093
     79  NZ        90.2680  104.5590   58.5930 N.3   119  LYS119     -0.1314
     80  N         93.7310  107.4130   54.3420 N.am  120  TYR120     -0.1976
     81  CA        94.1950  108.7300   54.7470 C.3   120  TYR120      0.1639
     82  C         94.4510  109.6110   53.5410 C.2   120  TYR120      0.2290
     83  O         93.6840  110.5390   53.2890 O.2   120  TYR120     -0.2864
     84  CB        95.4530  108.6450   55.5990 C.3   120  TYR120      0.0560
     85  CG        95.1790  108.0990   56.9600 C.ar  120  TYR120     -0.0198
     86  CD1       94.6590  108.9070   57.9470 C.ar  120  TYR120     -0.0009
     87  CD2       95.4500  106.7830   57.2660 C.ar  120  TYR120     -0.0009
     88  CE1       94.4070  108.4200   59.1910 C.ar  120  TYR120      0.0417
     89  CE2       95.2000  106.2890   58.5110 C.ar  120  TYR120      0.0417
     90  CZ        94.6770  107.1080   59.4720 C.ar  120  TYR120      0.1957
     91  OH        94.4250  106.6130   60.7260 O.3   120  TYR120     -0.2866
     92  N         91.6540  110.8670   51.8790 N.3   123  LEU123     -0.1245
     93  CA        90.8630  111.7720   52.7060 C.3   123  LEU123      0.1561
     94  C         91.4980  113.1560   52.7720 C.2   123  LEU123      0.2260
     95  O         90.8050  114.1770   52.6740 O.2   123  LEU123     -0.2867
     96  CB        90.6950  111.1720   54.0960 C.3   123  LEU123      0.0270
     97  CG        89.9620  112.0480   55.0870 C.3   123  LEU123      0.0019
     98  CD1       88.6020  112.3940   54.5340 C.3   123  LEU123      0.0001
     99  CD2       89.8230  111.2710   56.3660 C.3   123  LEU123      0.0001
    100  N         90.3760  114.8870   49.9020 N.3   126  ILE126     -0.1231
    101  CA        89.0290  115.4300   50.0560 C.3   126  ILE126      0.1692
    102  C         89.0720  116.7570   50.7960 C.2   126  ILE126      0.2592
    103  O         88.4050  117.7220   50.4050 O.2   126  ILE126     -0.2718
    104  CB        88.0940  114.4300   50.7570 C.3   126  ILE126      0.0266
    105  CG1       87.6890  113.3010   49.8130 C.3   126  ILE126      0.0019
    106  CG2       86.8650  115.1440   51.2770 C.3   126  ILE126      0.0020
    107  CD1       88.3990  112.0080   50.0420 C.3   126  ILE126      0.0001
    108  N         89.8650  116.8380   51.8610 N.am  127  THR127     -0.1953
    109  CA        89.9540  118.0980   52.5870 C.3   127  THR127      0.1897
    110  C         90.4890  119.2120   51.6940 C.2   127  THR127      0.2313
    111  O         89.9880  120.3430   51.7320 O.2   127  THR127     -0.2863
    112  CB        90.8170  117.9290   53.8290 C.3   127  THR127      0.1794
    113  OG1       92.0970  117.4110   53.4500 O.3   127  THR127     -0.2208
    114  CG2       90.1600  116.9690   54.7860 C.3   127  THR127      0.0378
    115  N         87.6370  120.2200   49.1230 N.3   130  ILE130     -0.1245
    116  CA        86.5930  120.9790   49.7920 C.3   130  ILE130      0.1561
    117  C         87.1080  122.3390   50.2360 C.2   130  ILE130      0.2260
    118  O         86.3140  123.2690   50.4020 O.2   130  ILE130     -0.2867
    119  CB        86.0210  120.1750   50.9750 C.3   130  ILE130      0.0252
    120  CG1       84.7540  120.8220   51.5150 C.3   130  ILE130      0.0019
    121  CG2       86.9990  120.0990   52.1010 C.3   130  ILE130      0.0019
    122  CD1       84.0300  119.9450   52.5150 C.3   130  ILE130      0.0001
    123  N         86.8610  124.8740   57.4200 N.3   142  ILE142     -0.1245
    124  CA        86.7360  123.4200   57.5150 C.3   142  ILE142      0.1561
    125  C         87.8760  122.7430   56.7760 C.2   142  ILE142      0.2260
    126  O         88.6320  121.9500   57.3480 O.2   142  ILE142     -0.2867
    127  CB        85.3820  122.9470   56.9710 C.3   142  ILE142      0.0252
    128  CG1       84.2450  123.4700   57.8330 C.3   142  ILE142      0.0019
    129  CG2       85.3470  121.4460   56.9430 C.3   142  ILE142      0.0019
    130  CD1       82.8880  123.2150   57.2270 C.3   142  ILE142      0.0001
    131  N         91.1110  120.7450   58.3370 N.3   146  GLY146     -0.1225
    132  CA        91.1270  119.3860   57.8440 C.3   146  GLY146      0.1811
    133  C         92.4770  119.0210   57.2660 C.2   146  GLY146      0.2280
    134  O         93.1250  118.0740   57.7270 O.2   146  GLY146     -0.2866
    135  N         95.1490  118.7640   60.1360 N.3   149  ILE149     -0.1231
    136  CA        95.2780  117.5480   60.9270 C.3   149  ILE149      0.1692
    137  C         95.6920  116.3840   60.0440 C.2   149  ILE149      0.2591
    138  O         96.3850  115.4640   60.4980 O.2   149  ILE149     -0.2718
    139  CB        93.9800  117.2480   61.6910 C.3   149  ILE149      0.0266
    140  CG1       94.2380  116.1700   62.7300 C.3   149  ILE149      0.0019
    141  CG2       92.9010  116.7890   60.7560 C.3   149  ILE149      0.0020
    142  CD1       95.1760  116.6130   63.8000 C.3   149  ILE149      0.0001
    143  N         95.3020  116.4040   58.7700 N.am  150  MET150     -0.1979
    144  CA        95.7750  115.3700   57.8610 C.3   150  MET150      0.1605
    145  C         97.2820  115.4380   57.6970 C.2   150  MET150      0.2287
    146  O         97.9480  114.4040   57.5790 O.2   150  MET150     -0.2864
    147  CB        95.0790  115.4960   56.5140 C.3   150  MET150      0.0413
    148  CG        93.6230  115.1200   56.5340 C.3   150  MET150      0.0598
    149  SD        93.4250  113.3810   56.9320 S.3   150  MET150     -0.1393
    150  CE        92.9680  113.4930   58.6530 C.3   150  MET150      0.0692
    151  N         98.5950  113.5590   60.7540 N.3   153  LEU153     -0.1245
    152  CA        98.5700  112.1020   60.6790 C.3   153  LEU153      0.1561
    153  C         99.5590  111.5780   59.6490 C.2   153  LEU153      0.2260
    154  O        100.2750  110.6050   59.9070 O.2   153  LEU153     -0.2867
    155  CB        97.1660  111.6030   60.3570 C.3   153  LEU153      0.0270
    156  CG        96.1150  111.8100   61.4390 C.3   153  LEU153      0.0019
    157  CD1       94.7620  111.3580   60.9550 C.3   153  LEU153      0.0001
    158  CD2       96.5020  111.0490   62.6810 C.3   153  LEU153      0.0001
@<TRIPOS>BOND
     1     1     2    1
     2     2     3    1
     3     2     5    1
     4     3     4    2
     5     5     6    1
     6   115   116    1
     7    56    55    2
     8    53    54    1
     9    55    54    1
    10    54    57    1
    11   116   117    1
    12   116   119    1
    13   105   107    1
    14   105   104    1
    15     6     8    1
    16     6     7    1
    17   100   101    1
    18   101   104    1
    19   101   102    1
    20   117   118    2
    21   103   102    2
    22    15     9    1
    23    15    14    1
    24     9    10    1
    25   104   106    1
    26   102   108   am
    27   119   120    1
    28   119   121    1
    29    57    58    1
    30    20    21    1
    31    20    22    1
    32    20    17    1
    33    21    23    1
    34   120   122    1
    35    18    17    1
    36    18    19    2
    37   110   111    2
    38   110   109    1
    39    24    25    1
    40    16    17    1
    41    16    11   am
    42    14    13    1
    43   108   109    1
    44    92    93    1
    45    10    11    1
    46    10    13    1
    47    58    59    1
    48    11    12    2
    49    71    72    1
    50   109   112    1
    51    95    94    2
    52    25    28    1
    53    25    26    1
    54    93    94    1
    55    93    96    1
    56    72    73    1
    57    72    75    1
    58    74    73    2
    59    83    82    2
    60   113   112    1
    61    59    60    1
    62    44    42   am
    63    82    81    1
    64    73    80   am
    65   112   114    1
    66    41    42    1
    67    41    38    1
    68    45    46    1
    69    26    29   am
    70    26    27    2
    71    96    97    1
    72    47    46    1
    73    47    48    2
    74    29    30    1
    75    75    76    1
    76    80    81    1
    77    42    43    2
    78    39    38    1
    79    39    40    2
    80    37    38    1
    81    37    31   am
    82    98    97    1
    83    62    63    1
    84    46    49    1
    85    60    61    1
    86    81    84    1
    87    76    77    1
    88    64    65    2
    89    64    63    1
    90    97    99    1
    91    34    36    1
    92    34    33    1
    93    31    30    1
    94    31    32    2
    95    30    33    1
    96    63    66    1
    97    84    85    1
    98    77    78    1
    99    49    50    1
   100    33    35    1
   101   147   148    1
   102   147   144    1
   103   148   149    1
   104    51    50    2
   105   125   126    2
   106   125   124    1
   107   149   150    1
   108   129   127    1
   109    66    67    1
   110    85    87   ar
   111    85    86   ar
   112   127   124    1
   113   127   128    1
   114    50    52   am
   115   130   128    1
   116   133   134    2
   117   133   132    1
   118    87    89   ar
   119    78    79    1
   120   123   124    1
   121   146   145    2
   122   145   144    1
   123   132   131    1
   124   144   143    1
   125    86    88   ar
   126    67    68    1
   127    89    90   ar
   128   143   137   am
   129    88    90   ar
   130    68    69    2
   131    68    70   am
   132    90    91    1
   133   153   154    2
   134   153   152    1
   135   137   138    2
   136   137   136    1
   137   135   136    1
   138   155   152    1
   139   155   156    1
   140   152   151    1
   141   141   139    1
   142   136   139    1
   143   157   156    1
   144   156   158    1
   145   139   140    1
   146   140   142    1
