@<TRIPOS>MOLECULE
tmp/5lnkI00.pdb
 194 178 0 0 0
SMALL
GASTEIGER

@<TRIPOS>ATOM
      1  N         60.1000   98.2390  139.0720 N.3     3  PRO3       -0.2116
      2  CA        59.4530   98.5030  137.7830 C.3     3  PRO3        0.1372
      3  C         58.1030   99.1700  137.8960 C.2     3  PRO3        0.2244
      4  O         57.5890   99.6500  136.8820 O.2     3  PRO3       -0.2868
      5  CB        59.3290   97.1110  137.1730 C.3     3  PRO3        0.0268
      6  CG        60.4260   96.3480  137.8130 C.3     3  PRO3        0.0207
      7  CD        60.4460   96.8240  139.2230 C.3     3  PRO3        0.0892
      8  N         59.2280  103.3180  138.8030 N.3     6  LEU6       -0.1231
      9  CA        59.5740  104.0950  137.6180 C.3     6  LEU6        0.1693
     10  C         58.3330  104.5960  136.8960 C.2     6  LEU6        0.2591
     11  O         58.3320  105.7140  136.3710 O.2     6  LEU6       -0.2718
     12  CB        60.4540  103.2850  136.6720 C.3     6  LEU6        0.0284
     13  CG        61.9490  103.5080  136.9070 C.3     6  LEU6        0.0019
     14  CD1       62.3960  102.9880  138.2650 C.3     6  LEU6        0.0001
     15  CD2       62.7710  102.8960  135.7850 C.3     6  LEU6        0.0001
     16  N         57.2630  103.8070  136.8770 N.am    7  ILE7       -0.1980
     17  CA        56.0210  104.2900  136.2890 C.3     7  ILE7        0.1595
     18  C         55.3950  105.3610  137.1710 C.2     7  ILE7        0.2287
     19  O         54.8540  106.3550  136.6730 O.2     7  ILE7       -0.2864
     20  CB        55.0650  103.1130  136.0370 C.3     7  ILE7        0.0276
     21  CG1       55.6350  102.2150  134.9400 C.3     7  ILE7        0.0022
     22  CG2       53.6900  103.6100  135.6610 C.3     7  ILE7        0.0022
     23  CD1       54.9080  100.9190  134.7750 C.3     7  ILE7        0.0001
     24  N         57.9010  108.5980  136.3950 N.3    10  LEU10      -0.1245
     25  CA        57.6870  109.1270  135.0530 C.3    10  LEU10       0.1561
     26  C         56.2820  109.6900  134.9010 C.2    10  LEU10       0.2260
     27  O         56.0870  110.7350  134.2710 O.2    10  LEU10      -0.2867
     28  CB        57.9430  108.0430  134.0110 C.3    10  LEU10       0.0270
     29  CG        59.3880  107.5660  133.8950 C.3    10  LEU10       0.0019
     30  CD1       59.4830  106.3950  132.9370 C.3    10  LEU10       0.0001
     31  CD2       60.2670  108.7040  133.4330 C.3    10  LEU10       0.0001
     32  N         55.7030  113.5730  133.5980 N.3    14  MET14      -0.1245
     33  CA        54.6640  113.9270  132.6420 C.3    14  MET14       0.1570
     34  C         53.6510  114.8570  133.2890 C.2    14  MET14       0.2261
     35  O         53.2960  115.8980  132.7270 O.2    14  MET14      -0.2867
     36  CB        53.9720  112.6650  132.1240 C.3    14  MET14       0.0387
     37  CG        54.8700  111.6540  131.4230 C.3    14  MET14       0.0595
     38  SD        55.5890  112.2150  129.8720 S.3    14  MET14      -0.1393
     39  CE        56.5300  110.7720  129.3860 C.3    14  MET14       0.0692
     40  N         65.2740  109.5270  138.0320 N.3    43  ILE43      -0.1245
     41  CA        65.4190  108.9100  136.7150 C.3    43  ILE43       0.1561
     42  C         66.8870  108.8320  136.3330 C.2    43  ILE43       0.2260
     43  O         67.4200  107.7540  136.0510 O.2    43  ILE43      -0.2867
     44  CB        64.6080  109.6790  135.6650 C.3    43  ILE43       0.0252
     45  CG1       63.1470  109.7280  136.0840 C.3    43  ILE43       0.0019
     46  CG2       64.7380  108.9990  134.3300 C.3    43  ILE43       0.0019
     47  CD1       62.5380  108.3690  136.2480 C.3    43  ILE43       0.0001
     48  N         69.8000  106.0400  137.7750 N.3    46  LYS46      -0.1245
     49  CA        69.1490  104.7330  137.8080 C.3    46  LYS46       0.1561
     50  C         70.1360  103.6250  138.1470 C.2    46  LYS46       0.2260
     51  O         69.8680  102.7820  139.0080 O.2    46  LYS46      -0.2867
     52  CB        68.4720  104.4520  136.4680 C.3    46  LYS46       0.0271
     53  CG        67.7740  103.1120  136.4140 C.3    46  LYS46       0.0035
     54  CD        67.1310  102.8770  135.0650 C.3    46  LYS46       0.0206
     55  CE        66.6390  101.4500  134.9530 C.3    46  LYS46       0.1093
     56  NZ        65.6160  101.1560  135.9900 N.3    46  LYS46      -0.1314
     57  N         68.9120  106.4560  128.6960 N.3   125  SER125     -0.1217
     58  CA        67.5010  106.8180  128.7770 C.3   125  SER125      0.1889
     59  C         67.3160  108.1400  129.5020 C.2   125  SER125      0.2288
     60  O         66.5430  108.9980  129.0590 O.2   125  SER125     -0.2866
     61  CB        66.7140  105.7100  129.4710 C.3   125  SER125      0.2089
     62  OG        67.1190  105.5710  130.8170 O.3   125  SER125     -0.2183
     63  N         67.9630  110.7700  127.0400 N.3   128  LEU128     -0.1231
     64  CA        66.8060  111.0950  126.2200 C.3   128  LEU128      0.1693
     65  C         65.8400  111.9830  126.9760 C.2   128  LEU128      0.2591
     66  O         65.4010  113.0200  126.4700 O.2   128  LEU128     -0.2718
     67  CB        66.1080  109.8180  125.7780 C.3   128  LEU128      0.0284
     68  CG        64.8130  110.0940  125.0340 C.3   128  LEU128      0.0019
     69  CD1       65.1080  110.8330  123.7440 C.3   128  LEU128      0.0001
     70  CD2       64.0690  108.8020  124.7840 C.3   128  LEU128      0.0001
     71  N         65.5040  111.5910  128.2030 N.am  129  ILE129     -0.1980
     72  CA        64.4840  112.3070  128.9410 C.3   129  ILE129      0.1595
     73  C         64.9830  113.6800  129.3740 C.2   129  ILE129      0.2287
     74  O         64.1740  114.5520  129.7020 O.2   129  ILE129     -0.2864
     75  CB        64.0300  111.4460  130.1320 C.3   129  ILE129      0.0276
     76  CG1       62.6730  111.9060  130.6340 C.3   129  ILE129      0.0022
     77  CG2       65.0330  111.5160  131.2450 C.3   129  ILE129      0.0022
     78  CD1       61.5880  111.6590  129.6430 C.3   129  ILE129      0.0001
     79  N         65.0330  116.2780  125.8150 N.3   132  THR132     -0.1203
     80  CA        63.8220  116.4800  125.0390 C.3   132  THR132      0.1994
     81  C         62.6580  116.8720  125.9280 C.2   132  THR132      0.2617
     82  O         62.1280  117.9780  125.8080 O.2   132  THR132     -0.2717
     83  CB        63.4730  115.2250  124.2540 C.3   132  THR132      0.1784
     84  OG1       63.3030  114.1320  125.1610 O.3   132  THR132     -0.2211
     85  CG2       64.5740  114.8990  123.2840 C.3   132  THR132      0.0376
     86  N         62.2460  115.9750  126.8190 N.am  133  TRP133     -0.1975
     87  CA        61.0080  116.1990  127.5540 C.3   133  TRP133      0.1640
     88  C         61.0740  117.4750  128.3790 C.2   133  TRP133      0.2290
     89  O         60.2680  118.3910  128.1890 O.2   133  TRP133     -0.2864
     90  CB        60.6980  115.0020  128.4390 C.3   133  TRP133      0.0576
     91  CG        59.4820  115.2240  129.2240 C.ar  133  TRP133      0.0006
     92  CD1       59.4070  115.4680  130.5520 C.ar  133  TRP133      0.0946
     93  CD2       58.1500  115.2720  128.7260 C.ar  133  TRP133      0.0152
     94  NE1       58.1030  115.6420  130.9240 N.ar  133  TRP133     -0.2442
     95  CE2       57.3100  115.5270  129.8150 C.ar  133  TRP133      0.0810
     96  CE3       57.5840  115.1120  127.4640 C.ar  133  TRP133      0.0012
     97  CZ2       55.9350  115.6300  129.6830 C.ar  133  TRP133      0.0191
     98  CZ3       56.2200  115.2130  127.3340 C.ar  133  TRP133      0.0001
     99  CH2       55.4090  115.4690  128.4350 C.ar  133  TRP133      0.0015
    100  N         60.3330  120.8810  126.9870 N.3   136  LEU136     -0.1245
    101  CA        59.0120  121.3380  126.5760 C.3   136  LEU136      0.1561
    102  C         58.4790  122.4260  127.4910 C.2   136  LEU136      0.2260
    103  O         57.8130  123.3540  127.0250 O.2   136  LEU136     -0.2867
    104  CB        58.0320  120.1750  126.5350 C.3   136  LEU136      0.0270
    105  CG        58.2840  119.1750  125.4250 C.3   136  LEU136      0.0019
    106  CD1       57.3230  118.0180  125.5310 C.3   136  LEU136      0.0001
    107  CD2       58.1070  119.8790  124.1160 C.3   136  LEU136      0.0001
    108  N         59.6130  120.5280  117.7480 N.3   206  ILE206     -0.1245
    109  CA        59.1040  119.1920  117.4510 C.3   206  ILE206      0.1561
    110  C         60.1030  118.4040  116.6180 C.2   206  ILE206      0.2260
    111  O         60.4920  117.2820  116.9750 O.2   206  ILE206     -0.2867
    112  CB        57.7370  119.2840  116.7570 C.3   206  ILE206      0.0252
    113  CG1       56.6710  119.6770  117.7690 C.3   206  ILE206      0.0019
    114  CG2       57.3920  117.9830  116.0900 C.3   206  ILE206      0.0019
    115  CD1       55.3330  119.9060  117.1550 C.3   206  ILE206      0.0001
    116  N         62.8770  117.2670  118.6930 N.3   209  ILE209     -0.1231
    117  CA        62.5480  116.1360  119.5510 C.3   209  ILE209      0.1692
    118  C         62.6290  114.8370  118.7690 C.2   209  ILE209      0.2591
    119  O         63.1560  113.8330  119.2610 O.2   209  ILE209     -0.2718
    120  CB        61.1600  116.3270  120.1830 C.3   209  ILE209      0.0266
    121  CG1       61.1850  117.4890  121.1670 C.3   209  ILE209      0.0019
    122  CG2       60.7340  115.0770  120.8950 C.3   209  ILE209      0.0020
    123  CD1       59.8290  117.8620  121.6800 C.3   209  ILE209      0.0001
    124  N         62.1160  114.8310  117.5360 N.am  210  ILE210     -0.1980
    125  CA        62.2350  113.6230  116.7250 C.3   210  ILE210      0.1595
    126  C         63.7010  113.2900  116.4830 C.2   210  ILE210      0.2287
    127  O         64.1170  112.1270  116.5740 O.2   210  ILE210     -0.2864
    128  CB        61.4670  113.7780  115.4030 C.3   210  ILE210      0.0276
    129  CG1       59.9750  113.9070  115.6620 C.3   210  ILE210      0.0022
    130  CG2       61.6990  112.5780  114.5380 C.3   210  ILE210      0.0022
    131  CD1       59.1860  114.1770  114.4280 C.3   210  ILE210      0.0001
    132  N         65.4070  111.9850  119.4490 N.3   213  SER213     -0.1217
    133  CA        64.7330  110.7280  119.7410 C.3   213  SER213      0.1889
    134  C         65.3570  109.5770  118.9650 C.2   213  SER213      0.2288
    135  O         65.8340  108.6020  119.5570 O.2   213  SER213     -0.2866
    136  CB        63.2470  110.8500  119.4280 C.3   213  SER213      0.2089
    137  OG        62.6250  111.7760  120.2940 O.3   213  SER213     -0.2183
    138  N         67.7680  106.6420  120.5780 N.3   217  THR217     -0.1218
    139  CA        67.2470  105.2900  120.3980 C.3   217  THR217      0.1862
    140  C         68.2380  104.4140  119.6420 C.2   217  THR217      0.2287
    141  O         68.4570  103.2520  120.0050 O.2   217  THR217     -0.2866
    142  CB        65.9040  105.3210  119.6770 C.3   217  THR217      0.1770
    143  OG1       64.9250  105.9360  120.5200 O.3   217  THR217     -0.2211
    144  CG2       65.4540  103.9230  119.3580 C.3   217  THR217      0.0375
    145  N         70.8030  103.2480  121.7770 N.3   220  MET220     -0.1245
    146  CA        70.4020  102.0930  122.5600 C.3   220  MET220      0.1570
    147  C         70.4940  100.8190  121.7350 C.2   220  MET220      0.2261
    148  O         70.8760   99.7670  122.2560 O.2   220  MET220     -0.2867
    149  CB        68.9930  102.2940  123.0980 C.3   220  MET220      0.0387
    150  CG        68.8930  103.4510  124.0490 C.3   220  MET220      0.0595
    151  SD        67.2220  103.7330  124.6230 S.3   220  MET220     -0.1393
    152  CE        67.4830  105.2180  125.5780 C.3   220  MET220      0.0692
    153  N         64.7090   95.6680  123.1010 N.3   322  ARG322     -0.1245
    154  CA        63.4630   96.2140  122.5810 C.3   322  ARG322      0.1563
    155  C         63.6520   97.6900  122.2660 C.2   322  ARG322      0.2260
    156  O         63.9990   98.4810  123.1490 O.2   322  ARG322     -0.2867
    157  CB        62.3330   96.0170  123.5870 C.3   322  ARG322      0.0307
    158  CG        60.9480   96.3530  123.0650 C.3   322  ARG322      0.0489
    159  CD        59.9130   96.1200  124.1600 C.3   322  ARG322      0.2205
    160  NE        58.5410   96.4190  123.7530 N.pl3 322  ARG322     -0.0865
    161  CZ        57.7140   95.5390  123.1950 C.cat 322  ARG322      0.5346
    162  NH1       58.1110   94.2920  122.9790 N.pl3 322  ARG322      0.1354
    163  NH2       56.4820   95.9010  122.8610 N.pl3 322  ARG322      0.1354
    164  N         61.7520  101.0130  120.9660 N.3   324  THR324     -0.1203
    165  CA        60.3230  101.1940  121.1570 C.3   324  THR324      0.1994
    166  C         59.6390  101.6140  119.8700 C.2   324  THR324      0.2617
    167  O         58.9830  100.7900  119.2260 O.2   324  THR324     -0.2717
    168  CB        60.0610  102.2190  122.2500 C.3   324  THR324      0.1784
    169  OG1       60.6840  101.7760  123.4610 O.3   324  THR324     -0.2211
    170  CG2       58.5670  102.3650  122.4850 C.3   324  THR324      0.0376
    171  N         59.7760  102.8670  119.4650 N.am  325  LEU325     -0.1979
    172  CA        59.4130  103.2280  118.1060 C.3   325  LEU325      0.1596
    173  C         60.6660  103.8080  117.4680 C.2   325  LEU325      0.2287
    174  O         60.9150  105.0120  117.5530 O.2   325  LEU325     -0.2864
    175  CB        58.2740  104.2100  118.1490 C.3   325  LEU325      0.0297
    176  CG        57.6720  104.7240  116.8580 C.3   325  LEU325      0.0022
    177  CD1       57.0660  103.5670  116.1140 C.3   325  LEU325      0.0001
    178  CD2       56.6210  105.7580  117.1970 C.3   325  LEU325      0.0001
    179  N         60.0470  107.0870  113.5460 N.3   329  MET329     -0.1245
    180  CA        60.7670  108.3280  113.7690 C.3   329  MET329      0.1570
    181  C         61.9950  108.4400  112.8750 C.2   329  MET329      0.2261
    182  O         62.4040  109.5540  112.5320 O.2   329  MET329     -0.2867
    183  CB        61.1260  108.4410  115.2460 C.3   329  MET329      0.0387
    184  CG        59.8970  108.4620  116.1190 C.3   329  MET329      0.0595
    185  SD        58.8620  109.8740  115.6940 S.3   329  MET329     -0.1393
    186  CE        57.4230  109.5820  116.7150 C.3   329  MET329      0.0692
    187  N         50.7710  122.6780  112.9320 N.3   346  LEU346     -0.1245
    188  CA        51.3810  122.6970  114.2480 C.3   346  LEU346      0.1561
    189  C         50.7080  123.7260  115.1440 C.2   346  LEU346      0.2260
    190  O         50.1920  123.3960  116.2160 O.2   346  LEU346     -0.2867
    191  CB        52.8670  122.9860  114.0800 C.3   346  LEU346      0.0270
    192  CG        53.7950  122.9060  115.2700 C.3   346  LEU346      0.0019
    193  CD1       55.1180  122.4150  114.7580 C.3   346  LEU346      0.0001
    194  CD2       53.9250  124.2830  115.8440 C.3   346  LEU346      0.0001
@<TRIPOS>BOND
     1   182   181    2
     2   181   180    1
     3   187   188    1
     4   179   180    1
     5   180   183    1
     6   191   188    1
     7   191   192    1
     8   188   189    1
     9   131   129    1
    10   130   128    1
    11   193   192    1
    12   189   190    2
    13   183   184    1
    14   192   194    1
    15   128   129    1
    16   128   125    1
    17   185   184    1
    18   185   186    1
    19   114   112    1
    20   177   176    1
    21   126   127    2
    22   126   125    1
    23   110   111    2
    24   110   109    1
    25   125   124    1
    26   112   109    1
    27   112   113    1
    28   176   178    1
    29   176   175    1
    30   115   113    1
    31   109   108    1
    32   173   174    2
    33   173   172    1
    34   124   118   am
    35   172   175    1
    36   172   171    1
    37   116   117    1
    38   118   119    2
    39   118   117    1
    40   134   135    2
    41   134   133    1
    42   167   166    2
    43   144   142    1
    44   136   133    1
    45   136   137    1
    46   132   133    1
    47   171   166   am
    48   117   120    1
    49   140   141    2
    50   140   139    1
    51   142   139    1
    52   142   143    1
    53   166   165    1
    54   120   122    1
    55   120   121    1
    56   139   138    1
    57   164   165    1
    58   165   168    1
    59   121   123    1
    60   147   148    2
    61   147   146    1
    62   145   146    1
    63   168   170    1
    64   168   169    1
    65   155   154    1
    66   155   156    2
    67   146   149    1
    68   154   153    1
    69   154   157    1
    70   163   161    1
    71   162   161    1
    72   158   157    1
    73   158   159    1
    74   149   150    1
    75   161   160    2
    76    85    83    1
    77    69    68    1
    78   160   159    1
    79   150   151    1
    80   107   105    1
    81    83    80    1
    82    83    84    1
    83   151   152    1
    84    70    68    1
    85    68    67    1
    86    80    79    1
    87    80    81    1
    88   105   106    1
    89   105   104    1
    90    67    64    1
    91    82    81    2
    92    81    86   am
    93    64    65    1
    94    64    63    1
    95    66    65    2
    96   104   101    1
    97   101   100    1
    98   101   102    1
    99    86    87    1
   100    65    71   am
   101   103   102    2
   102    98    96   ar
   103    98    99   ar
   104    96    93   ar
   105    87    88    1
   106    87    90    1
   107    89    88    2
   108    71    72    1
   109    99    97   ar
   110    90    91    1
   111    57    58    1
   112    93    91   ar
   113    93    95   ar
   114    58    61    1
   115    58    59    1
   116    72    73    1
   117    72    75    1
   118    60    59    2
   119    91    92   ar
   120    73    74    2
   121    39    38    1
   122    61    62    1
   123    78    76    1
   124    97    95   ar
   125    95    94   ar
   126    38    37    1
   127    75    76    1
   128    75    77    1
   129    92    94   ar
   130    37    36    1
   131    36    33    1
   132    33    34    1
   133    33    32    1
   134    35    34    2
   135    30    29    1
   136    31    29    1
   137    29    28    1
   138    28    25    1
   139    27    26    2
   140    46    44    1
   141    23    21    1
   142    26    25    1
   143    21    20    1
   144    55    54    1
   145    55    56    1
   146    25    24    1
   147    54    53    1
   148    22    20    1
   149    44    45    1
   150    44    41    1
   151    15    13    1
   152    20    17    1
   153    43    42    2
   154    45    47    1
   155    17    16    1
   156    17    18    1
   157    42    41    1
   158    11    10    2
   159    53    52    1
   160    52    49    1
   161    12    13    1
   162    12     9    1
   163    19    18    2
   164    41    40    1
   165    16    10   am
   166     4     3    2
   167    10     9    1
   168    13    14    1
   169     5     2    1
   170     5     6    1
   171     9     8    1
   172    48    49    1
   173     2     3    1
   174     2     1    1
   175    49    50    1
   176     6     7    1
   177    50    51    2
   178     1     7    1
