@<TRIPOS>MOLECULE
tmp/5lnkK03.pdb
 90 85 0 0 0
SMALL
GASTEIGER

@<TRIPOS>ATOM
      1  N         56.0610  115.1780   84.3030 N.3     2  LEU2       -0.1245
      2  CA        55.8240  114.1240   85.2810 C.3     2  LEU2        0.1561
      3  C         55.9200  112.7420   84.6420 C.2     2  LEU2        0.2260
      4  O         56.3340  111.7730   85.3000 O.2     2  LEU2       -0.2867
      5  CB        54.4630  114.3540   85.9370 C.3     2  LEU2        0.0270
      6  CG        54.0370  113.4320   87.0670 C.3     2  LEU2        0.0019
      7  CD1       55.0570  113.5020   88.1800 C.3     2  LEU2        0.0001
      8  CD2       52.6740  113.8400   87.5790 C.3     2  LEU2        0.0001
      9  N         57.9810  109.7590   86.8170 N.3     6  ILE6       -0.1245
     10  CA        57.5860  108.4080   87.2230 C.3     6  ILE6        0.1561
     11  C         58.5380  107.3350   86.7080 C.2     6  ILE6        0.2260
     12  O         59.0840  106.5860   87.5300 O.2     6  ILE6       -0.2867
     13  CB        56.1260  108.1310   86.8260 C.3     6  ILE6        0.0252
     14  CG1       55.1710  108.7930   87.8090 C.3     6  ILE6        0.0019
     15  CG2       55.8710  106.6470   86.7910 C.3     6  ILE6        0.0019
     16  CD1       54.6030  110.0620   87.3370 C.3     6  ILE6        0.0001
     17  N         61.5220  106.6570   88.7580 N.3     9  MET9       -0.1230
     18  CA        61.1320  106.2730   90.1060 C.3     9  MET9        0.1702
     19  C         60.6420  104.8310   90.1250 C.2     9  MET9        0.2592
     20  O         60.9180  104.0850   91.0690 O.2     9  MET9       -0.2718
     21  CB        60.0710  107.2440   90.6190 C.3     9  MET9        0.0401
     22  CG        59.7310  107.1270   92.0910 C.3     9  MET9        0.0596
     23  SD        58.7790  108.5720   92.6120 S.3     9  MET9       -0.1393
     24  CE        58.4440  108.2120   94.3350 C.3     9  MET9        0.0692
     25  N         59.9420  104.4120   89.0700 N.am   10  MET10      -0.1979
     26  CA        59.6330  103.0030   88.8770 C.3    10  MET10       0.1605
     27  C         60.8800  102.2050   88.5420 C.2    10  MET10       0.2287
     28  O         60.9260  100.9940   88.7790 O.2    10  MET10      -0.2864
     29  CB        58.6120  102.8330   87.7550 C.3    10  MET10       0.0413
     30  CG        57.2490  103.4360   88.0110 C.3    10  MET10       0.0598
     31  SD        56.3630  102.6280   89.3490 S.3    10  MET10      -0.1393
     32  CE        54.7960  103.4880   89.2800 C.3    10  MET10       0.0692
     33  N         63.5840  102.4290   90.0350 N.3    12  MET12      -0.1231
     34  CA        64.1830  102.0170   91.3050 C.3    12  MET12       0.1687
     35  C         63.7820  100.6040   91.7300 C.2    12  MET12       0.2434
     36  O         64.6740   99.7540   91.9150 O.2    12  MET12      -0.2733
     37  CB        63.8470  103.0650   92.3680 C.3    12  MET12       0.0400
     38  CG        64.3570  102.7450   93.7450 C.3    12  MET12       0.0596
     39  SD        66.1450  102.7800   93.8180 S.3    12  MET12      -0.1393
     40  CE        66.4380  104.5410   93.7460 C.3    12  MET12       0.0692
     41  N         62.4950  100.2750   91.9060 N.am   13  PRO13      -0.2729
     42  CA        62.1630   98.9150   92.3430 C.3    13  PRO13       0.1401
     43  C         62.4650   97.8650   91.3040 C.2    13  PRO13       0.2269
     44  O         62.6700   96.7010   91.6700 O.2    13  PRO13      -0.2865
     45  CB        60.6630   98.9950   92.6330 C.3    13  PRO13       0.0296
     46  CG        60.1880  100.0700   91.7580 C.3    13  PRO13       0.0237
     47  CD        61.2770  101.0890   91.7630 C.3    13  PRO13       0.0939
     48  N         65.6910   96.9980   92.6170 N.3    16  TRP16      -0.1227
     49  CA        65.6860   96.3350   93.9200 C.3    16  TRP16       0.1737
     50  C         65.1350   94.9190   93.8410 C.2    16  TRP16       0.2595
     51  O         65.7400   93.9820   94.3690 O.2    16  TRP16      -0.2718
     52  CB        64.8970   97.1450   94.9350 C.3    16  TRP16       0.0564
     53  CG        65.5870   98.3720   95.3440 C.ar   16  TRP16       0.0003
     54  CD1       65.2770   99.6460   94.9850 C.ar   16  TRP16       0.0946
     55  CD2       66.7640   98.4520   96.1440 C.ar   16  TRP16       0.0152
     56  NE1       66.1640  100.5250   95.5560 N.ar   16  TRP16      -0.2442
     57  CE2       67.0920   99.8130   96.2690 C.ar   16  TRP16       0.0810
     58  CE3       67.5640   97.5040   96.7830 C.ar   16  TRP16       0.0012
     59  CZ2       68.1850  100.2500   97.0070 C.ar   16  TRP16       0.0191
     60  CZ3       68.6480   97.9400   97.5100 C.ar   16  TRP16       0.0001
     61  CH2       68.9490   99.3000   97.6180 C.ar   16  TRP16       0.0015
     62  N         63.9810   94.7380   93.2100 N.am   17  LEU17      -0.1980
     63  CA        63.4180   93.4070   93.0400 C.3    17  LEU17       0.1596
     64  C         63.7900   92.9180   91.6480 C.2    17  LEU17       0.2287
     65  O         63.4190   93.5350   90.6460 O.2    17  LEU17      -0.2864
     66  CB        61.9040   93.3980   93.2670 C.3    17  LEU17       0.0297
     67  CG        60.8940   94.0790   92.3470 C.3    17  LEU17       0.0022
     68  CD1       60.4740   93.1410   91.2360 C.3    17  LEU17       0.0001
     69  CD2       59.6880   94.5430   93.1310 C.3    17  LEU17       0.0001
     70  N         78.5970   91.3580   96.7630 N.3    88  ASN88      -0.1240
     71  CA        77.2540   90.9750   97.1540 C.3    88  ASN88       0.1653
     72  C         76.2470   91.7840   96.3440 C.2    88  ASN88       0.2266
     73  O         76.5130   92.9190   95.9430 O.2    88  ASN88      -0.2867
     74  CB        77.0510   91.2090   98.6510 C.3    88  ASN88       0.1155
     75  CG        75.7580   90.6120   99.1680 C.2    88  ASN88       0.2627
     76  OD1       74.8260   90.3570   98.4060 O.2    88  ASN88      -0.2716
     77  ND2       75.6990   90.3780  100.4730 N.am   88  ASN88      -0.0877
     78  N         73.7750   93.3890   97.1960 N.3    90  ALA90      -0.1245
     79  CA        73.3860   94.6500   97.8180 C.3    90  ALA90       0.1562
     80  C         74.2570   95.8050   97.3560 C.2    90  ALA90       0.2260
     81  O         73.7720   96.9350   97.2320 O.2    90  ALA90      -0.2867
     82  CB        73.4450   94.5240   99.3380 C.3    90  ALA90       0.0290
     83  N         72.5440   98.7810   95.3720 N.3    94  LEU94      -0.1245
     84  CA        72.7460  100.0680   96.0210 C.3    94  LEU94       0.1561
     85  C         73.3290  101.0760   95.0410 C.2    94  LEU94       0.2260
     86  O         72.8640  102.2160   94.9500 O.2    94  LEU94      -0.2867
     87  CB        73.6580   99.9140   97.2340 C.3    94  LEU94       0.0270
     88  CG        73.8950  101.2330   97.9620 C.3    94  LEU94       0.0019
     89  CD1       72.5820  101.7440   98.5200 C.3    94  LEU94       0.0001
     90  CD2       74.9290  101.0840   99.0620 C.3    94  LEU94       0.0001
@<TRIPOS>BOND
     1     1     2    1
     2     3     2    1
     3     3     4    2
     4     2     5    1
     5     5     6    1
     6    11    10    1
     7    11    12    2
     8    15    13    1
     9     9    10    1
    10    13    10    1
    11    13    14    1
    12     6     8    1
    13     6     7    1
    14    16    14    1
    15    29    30    1
    16    29    26    1
    17    30    31    1
    18    27    28    2
    19    27    26    1
    20    17    18    1
    21    26    25    1
    22    25    19   am
    23    32    31    1
    24    33    34    1
    25    18    19    1
    26    18    21    1
    27    19    20    2
    28    21    22    1
    29    65    64    2
    30    68    67    1
    31    43    44    2
    32    43    42    1
    33    34    35    1
    34    34    37    1
    35    64    63    1
    36    35    41   am
    37    35    36    2
    38    46    47    1
    39    46    45    1
    40    47    41    1
    41    41    42    1
    42    22    23    1
    43    42    45    1
    44    67    69    1
    45    67    66    1
    46    37    38    1
    47    23    24    1
    48    48    49    1
    49    63    62    1
    50    63    66    1
    51    62    50   am
    52    38    39    1
    53    40    39    1
    54    50    49    1
    55    50    51    2
    56    49    52    1
    57    52    53    1
    58    86    85    2
    59    54    53   ar
    60    54    56   ar
    61    85    84    1
    62    53    55   ar
    63    83    84    1
    64    56    57   ar
    65    73    72    2
    66    84    87    1
    67    55    57   ar
    68    55    58   ar
    69    57    59   ar
    70    72    71    1
    71    70    71    1
    72    58    60   ar
    73    59    61   ar
    74    71    74    1
    75    78    79    1
    76    81    80    2
    77    87    88    1
    78    80    79    1
    79    60    61   ar
    80    79    82    1
    81    88    89    1
    82    88    90    1
    83    76    75    2
    84    74    75    1
    85    75    77   am
