@<TRIPOS>MOLECULE
tmp/5lnkH00.pdb
 242 235 0 0 0
SMALL
GASTEIGER

@<TRIPOS>ATOM
      1  N         40.0780  116.1310  179.3420 N.3   175  ILE175     -0.1245
      2  CA        40.5170  114.7440  179.4480 C.3   175  ILE175      0.1561
      3  C         39.4000  113.7940  179.0320 C.2   175  ILE175      0.2260
      4  O         39.6560  112.7410  178.4400 O.2   175  ILE175     -0.2867
      5  CB        41.0100  114.4550  180.8800 C.3   175  ILE175      0.0252
      6  CG1       41.6550  113.0770  180.9790 C.3   175  ILE175      0.0019
      7  CG2       39.8810  114.5590  181.8770 C.3   175  ILE175      0.0019
      8  CD1       42.9710  112.9780  180.3040 C.3   175  ILE175      0.0001
      9  N         40.4360  111.0940  176.2700 N.3   179  TRP179     -0.1228
     10  CA        41.4650  110.5750  177.1540 C.3   179  TRP179      0.1722
     11  C         42.6660  110.0290  176.3810 C.2   179  TRP179      0.2437
     12  O         43.7950  110.4170  176.6900 O.2   179  TRP179     -0.2733
     13  CB        40.8940  109.5360  178.1220 C.3   179  TRP179      0.0563
     14  CG        40.2610  108.3680  177.5090 C.ar  179  TRP179      0.0003
     15  CD1       38.9700  108.2530  177.1170 C.ar  179  TRP179      0.0946
     16  CD2       40.8810  107.1190  177.2290 C.ar  179  TRP179      0.0152
     17  NE1       38.7440  107.0080  176.5960 N.ar  179  TRP179     -0.2442
     18  CE2       39.9080  106.2920  176.6510 C.ar  179  TRP179      0.0810
     19  CE3       42.1690  106.6210  177.4030 C.ar  179  TRP179      0.0012
     20  CZ2       40.1790  104.9950  176.2520 C.ar  179  TRP179      0.0191
     21  CZ3       42.4380  105.3380  177.0040 C.ar  179  TRP179      0.0001
     22  CH2       41.4490  104.5360  176.4360 C.ar  179  TRP179      0.0015
     23  N         42.4930  109.1550  175.3770 N.am  180  PRO180     -0.2729
     24  CA        43.6700  108.4450  174.8560 C.3   180  PRO180      0.1401
     25  C         44.7150  109.3740  174.2800 C.2   180  PRO180      0.2269
     26  O         45.9170  109.1960  174.5200 O.2   180  PRO180     -0.2865
     27  CB        43.0760  107.5350  173.7800 C.3   180  PRO180      0.0296
     28  CG        41.9210  108.2830  173.2900 C.3   180  PRO180      0.0237
     29  CD        41.3350  108.9630  174.4840 C.3   180  PRO180      0.0939
     30  N         45.2560  112.3040  175.1920 N.3   182  ALA182     -0.1231
     31  CA        45.9040  112.9030  176.3480 C.3   182  ALA182      0.1694
     32  C         46.9340  111.9680  176.9630 C.2   182  ALA182      0.2592
     33  O         47.9720  112.4220  177.4520 O.2   182  ALA182     -0.2718
     34  CB        44.8570  113.2950  177.3820 C.3   182  ALA182      0.0304
     35  N         46.6570  110.6680  176.9620 N.am  183  MET183     -0.1965
     36  CA        47.6270  109.6900  177.4340 C.3   183  MET183      0.1736
     37  C         48.8860  109.7310  176.5760 C.2   183  MET183      0.2616
     38  O         50.0070  109.9190  177.0810 O.2   183  MET183     -0.2715
     39  CB        46.9620  108.3140  177.4080 C.3   183  MET183      0.0427
     40  CG        47.7380  107.1410  177.9250 C.3   183  MET183      0.0599
     41  SD        46.6600  105.6910  177.9530 S.3   183  MET183     -0.1393
     42  CE        45.7240  105.9560  179.4500 C.3   183  MET183      0.0692
     43  N         48.7070  109.6020  175.2610 N.am  184  MET184     -0.1977
     44  CA        49.8290  109.6680  174.3360 C.3   184  MET184      0.1605
     45  C         50.5860  110.9720  174.4760 C.2   184  MET184      0.2287
     46  O         51.8070  111.0080  174.2870 O.2   184  MET184     -0.2864
     47  CB        49.3220  109.5190  172.9080 C.3   184  MET184      0.0413
     48  CG        48.5990  108.2190  172.6670 C.3   184  MET184      0.0598
     49  SD        47.8940  108.1270  171.0220 S.3   184  MET184     -0.1393
     50  CE        49.3830  107.8970  170.0740 C.3   184  MET184      0.0692
     51  N         50.8320  112.7690  177.2900 N.3   186  PHE186     -0.1227
     52  CA        51.5970  112.7070  178.5280 C.3   186  PHE186      0.1736
     53  C         52.9240  112.0050  178.2890 C.2   186  PHE186      0.2595
     54  O         54.0000  112.5580  178.5530 O.2   186  PHE186     -0.2718
     55  CB        50.7930  111.9870  179.6060 C.3   186  PHE186      0.0547
     56  CG        51.5110  111.8590  180.9100 C.ar  186  PHE186     -0.0202
     57  CD1       51.5090  112.8950  181.8170 C.ar  186  PHE186     -0.0042
     58  CD2       52.1940  110.7070  181.2270 C.ar  186  PHE186     -0.0042
     59  CE1       52.1660  112.7790  183.0130 C.ar  186  PHE186     -0.0003
     60  CE2       52.8520  110.5880  182.4260 C.ar  186  PHE186     -0.0003
     61  CZ        52.8390  111.6250  183.3190 C.ar  186  PHE186     -0.0000
     62  N         52.8650  110.7820  177.7640 N.am  187  ILE187     -0.1980
     63  CA        54.1020  110.0630  177.4700 C.3   187  ILE187      0.1595
     64  C         54.9870  110.8820  176.5360 C.2   187  ILE187      0.2287
     65  O         56.2180  110.9310  176.6910 O.2   187  ILE187     -0.2864
     66  CB        53.7680  108.6810  176.8910 C.3   187  ILE187      0.0276
     67  CG1       53.0640  107.8520  177.9610 C.3   187  ILE187      0.0022
     68  CG2       55.0080  108.0000  176.3990 C.3   187  ILE187      0.0022
     69  CD1       52.4530  106.5920  177.4500 C.3   187  ILE187      0.0001
     70  N         56.9390  113.0550  178.5350 N.3   190  LEU190     -0.1245
     71  CA        58.1110  112.3590  179.0600 C.3   190  LEU190      0.1561
     72  C         59.2380  112.3110  178.0440 C.2   190  LEU190      0.2260
     73  O         60.4120  112.2610  178.4260 O.2   190  LEU190     -0.2867
     74  CB        57.7650  110.9330  179.4730 C.3   190  LEU190      0.0270
     75  CG        57.3210  110.5810  180.8830 C.3   190  LEU190      0.0019
     76  CD1       56.0150  111.2260  181.1800 C.3   190  LEU190      0.0001
     77  CD2       57.2080  109.0790  181.0060 C.3   190  LEU190      0.0001
     78  N         61.0090  106.0590  181.4040 N.3   197  PRO197     -0.2102
     79  CA        61.9090  105.1220  180.7260 C.3   197  PRO197      0.1504
     80  C         62.8560  105.7210  179.6900 C.2   197  PRO197      0.2575
     81  O         63.8260  105.0630  179.3240 O.2   197  PRO197     -0.2718
     82  CB        60.9370  104.1730  180.0200 C.3   197  PRO197      0.0282
     83  CG        59.6690  104.2950  180.7660 C.3   197  PRO197      0.0208
     84  CD        59.6020  105.7350  181.1260 C.3   197  PRO197      0.0893
     85  N         62.5870  106.9360  179.2210 N.am  198  PHE198     -0.1977
     86  CA        63.2120  107.4160  177.9940 C.3   198  PHE198      0.1639
     87  C         64.6210  107.9460  178.1970 C.2   198  PHE198      0.2290
     88  O         65.2540  108.3610  177.2220 O.2   198  PHE198     -0.2864
     89  CB        62.3540  108.5140  177.3780 C.3   198  PHE198      0.0560
     90  CG        60.9440  108.1090  177.1790 C.ar  198  PHE198     -0.0200
     91  CD1       60.5910  107.2890  176.1410 C.ar  198  PHE198     -0.0042
     92  CD2       59.9640  108.5410  178.0420 C.ar  198  PHE198     -0.0042
     93  CE1       59.2850  106.9010  175.9650 C.ar  198  PHE198     -0.0003
     94  CE2       58.6610  108.1590  177.8640 C.ar  198  PHE198     -0.0003
     95  CZ        58.3220  107.3390  176.8240 C.ar  198  PHE198     -0.0000
     96  N         50.3190  120.7190  180.4630 N.3   238  THR238     -0.1218
     97  CA        49.3720  119.6170  180.5420 C.3   238  THR238      0.1862
     98  C         48.1680  120.0150  181.3810 C.2   238  THR238      0.2287
     99  O         47.0190  119.8800  180.9480 O.2   238  THR238     -0.2866
    100  CB        50.0380  118.3900  181.1510 C.3   238  THR238      0.1770
    101  OG1       51.2710  118.1190  180.4790 O.3   238  THR238     -0.2211
    102  CG2       49.1370  117.1860  181.0100 C.3   238  THR238      0.0375
    103  N         44.7220  119.5980  179.1620 N.3   242  PHE242     -0.1227
    104  CA        43.8620  118.4290  179.2910 C.3   242  PHE242      0.1736
    105  C         42.9800  118.4390  180.5230 C.2   242  PHE242      0.2595
    106  O         42.2540  117.4700  180.7500 O.2   242  PHE242     -0.2718
    107  CB        44.7040  117.1650  179.2810 C.3   242  PHE242      0.0547
    108  CG        45.3180  116.8970  177.9670 C.ar  242  PHE242     -0.0202
    109  CD1       44.7290  117.3930  176.8300 C.ar  242  PHE242     -0.0042
    110  CD2       46.4940  116.2040  177.8590 C.ar  242  PHE242     -0.0042
    111  CE1       45.2820  117.1730  175.6070 C.ar  242  PHE242     -0.0003
    112  CE2       47.0520  115.9840  176.6280 C.ar  242  PHE242     -0.0003
    113  CZ        46.4430  116.4670  175.5010 C.ar  242  PHE242     -0.0000
    114  N         43.0350  119.4900  181.3250 N.am  243  LEU243     -0.1980
    115  CA        42.1670  119.6340  182.4830 C.3   243  LEU243      0.1596
    116  C         42.2100  121.0990  182.8960 C.2   243  LEU243      0.2287
    117  O         42.7040  121.9520  182.1530 O.2   243  LEU243     -0.2864
    118  CB        42.5660  118.6350  183.5750 C.3   243  LEU243      0.0297
    119  CG        44.0150  118.5870  184.0410 C.3   243  LEU243      0.0022
    120  CD1       44.2770  119.6400  185.0860 C.3   243  LEU243      0.0001
    121  CD2       44.3650  117.2020  184.5610 C.3   243  LEU243      0.0001
    122  N         51.0900  116.5730  189.1810 N.3   266  LEU266     -0.1245
    123  CA        51.4910  115.9580  187.9230 C.3   266  LEU266      0.1561
    124  C         53.0050  115.7750  187.8620 C.2   266  LEU266      0.2260
    125  O         53.5060  114.6870  187.5390 O.2   266  LEU266     -0.2867
    126  CB        50.9990  116.8140  186.7650 C.3   266  LEU266      0.0270
    127  CG        51.2890  116.2320  185.4000 C.3   266  LEU266      0.0019
    128  CD1       50.5340  114.9360  185.2790 C.3   266  LEU266      0.0001
    129  CD2       50.8500  117.2020  184.3510 C.3   266  LEU266      0.0001
    130  N         54.1350  113.0040  189.6650 N.3   269  THR269     -0.1218
    131  CA        54.0000  111.7480  188.9360 C.3   269  THR269      0.1862
    132  C         55.1500  111.5370  187.9610 C.2   269  THR269      0.2287
    133  O         55.5730  110.3950  187.7480 O.2   269  THR269     -0.2866
    134  CB        52.6650  111.6900  188.2080 C.3   269  THR269      0.1770
    135  OG1       52.5720  112.7900  187.2990 O.3   269  THR269     -0.2211
    136  CG2       51.5320  111.7620  189.2090 C.3   269  THR269      0.0375
    137  N         57.5710  108.3100  188.1370 N.3   273  ILE273     -0.1245
    138  CA        57.4820  107.2990  187.1010 C.3   273  ILE273      0.1561
    139  C         58.9460  106.9240  186.9890 C.2   273  ILE273      0.2260
    140  O         59.3010  105.7430  186.9890 O.2   273  ILE273     -0.2867
    141  CB        56.8830  107.7770  185.7750 C.3   273  ILE273      0.0252
    142  CG1       55.3790  107.9550  185.9280 C.3   273  ILE273      0.0019
    143  CG2       57.2070  106.7940  184.6660 C.3   273  ILE273      0.0019
    144  CD1       54.7270  108.5750  184.7230 C.3   273  ILE273      0.0001
    145  N         59.9760  102.6350  186.4850 N.3   277  TYR277     -0.1241
    146  CA        60.1720  101.6310  185.4480 C.3   277  TYR277      0.1605
    147  C         61.5820  101.6650  184.8870 C.2   277  TYR277      0.2264
    148  O         62.2640  102.6890  184.9490 O.2   277  TYR277     -0.2867
    149  CB        59.2030  101.8370  184.2870 C.3   277  TYR277      0.0534
    150  CG        57.7700  101.6970  184.6680 C.ar  277  TYR277     -0.0201
    151  CD1       57.1440  100.4710  184.6230 C.ar  277  TYR277     -0.0009
    152  CD2       57.0380  102.7970  185.0610 C.ar  277  TYR277     -0.0009
    153  CE1       55.8300  100.3420  184.9550 C.ar  277  TYR277      0.0417
    154  CE2       55.7280  102.6800  185.4090 C.ar  277  TYR277      0.0417
    155  CZ        55.1250  101.4490  185.3580 C.ar  277  TYR277      0.1957
    156  OH        53.8020  101.3280  185.7100 O.3   277  TYR277     -0.2866
    157  N         63.9410  101.9870  178.1730 N.3   280  PHE280     -0.1241
    158  CA        63.9880  101.3220  176.8840 C.3   280  PHE280      0.1605
    159  C         65.3840  101.3960  176.2950 C.2   280  PHE280      0.2264
    160  O         66.0990  102.3860  176.4550 O.2   280  PHE280     -0.2867
    161  CB        63.0520  101.9610  175.8830 C.3   280  PHE280      0.0534
    162  CG        61.6320  101.9360  176.2710 C.ar  280  PHE280     -0.0203
    163  CD1       60.9050  100.7800  176.1880 C.ar  280  PHE280     -0.0042
    164  CD2       60.9970  103.0980  176.6140 C.ar  280  PHE280     -0.0042
    165  CE1       59.5870  100.7790  176.5000 C.ar  280  PHE280     -0.0003
    166  CE2       59.6810  103.1000  176.9260 C.ar  280  PHE280     -0.0003
    167  CZ        58.9720  101.9460  176.8620 C.ar  280  PHE280     -0.0000
    168  N         64.4640  100.3380  170.1060 N.3   284  GLN284     -0.1245
    169  CA        63.1340   99.9710  170.5680 C.3   284  GLN284      0.1566
    170  C         62.3290  101.1960  170.9730 C.2   284  GLN284      0.2260
    171  O         61.1010  101.2060  170.8400 O.2   284  GLN284     -0.2867
    172  CB        63.2850   98.9840  171.7200 C.3   284  GLN284      0.0367
    173  CG        62.0380   98.4500  172.3110 C.3   284  GLN284      0.0905
    174  CD        62.3430   97.3540  173.2980 C.2   284  GLN284      0.2608
    175  OE1       63.4760   96.8990  173.4070 O.2   284  GLN284     -0.2717
    176  NE2       61.3410   96.9380  174.0380 N.am  284  GLN284     -0.0878
    177  N         59.7270  102.4260  168.5360 N.3   288  LEU288     -0.1245
    178  CA        58.4690  102.2970  169.2620 C.3   288  LEU288      0.1561
    179  C         57.5680  103.4820  168.9700 C.2   288  LEU288      0.2260
    180  O         56.3520  103.3240  168.8310 O.2   288  LEU288     -0.2867
    181  CB        58.7050  102.1660  170.7610 C.3   288  LEU288      0.0270
    182  CG        57.4260  101.9230  171.5690 C.3   288  LEU288      0.0019
    183  CD1       57.7130  100.9510  172.6910 C.3   288  LEU288      0.0001
    184  CD2       56.8790  103.2050  172.1460 C.3   288  LEU288      0.0001
    185  N         56.5460  102.9000  165.2410 N.3   291  LYS291     -0.1231
    186  CA        55.6300  101.7690  165.1000 C.3   291  LYS291      0.1693
    187  C         54.1910  102.1660  165.3870 C.2   291  LYS291      0.2592
    188  O         53.2990  101.9510  164.5610 O.2   291  LYS291     -0.2718
    189  CB        56.0200  100.6230  166.0390 C.3   291  LYS291      0.0285
    190  CG        57.1190   99.6700  165.6100 C.3   291  LYS291      0.0035
    191  CD        57.4770   98.8060  166.8190 C.3   291  LYS291      0.0206
    192  CE        58.5600   97.7910  166.5360 C.3   291  LYS291      0.1093
    193  NZ        58.9500   97.0970  167.7970 N.3   291  LYS291     -0.1314
    194  N         53.9420  102.7280  166.5660 N.am  292  ASN292     -0.1960
    195  CA        52.6160  102.6620  167.1690 C.3   292  ASN292      0.1819
    196  C         52.0230  104.0320  167.4680 C.2   292  ASN292      0.2621
    197  O         50.9160  104.3130  167.0010 O.2   292  ASN292     -0.2715
    198  CB        52.6760  101.7690  168.4090 C.3   292  ASN292      0.1195
    199  CG        53.6540  102.2660  169.4320 C.2   292  ASN292      0.2630
    200  OD1       53.7540  103.4630  169.6820 O.2   292  ASN292     -0.2716
    201  ND2       54.4330  101.3500  169.9920 N.am  292  ASN292     -0.0877
    202  N         52.6780  104.8680  168.2780 N.am  293  PHE293     -0.1974
    203  CA        52.1560  106.2070  168.5460 C.3   293  PHE293      0.1639
    204  C         51.6910  106.9230  167.2880 C.2   293  PHE293      0.2290
    205  O         50.4940  107.1530  167.1220 O.2   293  PHE293     -0.2864
    206  CB        53.1850  107.0980  169.2340 C.3   293  PHE293      0.0560
    207  CG        53.4060  106.7820  170.6680 C.ar  293  PHE293     -0.0200
    208  CD1       52.5250  107.2410  171.6230 C.ar  293  PHE293     -0.0042
    209  CD2       54.5140  106.0670  171.0720 C.ar  293  PHE293     -0.0042
    210  CE1       52.7250  106.9700  172.9520 C.ar  293  PHE293     -0.0003
    211  CE2       54.7200  105.7900  172.4040 C.ar  293  PHE293     -0.0003
    212  CZ        53.8260  106.2420  173.3460 C.ar  293  PHE293     -0.0000
    213  N         48.4820  105.7790  165.4350 N.3   296  LEU296     -0.1245
    214  CA        47.2530  105.9780  166.1900 C.3   296  LEU296      0.1561
    215  C         46.9500  107.4550  166.3730 C.2   296  LEU296      0.2260
    216  O         45.7800  107.8430  166.4450 O.2   296  LEU296     -0.2867
    217  CB        47.3360  105.2820  167.5410 C.3   296  LEU296      0.0270
    218  CG        46.0600  105.4330  168.3600 C.3   296  LEU296      0.0019
    219  CD1       44.9030  104.8440  167.5930 C.3   296  LEU296      0.0001
    220  CD2       46.2140  104.7280  169.6740 C.3   296  LEU296      0.0001
    221  N         43.3580  109.0700  165.4410 N.3   300  LEU300     -0.1245
    222  CA        42.5900  109.9250  166.3400 C.3   300  LEU300      0.1561
    223  C         42.4380  111.3290  165.7750 C.2   300  LEU300      0.2260
    224  O         41.3810  111.9510  165.9200 O.2   300  LEU300     -0.2867
    225  CB        43.2470  109.9730  167.7160 C.3   300  LEU300      0.0270
    226  CG        43.1700  108.6850  168.5220 C.3   300  LEU300      0.0019
    227  CD1       43.9780  108.8050  169.7940 C.3   300  LEU300      0.0001
    228  CD2       41.7240  108.3990  168.8510 C.3   300  LEU300      0.0001
    229  N         39.9580  111.4810  163.1170 N.3   303  TRP303     -0.1241
    230  CA        38.6730  111.2810  163.7680 C.3   303  TRP303      0.1605
    231  C         38.2180  112.5350  164.4940 C.2   303  TRP303      0.2264
    232  O         37.0210  112.7030  164.7420 O.2   303  TRP303     -0.2867
    233  CB        38.7300  110.1080  164.7350 C.3   303  TRP303      0.0550
    234  CG        37.3740  109.7340  165.2150 C.ar  303  TRP303      0.0003
    235  CD1       36.4730  108.9360  164.5780 C.ar  303  TRP303      0.0946
    236  CD2       36.7610  110.1360  166.4340 C.ar  303  TRP303      0.0152
    237  NE1       35.3290  108.8210  165.3230 N.ar  303  TRP303     -0.2442
    238  CE2       35.4820  109.5520  166.4710 C.ar  303  TRP303      0.0810
    239  CE3       37.1670  110.9390  167.4950 C.ar  303  TRP303      0.0012
    240  CZ2       34.6100  109.7400  167.5360 C.ar  303  TRP303      0.0191
    241  CZ3       36.3040  111.1300  168.5450 C.ar  303  TRP303      0.0001
    242  CH2       35.0390  110.5320  168.5630 C.ar  303  TRP303      0.0015
@<TRIPOS>BOND
     1   229   230    1
     2   230   231    1
     3   230   233    1
     4   231   232    2
     5   188   187    2
     6   235   234   ar
     7   235   237   ar
     8   233   234    1
     9   186   185    1
    10   186   187    1
    11   186   189    1
    12   234   236   ar
    13   237   238   ar
    14   187   194   am
    15   213   214    1
    16   221   222    1
    17   190   189    1
    18   190   191    1
    19   223   224    2
    20   223   222    1
    21   214   215    1
    22   214   217    1
    23   222   225    1
    24   215   216    2
    25   236   238   ar
    26   236   239   ar
    27   238   240   ar
    28   192   191    1
    29   192   193    1
    30   194   195    1
    31   197   196    2
    32   205   204    2
    33   195   196    1
    34   195   198    1
    35   204   203    1
    36   196   202   am
    37   239   241   ar
    38   240   242   ar
    39   217   218    1
    40   219   218    1
    41   225   226    1
    42   202   203    1
    43   218   220    1
    44   198   199    1
    45   226   228    1
    46   226   227    1
    47   177   178    1
    48   241   242   ar
    49   203   206    1
    50   180   179    2
    51   179   178    1
    52   206   207    1
    53   178   181    1
    54   199   200    2
    55   199   201   am
    56    50    49    1
    57   168   169    1
    58   169   170    1
    59   169   172    1
    60   207   209   ar
    61   207   208   ar
    62   181   182    1
    63   171   170    2
    64    49    48    1
    65   209   211   ar
    66   182   184    1
    67   182   183    1
    68   208   210   ar
    69   172   173    1
    70   173   174    1
    71   211   212   ar
    72    48    47    1
    73    47    44    1
    74   210   212   ar
    75    28    27    1
    76    28    29    1
    77   174   175    2
    78   174   176   am
    79    27    24    1
    80    25    26    2
    81    25    24    1
    82    46    45    2
    83    44    45    1
    84    44    43    1
    85    29    23    1
    86    24    23    1
    87    30    31    1
    88    43    37   am
    89    23    11   am
    90   113   111   ar
    91   113   112   ar
    92   111   109   ar
    93   161   162    1
    94   161   158    1
    95    93    91   ar
    96    93    95   ar
    97    91    90   ar
    98   163   162   ar
    99   163   165   ar
   100    20    22   ar
   101    20    18   ar
   102     9    10    1
   103   162   164   ar
   104   159   160    2
   105   159   158    1
   106    31    32    1
   107    31    34    1
   108    11    12    2
   109    11    10    1
   110    68    66    1
   111    22    21   ar
   112   165   167   ar
   113    64    65    2
   114    64    63    1
   115    37    38    2
   116    37    36    1
   117    17    18   ar
   118    17    15   ar
   119   164   166   ar
   120   112   110   ar
   121    18    16   ar
   122    95    94   ar
   123   109   108   ar
   124   167   166   ar
   125   158   157    1
   126    66    63    1
   127    66    67    1
   128    35    32   am
   129    35    36    1
   130    32    33    2
   131    21    19   ar
   132    15    14   ar
   133    10    13    1
   134    90    89    1
   135    90    92   ar
   136    88    87    2
   137    16    19   ar
   138    16    14   ar
   139    51    52    1
   140    89    86    1
   141    39    36    1
   142    39    40    1
   143    69    67    1
   144    63    62    1
   145    14    13    1
   146    62    53   am
   147   110   108   ar
   148    94    92   ar
   149    40    41    1
   150    41    42    1
   151   108   107    1
   152    86    87    1
   153    86    85    1
   154    72    73    2
   155    72    71    1
   156    53    52    1
   157    53    54    2
   158     4     3    2
   159    52    55    1
   160    70    71    1
   161     3     2    1
   162    71    74    1
   163   103   104    1
   164    85    80   am
   165   107   104    1
   166   104   105    1
   167    81    80    2
   168     1     2    1
   169     2     5    1
   170    74    75    1
   171    55    56    1
   172    80    79    1
   173    82    79    1
   174    82    83    1
   175     8     6    1
   176    96    97    1
   177   101   100    1
   178   105   106    2
   179   105   114   am
   180    97   100    1
   181    97    98    1
   182    79    78    1
   183    83    84    1
   184     5     6    1
   185     5     7    1
   186    75    77    1
   187    75    76    1
   188    56    58   ar
   189    56    57   ar
   190    99    98    2
   191   102   100    1
   192    84    78    1
   193    58    60   ar
   194   114   115    1
   195    57    59   ar
   196   117   116    2
   197    60    61   ar
   198   115   116    1
   199   115   118    1
   200    59    61   ar
   201   118   119    1
   202   119   121    1
   203   119   120    1
   204   149   150    1
   205   149   146    1
   206   129   127    1
   207   151   150   ar
   208   151   153   ar
   209   143   141    1
   210   150   152   ar
   211   144   142    1
   212   147   148    2
   213   147   146    1
   214   153   155   ar
   215   152   154   ar
   216   128   127    1
   217   155   154   ar
   218   155   156    1
   219   127   126    1
   220   146   145    1
   221   141   142    1
   222   141   138    1
   223   126   123    1
   224   139   140    2
   225   139   138    1
   226   138   137    1
   227   135   134    1
   228   125   124    2
   229   133   132    2
   230   124   123    1
   231   123   122    1
   232   132   131    1
   233   134   131    1
   234   134   136    1
   235   131   130    1
