@<TRIPOS>MOLECULE
tmp/5lnkK01.pdb
 94 90 0 0 0
SMALL
GASTEIGER

@<TRIPOS>ATOM
      1  N         63.9480  111.9520   74.1630 N.3    39  LEU39      -0.1245
      2  CA        63.9370  112.5170   72.8260 C.3    39  LEU39       0.1561
      3  C         62.5500  112.9910   72.4230 C.2    39  LEU39       0.2260
      4  O         62.4400  113.8940   71.5880 O.2    39  LEU39      -0.2867
      5  CB        64.4820  111.4910   71.8390 C.3    39  LEU39       0.0270
      6  CG        64.7020  111.9220   70.4030 C.3    39  LEU39       0.0019
      7  CD1       65.9530  111.2650   69.8830 C.3    39  LEU39       0.0001
      8  CD2       63.5250  111.4590   69.6080 C.3    39  LEU39       0.0001
      9  N         67.9920  116.0480   77.8760 N.3    67  ILE67      -0.1245
     10  CA        68.2110  114.9600   76.9290 C.3    67  ILE67       0.1561
     11  C         69.5790  114.3480   77.1480 C.2    67  ILE67       0.2260
     12  O         69.7460  113.1240   77.1030 O.2    67  ILE67      -0.2867
     13  CB        68.0590  115.4620   75.4830 C.3    67  ILE67       0.0252
     14  CG1       66.6260  115.8830   75.1940 C.3    67  ILE67       0.0019
     15  CG2       68.4670  114.3860   74.5060 C.3    67  ILE67       0.0019
     16  CD1       66.4920  116.5880   73.8730 C.3    67  ILE67       0.0001
     17  N         69.9490  110.5300   78.3590 N.3    71  TRP71      -0.1241
     18  CA        70.7930  109.7180   77.4990 C.3    71  TRP71       0.1605
     19  C         71.9970  109.1900   78.2500 C.2    71  TRP71       0.2264
     20  O         72.4950  108.1060   77.9370 O.2    71  TRP71      -0.2867
     21  CB        71.2670  110.5140   76.2880 C.3    71  TRP71       0.0550
     22  CG        72.2990  109.7650   75.5040 C.ar   71  TRP71       0.0003
     23  CD1       73.6330  110.0300   75.4400 C.ar   71  TRP71       0.0946
     24  CD2       72.0860  108.5920   74.7220 C.ar   71  TRP71       0.0152
     25  NE1       74.2590  109.1110   74.6430 N.ar   71  TRP71      -0.2442
     26  CE2       73.3280  108.2170   74.1880 C.ar   71  TRP71       0.0810
     27  CE3       70.9600  107.8340   74.4040 C.ar   71  TRP71       0.0012
     28  CZ2       73.4750  107.1160   73.3630 C.ar   71  TRP71       0.0191
     29  CZ3       71.1070  106.7500   73.5860 C.ar   71  TRP71       0.0001
     30  CH2       72.3530  106.3960   73.0740 C.ar   71  TRP71       0.0015
     31  N         79.1660  108.7550   68.0260 N.3   442  LEU442     -0.1231
     32  CA        78.1690  108.7500   66.9530 C.3   442  LEU442      0.1678
     33  C         77.1320  109.8560   67.0970 C.2   442  LEU442      0.2434
     34  O         76.9040  110.5780   66.1170 O.2   442  LEU442     -0.2733
     35  CB        77.5020  107.3700   66.8830 C.3   442  LEU442      0.0284
     36  CG        78.4530  106.2340   66.5430 C.3   442  LEU442      0.0019
     37  CD1       77.7380  104.9080   66.6390 C.3   442  LEU442      0.0001
     38  CD2       79.0160  106.4460   65.1550 C.3   442  LEU442      0.0001
     39  N         76.5270  110.0920   68.2650 N.am  443  PRO443     -0.2729
     40  CA        75.6700  111.2750   68.3760 C.3   443  PRO443      0.1401
     41  C         76.4390  112.5730   68.2870 C.2   443  PRO443      0.2269
     42  O         75.9190  113.5480   67.7380 O.2   443  PRO443     -0.2865
     43  CB        75.0110  111.0990   69.7450 C.3   443  PRO443      0.0296
     44  CG        75.0620  109.6500   69.9880 C.3   443  PRO443      0.0237
     45  CD        76.3920  109.2420   69.4540 C.3   443  PRO443      0.0939
     46  N         76.7450  113.1680   64.7220 N.3   446  LEU446     -0.1231
     47  CA        75.4900  113.4460   64.0340 C.3   446  LEU446      0.1693
     48  C         74.9920  114.8480   64.3470 C.2   446  LEU446      0.2591
     49  O         74.5260  115.5590   63.4520 O.2   446  LEU446     -0.2718
     50  CB        74.4360  112.4090   64.3960 C.3   446  LEU446      0.0284
     51  CG        74.7900  111.0040   63.9260 C.3   446  LEU446      0.0019
     52  CD1       73.7060  110.0180   64.3110 C.3   446  LEU446      0.0001
     53  CD2       75.0430  110.9910   62.4340 C.3   446  LEU446      0.0001
     54  N         75.0930  115.2680   65.6080 N.am  447  LEU447     -0.1980
     55  CA        74.7250  116.6280   65.9730 C.3   447  LEU447      0.1596
     56  C         75.4510  117.6540   65.1260 C.2   447  LEU447      0.2287
     57  O         74.9240  118.7460   64.8990 O.2   447  LEU447     -0.2864
     58  CB        75.0100  116.8720   67.4480 C.3   447  LEU447      0.0297
     59  CG        74.1180  116.0640   68.3750 C.3   447  LEU447      0.0022
     60  CD1       74.5360  116.2740   69.8100 C.3   447  LEU447      0.0001
     61  CD2       72.6840  116.4780   68.1670 C.3   447  LEU447      0.0001
     62  N         75.5100  117.6610   62.1660 N.3   449  LEU449     -0.1231
     63  CA        74.6710  117.8780   60.9910 C.3   449  LEU449      0.1693
     64  C         73.5330  118.8490   61.2760 C.2   449  LEU449      0.2592
     65  O         73.3990  119.8660   60.5940 O.2   449  LEU449     -0.2718
     66  CB        74.1180  116.5530   60.4690 C.3   449  LEU449      0.0284
     67  CG        75.1820  115.6350   59.8880 C.3   449  LEU449      0.0019
     68  CD1       74.5840  114.3000   59.5270 C.3   449  LEU449      0.0001
     69  CD2       75.8020  116.2930   58.6770 C.3   449  LEU449      0.0001
     70  N         72.6820  118.5340   62.2460 N.am  450  ASN450     -0.1974
     71  CA        71.5330  119.3760   62.5560 C.3   450  ASN450      0.1688
     72  C         71.7080  119.9620   63.9500 C.2   450  ASN450      0.2292
     73  O         71.0400  119.5320   64.8960 O.2   450  ASN450     -0.2864
     74  CB        70.2410  118.5630   62.4720 C.3   450  ASN450      0.1181
     75  CG        69.0010  119.4120   62.6180 C.2   450  ASN450      0.2629
     76  OD1       69.0510  120.5260   63.1200 O.2   450  ASN450     -0.2716
     77  ND2       67.8670  118.8740   62.1890 N.am  450  ASN450     -0.0877
     78  N         70.8280  122.8140   65.2170 N.3   452  LYS452     -0.1231
     79  CA        69.8890  123.8110   65.7150 C.3   452  LYS452      0.1693
     80  C         69.0800  123.3040   66.8920 C.2   452  LYS452      0.2591
     81  O         68.3900  124.0960   67.5400 O.2   452  LYS452     -0.2718
     82  CB        68.9400  124.2660   64.6120 C.3   452  LYS452      0.0285
     83  CG        67.9710  123.2180   64.1430 C.3   452  LYS452      0.0035
     84  CD        67.0860  123.7600   63.0400 C.3   452  LYS452      0.0206
     85  CE        66.0800  122.7230   62.5950 C.3   452  LYS452      0.1093
     86  NZ        66.7410  121.5430   61.9940 N.3   452  LYS452     -0.1314
     87  N         69.1370  122.0050   67.1700 N.am  453  ILE453     -0.1980
     88  CA        68.5770  121.4780   68.4070 C.3   453  ILE453      0.1595
     89  C         69.3330  122.0330   69.6060 C.2   453  ILE453      0.2287
     90  O         68.7320  122.5010   70.5780 O.2   453  ILE453     -0.2864
     91  CB        68.6160  119.9420   68.3940 C.3   453  ILE453      0.0276
     92  CG1       67.7540  119.3970   67.2670 C.3   453  ILE453      0.0022
     93  CG2       68.1400  119.3980   69.7080 C.3   453  ILE453      0.0022
     94  CD1       67.9370  117.9310   67.0560 C.3   453  ILE453      0.0001
@<TRIPOS>BOND
     1    69    67    1
     2    68    67    1
     3    67    66    1
     4    66    63    1
     5    65    64    2
     6    63    64    1
     7    63    62    1
     8    64    70   am
     9    86    85    1
    10    77    75   am
    11    70    71    1
    12    53    51    1
    13    74    71    1
    14    74    75    1
    15    71    72    1
    16    85    84    1
    17    75    76    2
    18    84    83    1
    19    49    48    2
    20    51    52    1
    21    51    50    1
    22    72    73    2
    23    47    48    1
    24    47    50    1
    25    47    46    1
    26    83    82    1
    27    48    54   am
    28    82    79    1
    29    57    56    2
    30    56    55    1
    31    38    36    1
    32    78    79    1
    33    54    55    1
    34    79    80    1
    35    55    58    1
    36    34    33    2
    37    36    37    1
    38    36    35    1
    39    35    32    1
    40    80    87   am
    41    80    81    2
    42    32    33    1
    43    32    31    1
    44    94    92    1
    45    33    39   am
    46    87    88    1
    47    92    91    1
    48    58    59    1
    49    42    41    2
    50    61    59    1
    51    39    40    1
    52    39    45    1
    53    41    40    1
    54    59    60    1
    55    40    43    1
    56    91    88    1
    57    91    93    1
    58    88    89    1
    59    45    44    1
    60    89    90    2
    61     8     6    1
    62    43    44    1
    63     7     6    1
    64     6     5    1
    65     4     3    2
    66     5     2    1
    67     3     2    1
    68     2     1    1
    69    30    28   ar
    70    30    29   ar
    71    28    26   ar
    72    29    27   ar
    73    16    14    1
    74    26    25   ar
    75    26    24   ar
    76    27    24   ar
    77    15    13    1
    78    25    23   ar
    79    24    22   ar
    80    14    13    1
    81    23    22   ar
    82    13    10    1
    83    22    21    1
    84    21    18    1
    85    10    11    1
    86    10     9    1
    87    12    11    2
    88    18    19    1
    89    18    17    1
    90    20    19    2
