@<TRIPOS>MOLECULE
tmp/5lnkI03.pdb
 115 109 0 0 0
SMALL
GASTEIGER

@<TRIPOS>ATOM
      1  N         52.8580  118.7570  132.3200 N.3    18  ILE18      -0.1245
      2  CA        51.4800  119.0610  131.9460 C.3    18  ILE18       0.1561
      3  C         50.9450  120.2220  132.7670 C.2    18  ILE18       0.2260
      4  O         50.1750  121.0470  132.2670 O.2    18  ILE18      -0.2867
      5  CB        50.5940  117.8140  132.0870 C.3    18  ILE18       0.0252
      6  CG1       50.9180  116.8090  130.9930 C.3    18  ILE18       0.0019
      7  CG2       49.1430  118.1820  132.0250 C.3    18  ILE18       0.0019
      8  CD1       50.1980  115.5100  131.1610 C.3    18  ILE18       0.0001
      9  N         52.2610  123.4510  131.5170 N.3    21  MET21      -0.1230
     10  CA        51.5550  123.8720  130.3180 C.3    21  MET21       0.1702
     11  C         50.1490  124.3600  130.6260 C.2    21  MET21       0.2592
     12  O         49.6760  125.3160  130.0070 O.2    21  MET21      -0.2718
     13  CB        51.5150  122.7270  129.3170 C.3    21  MET21       0.0401
     14  CG        52.8780  122.3850  128.7920 C.3    21  MET21       0.0596
     15  SD        52.8670  120.9730  127.6990 S.3    21  MET21      -0.1393
     16  CE        54.6070  120.8740  127.3180 C.3    21  MET21       0.0692
     17  N         49.4630  123.7240  131.5710 N.am   22  ILE22      -0.1980
     18  CA        48.0420  123.9970  131.7320 C.3    22  ILE22       0.1595
     19  C         47.7910  125.2490  132.5630 C.2    22  ILE22       0.2287
     20  O         46.9090  126.0470  132.2360 O.2    22  ILE22      -0.2864
     21  CB        47.3160  122.7700  132.3050 C.3    22  ILE22       0.0276
     22  CG1       45.8310  123.0460  132.2950 C.3    22  ILE22       0.0022
     23  CG2       47.7300  122.4920  133.7210 C.3    22  ILE22       0.0022
     24  CD1       45.3610  123.3800  130.9500 C.3    22  ILE22       0.0001
     25  N         62.2460  115.9750  126.8190 N.3   133  TRP133     -0.1241
     26  CA        61.0080  116.1990  127.5540 C.3   133  TRP133      0.1605
     27  C         61.0740  117.4750  128.3790 C.2   133  TRP133      0.2264
     28  O         60.2680  118.3910  128.1890 O.2   133  TRP133     -0.2867
     29  CB        60.6980  115.0020  128.4390 C.3   133  TRP133      0.0550
     30  CG        59.4820  115.2240  129.2240 C.ar  133  TRP133      0.0003
     31  CD1       59.4070  115.4680  130.5520 C.ar  133  TRP133      0.0946
     32  CD2       58.1500  115.2720  128.7260 C.ar  133  TRP133      0.0152
     33  NE1       58.1030  115.6420  130.9240 N.ar  133  TRP133     -0.2442
     34  CE2       57.3100  115.5270  129.8150 C.ar  133  TRP133      0.0810
     35  CE3       57.5840  115.1120  127.4640 C.ar  133  TRP133      0.0012
     36  CZ2       55.9350  115.6300  129.6830 C.ar  133  TRP133      0.0191
     37  CZ3       56.2200  115.2130  127.3340 C.ar  133  TRP133      0.0001
     38  CH2       55.4090  115.4690  128.4350 C.ar  133  TRP133      0.0015
     39  N         60.3330  120.8810  126.9870 N.3   136  LEU136     -0.1245
     40  CA        59.0120  121.3380  126.5760 C.3   136  LEU136      0.1561
     41  C         58.4790  122.4260  127.4910 C.2   136  LEU136      0.2260
     42  O         57.8130  123.3540  127.0250 O.2   136  LEU136     -0.2867
     43  CB        58.0320  120.1750  126.5350 C.3   136  LEU136      0.0270
     44  CG        58.2840  119.1750  125.4250 C.3   136  LEU136      0.0019
     45  CD1       57.3230  118.0180  125.5310 C.3   136  LEU136      0.0001
     46  CD2       58.1070  119.8790  124.1160 C.3   136  LEU136      0.0001
     47  N         56.6310  131.0780  125.0500 N.3   143  TYR143     -0.1241
     48  CA        55.5480  131.3470  124.1150 C.3   143  TYR143      0.1605
     49  C         54.4780  132.2180  124.7470 C.2   143  TYR143      0.2264
     50  O         53.8320  133.0130  124.0580 O.2   143  TYR143     -0.2867
     51  CB        54.9280  130.0390  123.6450 C.3   143  TYR143      0.0534
     52  CG        53.7300  130.2280  122.7550 C.ar  143  TYR143     -0.0201
     53  CD1       53.8790  130.4610  121.4040 C.ar  143  TYR143     -0.0009
     54  CD2       52.4440  130.1910  123.2730 C.ar  143  TYR143     -0.0009
     55  CE1       52.7840  130.6310  120.5870 C.ar  143  TYR143      0.0417
     56  CE2       51.3450  130.3670  122.4650 C.ar  143  TYR143      0.0417
     57  CZ        51.5210  130.5850  121.1260 C.ar  143  TYR143      0.1957
     58  OH        50.4230  130.7590  120.3240 O.3   143  TYR143     -0.2866
     59  N         58.0270  126.3990  117.9490 N.3   202  LEU202     -0.1245
     60  CA        57.4440  125.0920  118.2130 C.3   202  LEU202      0.1561
     61  C         57.7890  124.0990  117.1100 C.2   202  LEU202      0.2260
     62  O         57.9170  122.8980  117.3760 O.2   202  LEU202     -0.2867
     63  CB        55.9360  125.2090  118.3810 C.3   202  LEU202      0.0270
     64  CG        55.4390  125.9920  119.5900 C.3   202  LEU202      0.0019
     65  CD1       53.9330  126.0870  119.5500 C.3   202  LEU202      0.0001
     66  CD2       55.8900  125.3180  120.8630 C.3   202  LEU202      0.0001
     67  N         61.2320  122.9160  117.6390 N.3   205  LEU205     -0.1231
     68  CA        61.0970  122.1130  118.8430 C.3   205  LEU205      0.1693
     69  C         60.7050  120.6870  118.4970 C.2   205  LEU205      0.2591
     70  O         61.3780  119.7300  118.8910 O.2   205  LEU205     -0.2718
     71  CB        60.0610  122.7380  119.7690 C.3   205  LEU205      0.0284
     72  CG        59.7910  121.9380  121.0300 C.3   205  LEU205      0.0019
     73  CD1       61.0650  121.8520  121.8370 C.3   205  LEU205      0.0001
     74  CD2       58.6790  122.5870  121.8280 C.3   205  LEU205      0.0001
     75  N         59.6130  120.5280  117.7480 N.am  206  ILE206     -0.1980
     76  CA        59.1040  119.1920  117.4510 C.3   206  ILE206      0.1595
     77  C         60.1030  118.4040  116.6180 C.2   206  ILE206      0.2287
     78  O         60.4920  117.2820  116.9750 O.2   206  ILE206     -0.2864
     79  CB        57.7370  119.2840  116.7570 C.3   206  ILE206      0.0276
     80  CG1       56.6710  119.6770  117.7690 C.3   206  ILE206      0.0022
     81  CG2       57.3920  117.9830  116.0900 C.3   206  ILE206      0.0022
     82  CD1       55.3330  119.9060  117.1550 C.3   206  ILE206      0.0001
     83  N         62.8770  117.2670  118.6930 N.3   209  ILE209     -0.1245
     84  CA        62.5480  116.1360  119.5510 C.3   209  ILE209      0.1561
     85  C         62.6290  114.8370  118.7690 C.2   209  ILE209      0.2260
     86  O         63.1560  113.8330  119.2610 O.2   209  ILE209     -0.2867
     87  CB        61.1600  116.3270  120.1830 C.3   209  ILE209      0.0252
     88  CG1       61.1850  117.4890  121.1670 C.3   209  ILE209      0.0019
     89  CG2       60.7340  115.0770  120.8950 C.3   209  ILE209      0.0019
     90  CD1       59.8290  117.8620  121.6800 C.3   209  ILE209      0.0001
     91  N         49.8240  123.0300  110.4610 N.3   345  ILE345     -0.1231
     92  CA        49.0560  122.1320  111.3180 C.3   345  ILE345      0.1692
     93  C         49.5150  122.2860  112.7500 C.2   345  ILE345      0.2592
     94  O         48.7400  122.0920  113.6910 O.2   345  ILE345     -0.2718
     95  CB        49.1820  120.6670  110.8670 C.3   345  ILE345      0.0266
     96  CG1       48.0670  119.8630  111.4930 C.3   345  ILE345      0.0019
     97  CG2       50.4420  120.0400  111.3960 C.3   345  ILE345      0.0020
     98  CD1       46.7660  120.3240  111.0550 C.3   345  ILE345      0.0001
     99  N         50.7710  122.6780  112.9320 N.am  346  LEU346     -0.1966
    100  CA        51.3810  122.6970  114.2480 C.3   346  LEU346      0.1728
    101  C         50.7080  123.7260  115.1440 C.2   346  LEU346      0.2616
    102  O         50.1920  123.3960  116.2160 O.2   346  LEU346     -0.2715
    103  CB        52.8670  122.9860  114.0800 C.3   346  LEU346      0.0311
    104  CG        53.7950  122.9060  115.2700 C.3   346  LEU346      0.0022
    105  CD1       55.1180  122.4150  114.7580 C.3   346  LEU346      0.0001
    106  CD2       53.9250  124.2830  115.8440 C.3   346  LEU346      0.0001
    107  N         50.6820  124.9740  114.7050 N.am  347  GLU347     -0.1977
    108  CA        49.9960  126.0180  115.4360 C.3   347  GLU347      0.1602
    109  C         48.4960  125.9130  115.2040 C.2   347  GLU347      0.2287
    110  O         48.0470  125.7720  114.0690 O.2   347  GLU347     -0.2864
    111  CB        50.5210  127.3910  115.0180 C.3   347  GLU347      0.0415
    112  CG        49.8540  128.5700  115.7010 C.3   347  GLU347      0.1163
    113  CD        48.5750  128.9890  115.0120 C.2   347  GLU347      0.3649
    114  OE1       48.4490  128.7260  113.7990 O.co2 347  GLU347     -0.2457
    115  OE2       47.6980  129.5680  115.6840 O.co2 347  GLU347     -0.2457
@<TRIPOS>BOND
     1    91    92    1
     2    95    92    1
     3    95    97    1
     4    95    96    1
     5    98    96    1
     6    92    93    1
     7    93    99   am
     8    93    94    2
     9    99   100    1
    10   114   113   ar
    11   110   109    2
    12   103   100    1
    13   103   104    1
    14   100   101    1
    15   107   101   am
    16   107   108    1
    17   105   104    1
    18   113   115   ar
    19   113   112    1
    20   111   108    1
    21   111   112    1
    22   101   102    2
    23   109   108    1
    24   104   106    1
    25    81    79    1
    26    77    78    2
    27    77    76    1
    28    79    76    1
    29    79    80    1
    30    61    62    2
    31    61    60    1
    32    82    80    1
    33    76    75    1
    34    67    68    1
    35    75    69   am
    36    59    60    1
    37    60    63    1
    38    63    64    1
    39    69    68    1
    40    69    70    2
    41    83    84    1
    42    85    86    2
    43    85    84    1
    44    68    71    1
    45    65    64    1
    46    84    87    1
    47    64    66    1
    48    71    72    1
    49    87    89    1
    50    87    88    1
    51    58    57    1
    52    55    57   ar
    53    55    53   ar
    54    72    74    1
    55    72    73    1
    56    57    56   ar
    57    88    90    1
    58    53    52   ar
    59    56    54   ar
    60    52    54   ar
    61    52    51    1
    62    51    48    1
    63    50    49    2
    64    48    49    1
    65    48    47    1
    66    46    44    1
    67    44    45    1
    68    44    43    1
    69    43    40    1
    70    40    39    1
    71    40    41    1
    72    25    26    1
    73    42    41    2
    74    16    15    1
    75    37    35   ar
    76    37    38   ar
    77    35    32   ar
    78    26    27    1
    79    26    29    1
    80    15    14    1
    81    28    27    2
    82    38    36   ar
    83    29    30    1
    84    32    30   ar
    85    32    34   ar
    86    14    13    1
    87    30    31   ar
    88    13    10    1
    89    36    34   ar
    90    34    33   ar
    91    12    11    2
    92    10    11    1
    93    10     9    1
    94    31    33   ar
    95    11    17   am
    96    24    22    1
    97     6     8    1
    98     6     5    1
    99    17    18    1
   100    18    21    1
   101    18    19    1
   102     2     5    1
   103     2     1    1
   104     2     3    1
   105     7     5    1
   106    20    19    2
   107     4     3    2
   108    22    21    1
   109    21    23    1
