@<TRIPOS>MOLECULE
tmp/5lnkI02.pdb
 86 82 0 0 0
SMALL
GASTEIGER

@<TRIPOS>ATOM
      1  N         57.2630  103.8070  136.8770 N.3     7  ILE7       -0.1231
      2  CA        56.0210  104.2900  136.2890 C.3     7  ILE7        0.1692
      3  C         55.3950  105.3610  137.1710 C.2     7  ILE7        0.2591
      4  O         54.8540  106.3550  136.6730 O.2     7  ILE7       -0.2718
      5  CB        55.0650  103.1130  136.0370 C.3     7  ILE7        0.0266
      6  CG1       55.6350  102.2150  134.9400 C.3     7  ILE7        0.0019
      7  CG2       53.6900  103.6100  135.6610 C.3     7  ILE7        0.0020
      8  CD1       54.9080  100.9190  134.7750 C.3     7  ILE7        0.0001
      9  N         55.5070  105.2090  138.4940 N.am    8  ILE8       -0.1980
     10  CA        54.9160  106.1780  139.4150 C.3     8  ILE8        0.1595
     11  C         55.7740  107.4240  139.5430 C.2     8  ILE8        0.2287
     12  O         55.3980  108.3670  140.2480 O.2     8  ILE8       -0.2864
     13  CB        54.6820  105.4770  140.7700 C.3     8  ILE8        0.0276
     14  CG1       53.8180  104.2350  140.5730 C.3     8  ILE8        0.0022
     15  CG2       53.9770  106.3730  141.7640 C.3     8  ILE8        0.0022
     16  CD1       52.4510  104.5330  140.0110 C.3     8  ILE8        0.0001
     17  N         57.9010  108.5980  136.3950 N.3    10  LEU10      -0.1231
     18  CA        57.6870  109.1270  135.0530 C.3    10  LEU10       0.1693
     19  C         56.2820  109.6900  134.9010 C.2    10  LEU10       0.2591
     20  O         56.0870  110.7350  134.2710 O.2    10  LEU10      -0.2718
     21  CB        57.9430  108.0430  134.0110 C.3    10  LEU10       0.0284
     22  CG        59.3880  107.5660  133.8950 C.3    10  LEU10       0.0019
     23  CD1       59.4830  106.3950  132.9370 C.3    10  LEU10       0.0001
     24  CD2       60.2670  108.7040  133.4330 C.3    10  LEU10       0.0001
     25  N         55.2920  109.0210  135.4900 N.am   11  MET11      -0.1979
     26  CA        53.9490  109.5830  135.5140 C.3    11  MET11       0.1605
     27  C         53.9370  110.9650  136.1590 C.2    11  MET11       0.2287
     28  O         53.2070  111.8570  135.7150 O.2    11  MET11      -0.2864
     29  CB        53.0060  108.6330  136.2460 C.3    11  MET11       0.0413
     30  CG        51.5690  109.0950  136.3220 C.3    11  MET11       0.0598
     31  SD        50.5020  107.8230  137.0230 S.3    11  MET11      -0.1393
     32  CE        48.9430  108.6930  137.1340 C.3    11  MET11       0.0692
     33  N         55.7030  113.5730  133.5980 N.3    14  MET14      -0.1230
     34  CA        54.6640  113.9270  132.6420 C.3    14  MET14       0.1702
     35  C         53.6510  114.8570  133.2890 C.2    14  MET14       0.2592
     36  O         53.2960  115.8980  132.7270 O.2    14  MET14      -0.2718
     37  CB        53.9720  112.6650  132.1240 C.3    14  MET14       0.0401
     38  CG        54.8700  111.6540  131.4230 C.3    14  MET14       0.0596
     39  SD        55.5890  112.2150  129.8720 S.3    14  MET14      -0.1393
     40  CE        56.5300  110.7720  129.3860 C.3    14  MET14       0.0692
     41  N         53.2040  114.5100  134.4980 N.am   15  LEU15      -0.1980
     42  CA        52.2210  115.3390  135.1860 C.3    15  LEU15       0.1596
     43  C         52.7510  116.7430  135.4180 C.2    15  LEU15       0.2287
     44  O         52.0800  117.7290  135.0990 O.2    15  LEU15      -0.2864
     45  CB        51.8170  114.6980  136.5100 C.3    15  LEU15       0.0297
     46  CG        50.8570  115.5630  137.3240 C.3    15  LEU15       0.0022
     47  CD1       49.6020  115.8200  136.5220 C.3    15  LEU15       0.0001
     48  CD2       50.5090  114.9060  138.6430 C.3    15  LEU15       0.0001
     49  N         52.8580  118.7570  132.3200 N.3    18  ILE18      -0.1231
     50  CA        51.4800  119.0610  131.9460 C.3    18  ILE18       0.1692
     51  C         50.9450  120.2220  132.7670 C.2    18  ILE18       0.2591
     52  O         50.1750  121.0470  132.2670 O.2    18  ILE18      -0.2718
     53  CB        50.5940  117.8140  132.0870 C.3    18  ILE18       0.0266
     54  CG1       50.9180  116.8090  130.9930 C.3    18  ILE18       0.0019
     55  CG2       49.1430  118.1820  132.0250 C.3    18  ILE18       0.0020
     56  CD1       50.1980  115.5100  131.1610 C.3    18  ILE18       0.0001
     57  N         51.3490  120.3180  134.0320 N.am   19  ILE19      -0.1980
     58  CA        50.8960  121.4350  134.8530 C.3    19  ILE19       0.1595
     59  C         51.5520  122.7330  134.4080 C.2    19  ILE19       0.2287
     60  O         50.8940  123.7800  134.3380 O.2    19  ILE19      -0.2864
     61  CB        51.1300  121.1410  136.3430 C.3    19  ILE19       0.0276
     62  CG1       50.0320  120.2160  136.8480 C.3    19  ILE19       0.0022
     63  CG2       51.1910  122.4110  137.1540 C.3    19  ILE19       0.0022
     64  CD1       50.2360  119.7530  138.2410 C.3    19  ILE19       0.0001
     65  N         49.4630  123.7240  131.5710 N.3    22  ILE22      -0.1245
     66  CA        48.0420  123.9970  131.7320 C.3    22  ILE22       0.1561
     67  C         47.7910  125.2490  132.5630 C.2    22  ILE22       0.2260
     68  O         46.9090  126.0470  132.2360 O.2    22  ILE22      -0.2867
     69  CB        47.3160  122.7700  132.3050 C.3    22  ILE22       0.0252
     70  CG1       45.8310  123.0460  132.2950 C.3    22  ILE22       0.0019
     71  CG2       47.7300  122.4920  133.7210 C.3    22  ILE22       0.0019
     72  CD1       45.3610  123.3800  130.9500 C.3    22  ILE22       0.0001
     73  N         62.2460  115.9750  126.8190 N.3   133  TRP133     -0.1241
     74  CA        61.0080  116.1990  127.5540 C.3   133  TRP133      0.1605
     75  C         61.0740  117.4750  128.3790 C.2   133  TRP133      0.2264
     76  O         60.2680  118.3910  128.1890 O.2   133  TRP133     -0.2867
     77  CB        60.6980  115.0020  128.4390 C.3   133  TRP133      0.0550
     78  CG        59.4820  115.2240  129.2240 C.ar  133  TRP133      0.0003
     79  CD1       59.4070  115.4680  130.5520 C.ar  133  TRP133      0.0946
     80  CD2       58.1500  115.2720  128.7260 C.ar  133  TRP133      0.0152
     81  NE1       58.1030  115.6420  130.9240 N.ar  133  TRP133     -0.2442
     82  CE2       57.3100  115.5270  129.8150 C.ar  133  TRP133      0.0810
     83  CE3       57.5840  115.1120  127.4640 C.ar  133  TRP133      0.0012
     84  CZ2       55.9350  115.6300  129.6830 C.ar  133  TRP133      0.0191
     85  CZ3       56.2200  115.2130  127.3340 C.ar  133  TRP133      0.0001
     86  CH2       55.4090  115.4690  128.4350 C.ar  133  TRP133      0.0015
@<TRIPOS>BOND
     1    73    74    1
     2    85    83   ar
     3    85    86   ar
     4    83    80   ar
     5    74    75    1
     6    74    77    1
     7    76    75    2
     8    86    84   ar
     9    77    78    1
    10    80    78   ar
    11    80    82   ar
    12    78    79   ar
    13    40    39    1
    14    84    82   ar
    15    82    81   ar
    16    39    38    1
    17    79    81   ar
    18    72    70    1
    19    54    56    1
    20    54    53    1
    21    38    37    1
    22    65    66    1
    23    66    69    1
    24    66    67    1
    25    50    53    1
    26    50    49    1
    27    50    51    1
    28    55    53    1
    29    37    34    1
    30    68    67    2
    31    52    51    2
    32    70    69    1
    33    69    71    1
    34    34    35    1
    35    34    33    1
    36    36    35    2
    37    51    57   am
    38    23    22    1
    39    35    41   am
    40    24    22    1
    41    22    21    1
    42    21    18    1
    43    57    58    1
    44    20    19    2
    45    60    59    2
    46    59    58    1
    47    41    42    1
    48     8     6    1
    49    58    61    1
    50    19    18    1
    51    19    25   am
    52     6     5    1
    53    18    17    1
    54    44    43    2
    55    42    43    1
    56    42    45    1
    57    25    26    1
    58    26    27    1
    59    26    29    1
    60     7     5    1
    61    28    27    2
    62     5     2    1
    63    29    30    1
    64     2     1    1
    65     2     3    1
    66    30    31    1
    67    61    62    1
    68    61    63    1
    69    45    46    1
    70    47    46    1
    71     4     3    2
    72    62    64    1
    73    31    32    1
    74     3     9   am
    75    46    48    1
    76     9    10    1
    77    10    11    1
    78    10    13    1
    79    11    12    2
    80    16    14    1
    81    14    13    1
    82    13    15    1
