@<TRIPOS>MOLECULE
tmp/5lnkK02.pdb
 136 133 0 0 0
SMALL
GASTEIGER

@<TRIPOS>ATOM
      1  N         94.3460   97.9030   67.6630 N.3   353  PRO353     -0.2102
      2  CA        94.3630   98.8100   66.5080 C.3   353  PRO353      0.1504
      3  C         93.0560   99.5320   66.2820 C.2   353  PRO353      0.2575
      4  O         93.0510  100.5700   65.6130 O.2   353  PRO353     -0.2718
      5  CB        94.6880   97.8770   65.3390 C.3   353  PRO353      0.0282
      6  CG        94.1610   96.5640   65.7710 C.3   353  PRO353      0.0208
      7  CD        94.4100   96.4940   67.2500 C.3   353  PRO353      0.0893
      8  N         91.9430   99.0130   66.7930 N.am  354  LEU354     -0.1980
      9  CA        90.6880   99.7370   66.6640 C.3   354  LEU354      0.1596
     10  C         90.5880  100.8670   67.6740 C.2   354  LEU354      0.2287
     11  O         90.1880  101.9800   67.3180 O.2   354  LEU354     -0.2864
     12  CB        89.5050   98.7880   66.8170 C.3   354  LEU354      0.0297
     13  CG        88.1480   99.4500   66.5830 C.3   354  LEU354      0.0022
     14  CD1       87.2350   98.4760   65.9080 C.3   354  LEU354      0.0001
     15  CD2       87.5220   99.9100   67.8840 C.3   354  LEU354      0.0001
     16  N         92.4720  102.8240   68.7280 N.3   356  ALA356     -0.1231
     17  CA        93.0100  104.0030   68.0750 C.3   356  ALA356      0.1694
     18  C         91.8970  104.9250   67.6220 C.2   356  ALA356      0.2592
     19  O         91.7740  106.0490   68.1090 O.2   356  ALA356     -0.2718
     20  CB        93.8580  103.5900   66.8740 C.3   356  ALA356      0.0304
     21  N         91.0640  104.4460   66.6980 N.am  357  ALA357     -0.1966
     22  CA        90.0520  105.2970   66.0860 C.3   357  ALA357      0.1728
     23  C         89.2310  106.0560   67.1150 C.2   357  ALA357      0.2616
     24  O         88.8140  107.1910   66.8590 O.2   357  ALA357     -0.2715
     25  CB        89.1310  104.4580   65.2030 C.3   357  ALA357      0.0334
     26  N         88.9940  105.4650   68.2850 N.am  358  TRP358     -0.1974
     27  CA        88.2190  106.1890   69.2810 C.3   358  TRP358      0.1640
     28  C         89.0760  107.1940   70.0360 C.2   358  TRP358      0.2290
     29  O         88.6190  108.3090   70.3110 O.2   358  TRP358     -0.2864
     30  CB        87.5370  105.2210   70.2390 C.3   358  TRP358      0.0576
     31  CG        86.5850  104.3310   69.5300 C.ar  358  TRP358      0.0006
     32  CD1       86.7130  102.9950   69.3240 C.ar  358  TRP358      0.0946
     33  CD2       85.4100  104.7340   68.8250 C.ar  358  TRP358      0.0152
     34  NE1       85.6570  102.5270   68.5890 N.ar  358  TRP358     -0.2442
     35  CE2       84.8450  103.5780   68.2630 C.ar  358  TRP358      0.0810
     36  CE3       84.7680  105.9600   68.6370 C.ar  358  TRP358      0.0012
     37  CZ2       83.6690  103.6080   67.5270 C.ar  358  TRP358      0.0191
     38  CZ3       83.6020  105.9900   67.9050 C.ar  358  TRP358      0.0001
     39  CH2       83.0630  104.8210   67.3590 C.ar  358  TRP358      0.0015
     40  N         91.8180  108.8010   68.7370 N.3   360  LEU360     -0.1231
     41  CA        91.9140  109.8360   67.7190 C.3   360  LEU360      0.1693
     42  C         90.6300  110.6370   67.6290 C.2   360  LEU360      0.2591
     43  O         90.6160  111.8400   67.8920 O.2   360  LEU360     -0.2718
     44  CB        92.2440  109.1980   66.3720 C.3   360  LEU360      0.0284
     45  CG        92.2650  110.1320   65.1700 C.3   360  LEU360      0.0019
     46  CD1       93.3190  111.1910   65.3570 C.3   360  LEU360      0.0001
     47  CD2       92.5350  109.3510   63.9090 C.3   360  LEU360      0.0001
     48  N         89.5390  109.9740   67.2620 N.am  361  LEU361     -0.1980
     49  CA        88.2890  110.6800   67.0230 C.3   361  LEU361      0.1596
     50  C         87.9150  111.5770   68.1980 C.2   361  LEU361      0.2287
     51  O         87.6010  112.7590   68.0150 O.2   361  LEU361     -0.2864
     52  CB        87.1880  109.6680   66.7380 C.3   361  LEU361      0.0297
     53  CG        85.8400  110.3010   66.4610 C.3   361  LEU361      0.0022
     54  CD1       85.9700  111.1850   65.2450 C.3   361  LEU361      0.0001
     55  CD2       84.8170  109.2180   66.2240 C.3   361  LEU361      0.0001
     56  N         90.3590  114.5670   68.6860 N.3   364  LEU364     -0.1231
     57  CA        90.0480  115.5670   67.6760 C.3   364  LEU364      0.1693
     58  C         88.7990  116.3450   68.0510 C.2   364  LEU364      0.2592
     59  O         88.7560  117.5690   67.9040 O.2   364  LEU364     -0.2718
     60  CB        89.8630  114.9160   66.3110 C.3   364  LEU364      0.0284
     61  CG        91.0540  114.1920   65.7000 C.3   364  LEU364      0.0019
     62  CD1       90.6720  113.6240   64.3480 C.3   364  LEU364      0.0001
     63  CD2       92.2270  115.1250   65.5810 C.3   364  LEU364      0.0001
     64  N         87.7660  115.6550   68.5370 N.am  365  THR365     -0.1953
     65  CA        86.5740  116.3800   68.9550 C.3   365  THR365      0.1897
     66  C         86.8410  117.2920   70.1400 C.2   365  THR365      0.2313
     67  O         86.0440  118.2010   70.3910 O.2   365  THR365     -0.2863
     68  CB        85.4490  115.4150   69.2970 C.3   365  THR365      0.1794
     69  OG1       85.8890  114.5190   70.3210 O.3   365  THR365     -0.2208
     70  CG2       85.0390  114.6290   68.0660 C.3   365  THR365      0.0378
     71  N         87.7570  120.6420   66.1460 N.3   369  LEU369     -0.1231
     72  CA        87.7860  120.3530   64.7200 C.3   369  LEU369      0.1678
     73  C         86.5410  120.9400   64.0800 C.2   369  LEU369      0.2434
     74  O         85.4560  120.8430   64.6670 O.2   369  LEU369     -0.2733
     75  CB        87.8540  118.8470   64.4970 C.3   369  LEU369      0.0284
     76  CG        88.3590  118.2640   63.1800 C.3   369  LEU369      0.0019
     77  CD1       89.1130  117.0000   63.4850 C.3   369  LEU369      0.0001
     78  CD2       87.2320  117.9570   62.2420 C.3   369  LEU369      0.0001
     79  N         86.6400  121.5380   62.8990 N.am  370  PRO370     -0.2718
     80  CA        85.6690  122.5600   62.4850 C.3   370  PRO370      0.1520
     81  C         84.2180  122.0990   62.4840 C.2   370  PRO370      0.2440
     82  O         83.3670  122.8130   63.0280 O.2   370  PRO370     -0.2731
     83  CB        86.1560  122.9630   61.0820 C.3   370  PRO370      0.0310
     84  CG        87.1960  121.9470   60.7050 C.3   370  PRO370      0.0237
     85  CD        87.7890  121.4870   61.9890 C.3   370  PRO370      0.0939
     86  N         83.8580  120.9480   61.9040 N.am  371  PRO371     -0.2716
     87  CA        82.4380  120.5730   61.9410 C.3   371  PRO371      0.1536
     88  C         81.9690  120.1330   63.3110 C.2   371  PRO371      0.2599
     89  O         80.7600  120.1490   63.5650 O.2   371  PRO371     -0.2715
     90  CB        82.3480  119.4310   60.9320 C.3   371  PRO371      0.0310
     91  CG        83.6430  118.8170   61.0060 C.3   371  PRO371      0.0237
     92  CD        84.6310  119.9140   61.1990 C.3   371  PRO371      0.0939
     93  N         82.8780  119.7280   64.1910 N.am  372  SER372     -0.1950
     94  CA        82.4920  119.2520   65.5100 C.3   372  SER372      0.1924
     95  C         81.7850  120.3360   66.3070 C.2   372  SER372      0.2314
     96  O         82.1700  121.5070   66.2720 O.2   372  SER372     -0.2863
     97  CB        83.7210  118.7760   66.2730 C.3   372  SER372      0.2116
     98  OG        83.3860  118.4340   67.6010 O.3   372  SER372     -0.2180
     99  N         79.1660  108.7550   68.0260 N.3   442  LEU442     -0.1245
    100  CA        78.1690  108.7500   66.9530 C.3   442  LEU442      0.1561
    101  C         77.1320  109.8560   67.0970 C.2   442  LEU442      0.2260
    102  O         76.9040  110.5780   66.1170 O.2   442  LEU442     -0.2867
    103  CB        77.5020  107.3700   66.8830 C.3   442  LEU442      0.0270
    104  CG        78.4530  106.2340   66.5430 C.3   442  LEU442      0.0019
    105  CD1       77.7380  104.9080   66.6390 C.3   442  LEU442      0.0001
    106  CD2       79.0160  106.4460   65.1550 C.3   442  LEU442      0.0001
    107  N         78.9350  113.2170   66.4480 N.3   445  LEU445     -0.1231
    108  CA        79.1550  113.5040   65.0400 C.3   445  LEU445      0.1693
    109  C         77.8540  113.7820   64.3060 C.2   445  LEU445      0.2591
    110  O         77.8520  114.5520   63.3420 O.2   445  LEU445     -0.2718
    111  CB        79.8890  112.3500   64.3660 C.3   445  LEU445      0.0284
    112  CG        81.2770  112.0740   64.9290 C.3   445  LEU445      0.0019
    113  CD1       81.9060  110.9110   64.1970 C.3   445  LEU445      0.0001
    114  CD2       82.1420  113.3090   64.8330 C.3   445  LEU445      0.0001
    115  N         76.7450  113.1680   64.7220 N.am  446  LEU446     -0.1980
    116  CA        75.4900  113.4460   64.0340 C.3   446  LEU446      0.1596
    117  C         74.9920  114.8480   64.3470 C.2   446  LEU446      0.2287
    118  O         74.5260  115.5590   63.4520 O.2   446  LEU446     -0.2864
    119  CB        74.4360  112.4090   64.3960 C.3   446  LEU446      0.0297
    120  CG        74.7900  111.0040   63.9260 C.3   446  LEU446      0.0022
    121  CD1       73.7060  110.0180   64.3110 C.3   446  LEU446      0.0001
    122  CD2       75.0430  110.9910   62.4340 C.3   446  LEU446      0.0001
    123  N         76.6230  117.3040   64.6150 N.3   448  SER448     -0.1202
    124  CA        77.3550  118.1580   63.7000 C.3   448  SER448      0.2020
    125  C         76.6710  118.2870   62.3570 C.2   448  SER448      0.2618
    126  O         77.2700  118.8630   61.4510 O.2   448  SER448     -0.2717
    127  CB        78.7800  117.6490   63.5070 C.3   448  SER448      0.2103
    128  OG        79.5250  117.7650   64.7040 O.3   448  SER448     -0.2182
    129  N         75.5100  117.6610   62.1660 N.am  449  LEU449     -0.1979
    130  CA        74.6710  117.8780   60.9910 C.3   449  LEU449      0.1596
    131  C         73.5330  118.8490   61.2760 C.2   449  LEU449      0.2287
    132  O         73.3990  119.8660   60.5940 O.2   449  LEU449     -0.2864
    133  CB        74.1180  116.5530   60.4690 C.3   449  LEU449      0.0297
    134  CG        75.1820  115.6350   59.8880 C.3   449  LEU449      0.0022
    135  CD1       74.5840  114.3000   59.5270 C.3   449  LEU449      0.0001
    136  CD2       75.8020  116.2930   58.6770 C.3   449  LEU449      0.0001
@<TRIPOS>BOND
     1   136   134    1
     2   135   134    1
     3   134   133    1
     4   133   130    1
     5   132   131    2
     6    84    83    1
     7    84    85    1
     8    90    91    1
     9    90    87    1
    10   130   131    1
    11   130   129    1
    12    91    92    1
    13    83    80    1
    14    92    86    1
    15   126   125    2
    16    86    87    1
    17    86    81   am
    18    87    88    1
    19    85    79    1
    20   129   125   am
    21    78    76    1
    22   125   124    1
    23   122   120    1
    24    81    80    1
    25    81    82    2
    26    80    79    1
    27    79    73   am
    28    76    77    1
    29    76    75    1
    30    88    89    2
    31    88    93   am
    32   110   109    2
    33   118   117    2
    34   127   124    1
    35   127   128    1
    36   124   123    1
    37    47    45    1
    38   120   121    1
    39   120   119    1
    40   116   117    1
    41   116   119    1
    42   116   115    1
    43    73    74    2
    44    73    72    1
    45    93    94    1
    46   113   112    1
    47   109   115   am
    48   109   108    1
    49    62    61    1
    50   111   112    1
    51   111   108    1
    52    75    72    1
    53    72    71    1
    54   114   112    1
    55   108   107    1
    56   106   104    1
    57    45    46    1
    58    45    44    1
    59    25    22    1
    60    54    53    1
    61     5     6    1
    62     5     2    1
    63    94    97    1
    64    94    95    1
    65    63    61    1
    66     4     3    2
    67    61    60    1
    68     6     7    1
    69    14    13    1
    70    22    21    1
    71    22    23    1
    72   102   101    2
    73    55    53    1
    74    96    95    2
    75    97    98    1
    76     3     2    1
    77     3     8   am
    78    60    57    1
    79    44    41    1
    80    53    52    1
    81     2     1    1
    82   104   105    1
    83   104   103    1
    84    13    12    1
    85    13    15    1
    86     9     8    1
    87     9    12    1
    88     9    10    1
    89    21    18   am
    90    52    49    1
    91    24    23    2
    92    20    17    1
    93   103   100    1
    94   100   101    1
    95   100    99    1
    96    49    48    1
    97    49    50    1
    98    23    26   am
    99     7     1    1
   100    48    42   am
   101    11    10    2
   102    39    37   ar
   103    39    38   ar
   104    37    35   ar
   105    18    17    1
   106    18    19    2
   107    42    41    1
   108    42    43    2
   109    57    58    1
   110    57    56    1
   111    41    40    1
   112    59    58    2
   113    38    36   ar
   114    51    50    2
   115    58    64   am
   116    70    68    1
   117    17    16    1
   118    35    34   ar
   119    35    33   ar
   120    26    27    1
   121    64    65    1
   122    34    32   ar
   123    36    33   ar
   124    33    31   ar
   125    65    68    1
   126    65    66    1
   127    27    28    1
   128    27    30    1
   129    68    69    1
   130    32    31   ar
   131    31    30    1
   132    28    29    2
   133    66    67    2
