@<TRIPOS>MOLECULE
tmp/5lnrD00.pdb
 107 98 0 0 0
SMALL
GASTEIGER

@<TRIPOS>ATOM
      1  N         14.1080  -30.2060  -59.8370 N.3    79  ILE79      -0.1245
      2  CA        14.2580  -30.4320  -58.4040 C.3    79  ILE79       0.1561
      3  C         13.1070  -31.2820  -57.9030 C.2    79  ILE79       0.2260
      4  O         11.9300  -30.9590  -58.1220 O.2    79  ILE79      -0.2867
      5  CB        14.3390  -29.0970  -57.6470 C.3    79  ILE79       0.0252
      6  CG1       15.6890  -28.4110  -57.9040 C.3    79  ILE79       0.0019
      7  CG2       14.1080  -29.3170  -56.1380 C.3    79  ILE79       0.0019
      8  CD1       15.7520  -26.9340  -57.4570 C.3    79  ILE79       0.0001
      9  N         17.7350  -25.9650  -60.3970 N.3   100  GLU100     -0.1245
     10  CA        16.7610  -24.8890  -60.2460 C.3   100  GLU100      0.1567
     11  C         16.5760  -24.0700  -61.5160 C.2   100  GLU100      0.2260
     12  O         15.7080  -23.1830  -61.5410 O.2   100  GLU100     -0.2867
     13  CB        17.2030  -23.9590  -59.1150 C.3   100  GLU100      0.0388
     14  CG        18.4270  -23.1050  -59.4470 C.3   100  GLU100      0.1160
     15  CD        19.7490  -23.8510  -59.3670 C.2   100  GLU100      0.3649
     16  OE1       19.7730  -25.0430  -58.9770 O.co2 100  GLU100     -0.2457
     17  OE2       20.7790  -23.2260  -59.7010 O.co2 100  GLU100     -0.2457
     18  N         10.7850  -25.9880  -60.9470 N.3   104  LEU104     -0.1245
     19  CA        10.6710  -26.7530  -59.7120 C.3   104  LEU104      0.1561
     20  C          9.5200  -27.7520  -59.8030 C.2   104  LEU104      0.2260
     21  O          8.3980  -27.3890  -60.1710 O.2   104  LEU104     -0.2867
     22  CB        10.3930  -25.7440  -58.5930 C.3   104  LEU104      0.0270
     23  CG        10.3500  -26.1300  -57.1230 C.3   104  LEU104      0.0019
     24  CD1       11.7090  -26.6350  -56.6770 C.3   104  LEU104      0.0001
     25  CD2        9.9330  -24.9140  -56.3030 C.3   104  LEU104      0.0001
     26  N          8.1310  -28.5130  -54.2710 N.3   107  GLU107     -0.1231
     27  CA         8.4740  -27.2980  -53.5430 C.3   107  GLU107      0.1699
     28  C          9.1640  -27.5870  -52.2170 C.2   107  GLU107      0.2592
     29  O          9.8570  -26.7090  -51.6920 O.2   107  GLU107     -0.2718
     30  CB         7.2060  -26.4700  -53.3040 C.3   107  GLU107      0.0402
     31  CG         7.4460  -25.0560  -52.7960 C.3   107  GLU107      0.1161
     32  CD         6.1560  -24.2620  -52.7170 C.2   107  GLU107      0.3649
     33  OE1        5.6970  -23.7720  -53.7710 O.co2 107  GLU107     -0.2457
     34  OE2        5.5890  -24.1490  -51.6080 O.co2 107  GLU107     -0.2457
     35  N          9.0040  -28.7940  -51.6660 N.am  108  ASP108     -0.1974
     36  CA         9.4430  -29.0720  -50.3060 C.3   108  ASP108      0.1709
     37  C         10.5920  -30.0660  -50.1890 C.2   108  ASP108      0.2293
     38  O         11.2270  -30.1070  -49.1310 O.2   108  ASP108     -0.2864
     39  CB         8.2700  -29.5720  -49.4500 C.3   108  ASP108      0.1436
     40  CG         7.2490  -28.4780  -49.1690 C.2   108  ASP108      0.3671
     41  OD1        7.6430  -27.2910  -49.0890 O.co2 108  ASP108     -0.2456
     42  OD2        6.0530  -28.7960  -49.0300 O.co2 108  ASP108     -0.2456
     43  N         14.0070  -32.2730  -52.1950 N.3   110  HIS110     -0.1241
     44  CA        14.8730  -32.6290  -53.3080 C.3   110  HIS110      0.1621
     45  C         14.8670  -34.1500  -53.5060 C.2   110  HIS110      0.2264
     46  O         14.2960  -34.9050  -52.7130 O.2   110  HIS110     -0.2867
     47  CB        16.3050  -32.1390  -53.0590 C.3   110  HIS110      0.0745
     48  CG        16.4870  -30.6620  -53.2320 C.ar  110  HIS110      0.0817
     49  ND1       15.8350  -29.7300  -52.4500 N.ar  110  HIS110     -0.2268
     50  CD2       17.2700  -29.9560  -54.0840 C.ar  110  HIS110      0.1154
     51  CE1       16.1990  -28.5130  -52.8240 C.ar  110  HIS110      0.1986
     52  NE2       17.0660  -28.6220  -53.8170 N.ar  110  HIS110     -0.2212
     53  N         23.0620  -27.3180  -56.7890 N.3   123  GLY123     -0.1225
     54  CA        23.4310  -25.9440  -56.5250 C.3   123  GLY123      0.1811
     55  C         23.3370  -25.5680  -55.0520 C.2   123  GLY123      0.2280
     56  O         22.7860  -26.2930  -54.2310 O.2   123  GLY123     -0.2866
     57  N         23.5330  -21.6830  -52.3850 N.3   125  ARG125     -0.1245
     58  CA        23.7830  -20.2620  -52.1860 C.3   125  ARG125      0.1563
     59  C         24.5120  -19.9750  -50.8880 C.2   125  ARG125      0.2260
     60  O         24.9380  -18.8310  -50.6700 O.2   125  ARG125     -0.2867
     61  CB        22.4600  -19.4700  -52.2240 C.3   125  ARG125      0.0307
     62  CG        21.7660  -19.5680  -53.5690 C.3   125  ARG125      0.0489
     63  CD        20.3300  -19.0660  -53.5420 C.3   125  ARG125      0.2205
     64  NE        19.4590  -19.9400  -52.7520 N.pl3 125  ARG125     -0.0865
     65  CZ        18.1320  -19.8770  -52.7740 C.cat 125  ARG125      0.5346
     66  NH1       17.5240  -18.9880  -53.5540 N.pl3 125  ARG125      0.1354
     67  NH2       17.4100  -20.6980  -52.0200 N.pl3 125  ARG125      0.1354
     68  N         22.7900  -24.8060  -47.4490 N.3   129  GLU129     -0.1245
     69  CA        22.2800  -25.4900  -48.6350 C.3   129  GLU129      0.1567
     70  C         23.2830  -26.5150  -49.1560 C.2   129  GLU129      0.2260
     71  O         22.9020  -27.6390  -49.5000 O.2   129  GLU129     -0.2867
     72  CB        21.9110  -24.4800  -49.7220 C.3   129  GLU129      0.0388
     73  CG        20.6170  -23.7460  -49.4280 C.3   129  GLU129      0.1160
     74  CD        20.2170  -22.7580  -50.5100 C.2   129  GLU129      0.3649
     75  OE1       21.0310  -22.4720  -51.4160 O.co2 129  GLU129     -0.2457
     76  OE2       19.0710  -22.2600  -50.4470 O.co2 129  GLU129     -0.2457
     77  N         23.1890  -29.6080  -46.9030 N.3   132  ARG132     -0.1231
     78  CA        21.9540  -30.3710  -47.0420 C.3   132  ARG132      0.1694
     79  C         21.9190  -31.1580  -48.3510 C.2   132  ARG132      0.2591
     80  O         21.4900  -32.3220  -48.3660 O.2   132  ARG132     -0.2718
     81  CB        20.7320  -29.4550  -46.9170 C.3   132  ARG132      0.0321
     82  CG        20.4720  -28.9910  -45.4820 C.3   132  ARG132      0.0489
     83  CD        19.0870  -28.3360  -45.3200 C.3   132  ARG132      0.2205
     84  NE        18.9740  -27.0940  -46.0940 N.pl3 132  ARG132     -0.0865
     85  CZ        19.3410  -25.8930  -45.6580 C.cat 132  ARG132      0.5346
     86  NH1       19.8580  -25.7480  -44.4400 N.pl3 132  ARG132      0.1354
     87  NH2       19.1830  -24.8310  -46.4430 N.pl3 132  ARG132      0.1354
     88  N         22.3560  -30.5470  -49.4600 N.am  133  ARG133     -0.1980
     89  CA        22.4030  -31.2820  -50.7240 C.3   133  ARG133      0.1597
     90  C         23.3670  -32.4600  -50.6340 C.2   133  ARG133      0.2287
     91  O         23.0720  -33.5550  -51.1370 O.2   133  ARG133     -0.2864
     92  CB        22.8070  -30.3670  -51.8890 C.3   133  ARG133      0.0334
     93  CG        21.9030  -29.1360  -52.1270 C.3   133  ARG133      0.0492
     94  CD        20.4960  -29.5110  -52.5980 C.3   133  ARG133      0.2205
     95  NE        19.5980  -29.8640  -51.4920 N.pl3 133  ARG133     -0.0865
     96  CZ        19.0620  -28.9900  -50.6460 C.cat 133  ARG133      0.5346
     97  NH1       19.3520  -27.6930  -50.7420 N.pl3 133  ARG133      0.1354
     98  NH2       18.2440  -29.4170  -49.6860 N.pl3 133  ARG133      0.1354
     99  N         24.5310  -21.5080  -57.3060 N.3   144  LYS144     -0.1245
    100  CA        23.3600  -21.2180  -58.1770 C.3   144  LYS144      0.1561
    101  C         23.6710  -20.0160  -59.0270 C.2   144  LYS144      0.2260
    102  O         23.2740  -19.9540  -60.2110 O.2   144  LYS144     -0.2867
    103  CB        22.1030  -20.9510  -57.3540 C.3   144  LYS144      0.0271
    104  CG        21.7140  -22.1790  -56.5340 C.3   144  LYS144      0.0035
    105  CD        20.3050  -22.0600  -55.9560 C.3   144  LYS144      0.0206
    106  CE        20.0750  -23.1080  -54.8730 C.3   144  LYS144      0.1093
    107  NZ        18.6370  -23.2720  -54.7290 N.3   144  LYS144     -0.1314
@<TRIPOS>BOND
     1    12    11    2
     2    11    10    1
     3    18    19    1
     4     9    10    1
     5    10    13    1
     6   102   101    2
     7    21    20    2
     8     1     2    1
     9    20    19    1
    10    19    22    1
    11    17    15   ar
    12    14    15    1
    13    14    13    1
    14    15    16   ar
    15   101   100    1
    16    22    23    1
    17     2     3    1
    18     2     5    1
    19   100   103    1
    20   100    99    1
    21     4     3    2
    22     6     5    1
    23     6     8    1
    24     5     7    1
    25   103   104    1
    26    23    24    1
    27    23    25    1
    28    53    54    1
    29   104   105    1
    30    54    55    1
    31   105   106    1
    32    55    56    2
    33   106   107    1
    34    26    27    1
    35    50    52   ar
    36    50    48   ar
    37    52    51   ar
    38    33    32   ar
    39    62    63    1
    40    62    61    1
    41    66    65    1
    42    27    30    1
    43    27    28    1
    44    63    64    1
    45    45    44    1
    46    45    46    2
    47    44    47    1
    48    44    43    1
    49    30    31    1
    50    48    47    1
    51    48    49   ar
    52    51    49   ar
    53    31    32    1
    54    65    64    2
    55    65    67    1
    56    32    34   ar
    57    94    93    1
    58    94    95    1
    59    57    58    1
    60    61    58    1
    61    28    29    2
    62    28    35   am
    63    58    59    1
    64    93    92    1
    65    92    89    1
    66    35    36    1
    67    95    96    2
    68    75    74   ar
    69    91    90    2
    70    59    60    2
    71    97    96    1
    72    89    90    1
    73    89    88    1
    74    96    98    1
    75    74    76   ar
    76    74    73    1
    77    36    37    1
    78    36    39    1
    79    37    38    2
    80    72    73    1
    81    72    69    1
    82    71    70    2
    83    88    79   am
    84    39    40    1
    85    40    41   ar
    86    40    42   ar
    87    70    69    1
    88    69    68    1
    89    80    79    2
    90    79    78    1
    91    78    81    1
    92    78    77    1
    93    81    82    1
    94    87    85    1
    95    84    85    2
    96    84    83    1
    97    85    86    1
    98    82    83    1
