@<TRIPOS>MOLECULE
tmp/5lnsA00.pdb
 155 144 0 0 0
SMALL
GASTEIGER

@<TRIPOS>ATOM
      1  N         13.9650  -34.5420   -6.2670 N.3    20  ASP20      -0.1239
      2  CA        14.7880  -33.4450   -5.7760 C.3    20  ASP20       0.1674
      3  C         14.8200  -33.4790   -4.2610 C.2    20  ASP20       0.2266
      4  O         13.7730  -33.6150   -3.6230 O.2    20  ASP20      -0.2867
      5  CB        14.2200  -32.1040   -6.2270 C.3    20  ASP20       0.1410
      6  CG        14.3490  -31.8790   -7.7120 C.2    20  ASP20       0.3668
      7  OD1       14.5590  -32.8520   -8.4530 O.co2  20  ASP20      -0.2456
      8  OD2       14.1960  -30.7140   -8.1350 O.co2  20  ASP20      -0.2456
      9  N         17.9790  -35.9890   -6.8230 N.3    39  MET39      -0.1245
     10  CA        18.5310  -34.7850   -7.4160 C.3    39  MET39       0.1570
     11  C         18.8820  -33.8560   -6.2630 C.2    39  MET39       0.2261
     12  O         17.9870  -33.2990   -5.6190 O.2    39  MET39      -0.2867
     13  CB        17.5140  -34.1380   -8.3530 C.3    39  MET39       0.0387
     14  CG        17.9460  -32.7730   -8.8530 C.3    39  MET39       0.0595
     15  SD        19.2710  -32.9610  -10.0500 S.3    39  MET39      -0.1393
     16  CE        18.3780  -33.7330  -11.3950 C.3    39  MET39       0.0692
     17  N         12.5520  -26.3450   -7.4440 N.3    45  PRO45      -0.2116
     18  CA        12.0640  -25.3430   -8.4130 C.3    45  PRO45       0.1372
     19  C         10.9780  -24.4110   -7.8920 C.2    45  PRO45       0.2244
     20  O         11.0070  -23.2110   -8.2060 O.2    45  PRO45      -0.2868
     21  CB        11.5470  -26.2190   -9.5680 C.3    45  PRO45       0.0268
     22  CG        12.4430  -27.4110   -9.5400 C.3    45  PRO45       0.0207
     23  CD        12.6990  -27.6800   -8.0620 C.3    45  PRO45       0.0892
     24  N         22.4310  -30.3310  -10.3830 N.3    77  LYS77      -0.1245
     25  CA        22.1610  -29.4190  -11.4860 C.3    77  LYS77       0.1561
     26  C         23.3510  -28.5130  -11.7460 C.2    77  LYS77       0.2260
     27  O         24.0450  -28.0830  -10.8150 O.2    77  LYS77      -0.2867
     28  CB        20.9270  -28.5600  -11.2030 C.3    77  LYS77       0.0271
     29  CG        19.6210  -29.3310  -11.1320 C.3    77  LYS77       0.0035
     30  CD        18.4960  -28.4050  -10.6780 C.3    77  LYS77       0.0206
     31  CE        17.1270  -29.0410  -10.8950 C.3    77  LYS77       0.1093
     32  NZ        16.8890  -29.3840  -12.3090 N.3    77  LYS77      -0.1314
     33  N         22.3970  -32.7300  -14.3360 N.3    98  ASP98      -0.1239
     34  CA        21.2370  -32.1950  -15.0320 C.3    98  ASP98       0.1674
     35  C         21.6010  -30.7750  -15.4460 C.2    98  ASP98       0.2266
     36  O         21.7120  -29.8860  -14.5970 O.2    98  ASP98      -0.2867
     37  CB        20.0100  -32.2260  -14.1170 C.3    98  ASP98       0.1410
     38  CG        18.7140  -31.8230  -14.8340 C.2    98  ASP98       0.3668
     39  OD1       18.7770  -31.1560  -15.8770 O.co2  98  ASP98      -0.2456
     40  OD2       17.6230  -32.1680  -14.3420 O.co2  98  ASP98      -0.2456
     41  N         20.3540  -27.7470  -16.3070 N.3   100  SER100     -0.1202
     42  CA        18.9580  -27.4940  -15.9880 C.3   100  SER100      0.2020
     43  C         18.5580  -26.0460  -16.2290 C.2   100  SER100      0.2619
     44  O         19.2170  -25.1160  -15.7470 O.2   100  SER100     -0.2717
     45  CB        18.6750  -27.8640  -14.5310 C.3   100  SER100      0.2103
     46  OG        17.3670  -27.4630  -14.1990 O.3   100  SER100     -0.2182
     47  N         17.4360  -25.8730  -16.9220 N.am  101  GLU101     -0.1965
     48  CA        16.8030  -24.5820  -17.1280 C.3   101  GLU101      0.1733
     49  C         16.1640  -24.0380  -15.8620 C.2   101  GLU101      0.2616
     50  O         15.7550  -22.8760  -15.8490 O.2   101  GLU101     -0.2715
     51  CB        15.7520  -24.7060  -18.2380 C.3   101  GLU101      0.0429
     52  CG        14.4880  -25.4540  -17.8420 C.3   101  GLU101      0.1163
     53  CD        14.6960  -26.9610  -17.7110 C.2   101  GLU101      0.3649
     54  OE1       15.7300  -27.5030  -18.1990 O.co2 101  GLU101     -0.2457
     55  OE2       13.8090  -27.5980  -17.1130 O.co2 101  GLU101     -0.2457
     56  N         16.0590  -24.8460  -14.8040 N.am  102  VAL102     -0.1977
     57  CA        15.5160  -24.3320  -13.5540 C.3   102  VAL102      0.1596
     58  C         16.5230  -23.4120  -12.8780 C.2   102  VAL102      0.2287
     59  O         16.1370  -22.4640  -12.1900 O.2   102  VAL102     -0.2864
     60  CB        15.0990  -25.4970  -12.6400 C.3   102  VAL102      0.0276
     61  CG1       14.5920  -24.9750  -11.3160 C.3   102  VAL102      0.0022
     62  CG2       14.0250  -26.3460  -13.3300 C.3   102  VAL102      0.0022
     63  N         14.6890  -35.3150  -20.3570 N.3   143  ARG143     -0.1245
     64  CA        13.4410  -35.1160  -19.6500 C.3   143  ARG143      0.1563
     65  C         12.7010  -33.9650  -20.3040 C.2   143  ARG143      0.2260
     66  O         13.3030  -33.1170  -20.9670 O.2   143  ARG143     -0.2867
     67  CB        13.6780  -34.8050  -18.1690 C.3   143  ARG143      0.0307
     68  CG        14.5740  -33.5820  -17.9530 C.3   143  ARG143      0.0489
     69  CD        14.6520  -33.1820  -16.4440 C.3   143  ARG143      0.2205
     70  NE        15.6120  -32.0960  -16.2530 N.pl3 143  ARG143     -0.0865
     71  CZ        15.4010  -30.8370  -16.6290 C.cat 143  ARG143      0.5346
     72  NH1       14.2460  -30.4780  -17.1980 N.pl3 143  ARG143      0.1354
     73  NH2       16.3560  -29.9370  -16.4530 N.pl3 143  ARG143      0.1354
     74  N         10.8380  -30.3810  -20.0530 N.3   145  LYS145     -0.1245
     75  CA        10.9760  -29.2350  -19.1680 C.3   145  LYS145      0.1561
     76  C          9.7230  -29.0400  -18.3360 C.2   145  LYS145      0.2260
     77  O          9.8090  -28.7180  -17.1480 O.2   145  LYS145     -0.2867
     78  CB        11.2670  -27.9730  -19.9880 C.3   145  LYS145      0.0271
     79  CG        12.6450  -27.9960  -20.6220 C.3   145  LYS145      0.0035
     80  CD        12.9230  -26.7450  -21.4310 C.3   145  LYS145      0.0206
     81  CE        14.3710  -26.7130  -21.8750 C.3   145  LYS145      0.1093
     82  NZ        14.6310  -25.5280  -22.7490 N.3   145  LYS145     -0.1314
     83  N          8.4700  -26.0570  -14.4650 N.3   148  ALA148     -0.1231
     84  CA         9.0140  -26.5370  -13.1990 C.3   148  ALA148      0.1694
     85  C          8.5120  -25.7060  -12.0270 C.2   148  ALA148      0.2592
     86  O          8.4580  -24.4750  -12.0870 O.2   148  ALA148     -0.2718
     87  CB        10.5460  -26.5180  -13.2180 C.3   148  ALA148      0.0304
     88  N          8.1590  -26.3920  -10.9400 N.am  149  GLY149     -0.1957
     89  CA         7.8240  -25.7200   -9.7060 C.3   149  GLY149      0.1869
     90  C          6.3980  -25.2180   -9.5920 C.2   149  GLY149      0.2309
     91  O          6.0490  -24.6400   -8.5570 O.2   149  GLY149     -0.2863
     92  N          3.5700  -27.2600  -10.0010 N.3   151  GLY151     -0.1225
     93  CA         2.5850  -28.2820   -9.6900 C.3   151  GLY151      0.1811
     94  C          1.5350  -28.4800  -10.7650 C.2   151  GLY151      0.2280
     95  O          0.5300  -29.1630  -10.5270 O.2   151  GLY151     -0.2866
     96  N          9.0030  -34.5490  -16.6040 N.3   208  ALA208     -0.1231
     97  CA         9.4590  -33.6510  -15.5580 C.3   208  ALA208      0.1694
     98  C          8.7290  -32.3250  -15.6880 C.2   208  ALA208      0.2593
     99  O          8.4660  -31.8710  -16.7980 O.2   208  ALA208     -0.2718
    100  CB        10.9750  -33.4170  -15.6390 C.3   208  ALA208      0.0304
    101  N          8.4260  -31.7140  -14.5480 N.am  209  GLY209     -0.1942
    102  CA         7.8430  -30.3900  -14.5040 C.3   209  GLY209      0.2014
    103  C          6.3940  -30.4390  -14.0820 C.2   209  GLY209      0.2639
    104  O          5.5190  -30.8110  -14.8710 O.2   209  GLY209     -0.2714
    105  N          6.1270  -30.0860  -12.8310 N.am  210  GLY210     -0.1939
    106  CA         4.7620  -29.9790  -12.3570 C.3   210  GLY210      0.2014
    107  C          4.1140  -31.2740  -11.9170 C.2   210  GLY210      0.2638
    108  O          2.9310  -31.2540  -11.5520 O.2   210  GLY210     -0.2714
    109  N          4.8380  -32.3920  -11.9250 N.am  211  VAL211     -0.1977
    110  CA         4.2480  -33.6580  -11.4940 C.3   211  VAL211      0.1596
    111  C          3.9740  -33.5480  -10.0000 C.2   211  VAL211      0.2287
    112  O          4.9020  -33.4590   -9.1900 O.2   211  VAL211     -0.2864
    113  CB         5.1540  -34.8530  -11.8160 C.3   211  VAL211      0.0276
    114  CG1        4.5660  -36.1590  -11.2260 C.3   211  VAL211      0.0022
    115  CG2        5.3250  -34.9830  -13.3160 C.3   211  VAL211      0.0022
    116  N         10.6220  -37.2090  -13.0000 N.3   229  PHE229     -0.1227
    117  CA        11.2250  -36.3610  -11.9860 C.3   229  PHE229      0.1736
    118  C         10.1170  -35.7240  -11.1600 C.2   229  PHE229      0.2595
    119  O          9.0870  -35.3060  -11.6970 O.2   229  PHE229     -0.2718
    120  CB        12.0570  -35.2350  -12.6190 C.3   229  PHE229      0.0547
    121  CG        13.3570  -35.6800  -13.2250 C.ar  229  PHE229     -0.0202
    122  CD1       13.3870  -36.3170  -14.4600 C.ar  229  PHE229     -0.0042
    123  CD2       14.5560  -35.4280  -12.5720 C.ar  229  PHE229     -0.0042
    124  CE1       14.5990  -36.7180  -15.0240 C.ar  229  PHE229     -0.0003
    125  CE2       15.7670  -35.8200  -13.1270 C.ar  229  PHE229     -0.0003
    126  CZ        15.7890  -36.4610  -14.3520 C.ar  229  PHE229     -0.0000
    127  N         10.3360  -35.6250   -9.8570 N.am  230  VAL230     -0.1966
    128  CA         9.4750  -34.8170   -9.0040 C.3   230  VAL230      0.1727
    129  C         10.3880  -33.8970   -8.2150 C.2   230  VAL230      0.2617
    130  O         11.1740  -34.3590   -7.3750 O.2   230  VAL230     -0.2715
    131  CB         8.5920  -35.6520   -8.0670 C.3   230  VAL230      0.0290
    132  CG1        7.7610  -34.7200   -7.1870 C.3   230  VAL230      0.0023
    133  CG2        7.6700  -36.5580   -8.8730 C.3   230  VAL230      0.0023
    134  N         10.2930  -32.6030   -8.4870 N.am  231  GLY231     -0.1940
    135  CA        11.1660  -31.6440   -7.8510 C.3   231  GLY231      0.2014
    136  C         10.5490  -31.0160   -6.6300 C.2   231  GLY231      0.2640
    137  O         11.1290  -31.0290   -5.5420 O.2   231  GLY231     -0.2714
    138  N          9.3580  -30.4610   -6.7980 N.am  232  SER232     -0.1935
    139  CA         8.7140  -29.7090   -5.7350 C.3   232  SER232      0.2055
    140  C          7.5270  -30.4280   -5.1250 C.2   232  SER232      0.2643
    141  O          7.2350  -30.2290   -3.9470 O.2   232  SER232     -0.2714
    142  CB         8.2570  -28.3500   -6.2780 C.3   232  SER232      0.2130
    143  OG         9.2590  -27.7860   -7.1240 O.3   232  SER232     -0.2179
    144  N          6.8590  -31.2840   -5.8950 N.am  233  GLY233     -0.1954
    145  CA         5.5740  -31.8140   -5.4870 C.3   233  GLY233      0.1869
    146  C          5.6080  -32.6880   -4.2560 C.2   233  GLY233      0.2309
    147  O          4.5590  -32.9060   -3.6420 O.2   233  GLY233     -0.2863
    148  N          0.9750  -30.0110   -3.2470 N.3   271  MET271     -0.1245
    149  CA         1.5380  -28.6730   -3.3430 C.3   271  MET271      0.1570
    150  C          0.5260  -27.7440   -4.0080 C.2   271  MET271      0.2261
    151  O         -0.1970  -28.1380   -4.9290 O.2   271  MET271     -0.2867
    152  CB         2.8530  -28.6930   -4.1270 C.3   271  MET271      0.0387
    153  CG         2.6930  -28.9240   -5.6140 C.3   271  MET271      0.0595
    154  SD         4.2580  -28.7320   -6.4730 S.3   271  MET271     -0.1393
    155  CE         4.3820  -26.9430   -6.5800 C.3   271  MET271      0.0692
@<TRIPOS>BOND
     1    82    81    1
     2    81    80    1
     3    80    79    1
     4    66    65    2
     5    79    78    1
     6    63    64    1
     7    65    64    1
     8    74    75    1
     9    78    75    1
    10    64    67    1
    11    75    76    1
    12    76    77    2
    13    51    52    1
    14    51    48    1
    15    54    53   ar
    16    67    68    1
    17    68    69    1
    18    52    53    1
    19    53    55   ar
    20    72    71    1
    21    48    47    1
    22    48    49    1
    23    47    43   am
    24    99    98    2
    25    71    73    1
    26    71    70    2
    27    96    97    1
    28    69    70    1
    29    41    42    1
    30    43    42    1
    31    43    44    2
    32    42    45    1
    33    39    38   ar
    34    49    50    2
    35    49    56   am
    36    98    97    1
    37    98   101   am
    38   100    97    1
    39    35    34    1
    40    35    36    2
    41    34    33    1
    42    34    37    1
    43   124   122   ar
    44   124   126   ar
    45   104   103    2
    46    38    40   ar
    47    38    37    1
    48    56    57    1
    49   101   102    1
    50    45    46    1
    51   102   103    1
    52    83    84    1
    53   122   121   ar
    54   126   125   ar
    55   103   105   am
    56    57    58    1
    57    57    60    1
    58    62    60    1
    59   115   113    1
    60   121   120    1
    61   121   123   ar
    62    87    84    1
    63    84    85    1
    64   125   123   ar
    65   116   117    1
    66    58    59    2
    67   105   106    1
    68    60    61    1
    69   120   117    1
    70   106   107    1
    71    32    31    1
    72    86    85    2
    73    85    88   am
    74   117   118    1
    75   109   107   am
    76   109   110    1
    77   107   108    2
    78   113   110    1
    79   113   114    1
    80    26    25    1
    81    26    27    2
    82   119   118    2
    83   110   111    1
    84    25    28    1
    85    25    24    1
    86    16    15    1
    87    28    29    1
    88   118   127   am
    89    29    30    1
    90    88    89    1
    91    31    30    1
    92    94    95    2
    93    94    93    1
    94    15    14    1
    95    92    93    1
    96   111   112    2
    97   127   128    1
    98    89    90    1
    99    90    91    2
   100    21    22    1
   101    21    18    1
   102    22    23    1
   103   128   129    1
   104   128   131    1
   105   133   131    1
   106    14    13    1
   107   134   129   am
   108   134   135    1
   109     7     6   ar
   110    18    19    1
   111    18    17    1
   112    13    10    1
   113   129   130    2
   114    20    19    2
   115     8     6   ar
   116   131   132    1
   117    23    17    1
   118   135   136    1
   119     6     5    1
   120    10     9    1
   121    10    11    1
   122   143   142    1
   123   138   136   am
   124   138   139    1
   125   136   137    2
   126   155   154    1
   127   154   153    1
   128   142   139    1
   129     1     2    1
   130    11    12    2
   131     5     2    1
   132   144   145    1
   133   144   140   am
   134     2     3    1
   135   139   140    1
   136   153   152    1
   137   145   146    1
   138   140   141    2
   139   151   150    2
   140     3     4    2
   141   146   147    2
   142   152   149    1
   143   150   149    1
   144   149   148    1
