@<TRIPOS>MOLECULE
tmp/5lntB00.pdb
 137 126 0 0 0
SMALL
GASTEIGER

@<TRIPOS>ATOM
      1  N        -22.9230  -29.5750   -6.7250 N.3    20  ASP20      -0.1239
      2  CA       -21.5340  -29.7610   -6.3270 C.3    20  ASP20       0.1674
      3  C        -21.4580  -29.8620   -4.8140 C.2    20  ASP20       0.2266
      4  O        -22.0740  -29.0660   -4.1000 O.2    20  ASP20      -0.2867
      5  CB       -20.6570  -28.5990   -6.7990 C.3    20  ASP20       0.1410
      6  CG       -20.4490  -28.5770   -8.3070 C.2    20  ASP20       0.3668
      7  OD1      -21.1300  -29.3430   -9.0320 O.co2  20  ASP20      -0.2456
      8  OD2      -19.6060  -27.7680   -8.7640 O.co2  20  ASP20      -0.2456
      9  N        -22.0200  -33.9910   -7.1470 N.3    39  MET39      -0.1245
     10  CA       -20.7870  -33.8390   -7.9010 C.3    39  MET39       0.1570
     11  C        -19.6740  -33.5760   -6.8990 C.2    39  MET39       0.2261
     12  O        -19.6150  -32.4910   -6.3130 O.2    39  MET39      -0.2867
     13  CB       -20.9170  -32.6890   -8.8900 C.3    39  MET39       0.0387
     14  CG       -19.6280  -32.3300   -9.5740 C.3    39  MET39       0.0595
     15  SD       -19.2220  -33.5370  -10.8190 S.3    39  MET39      -0.1393
     16  CE       -20.5340  -33.2930  -12.0290 C.3    39  MET39       0.0692
     17  N        -16.7830  -24.1760   -7.5550 N.3    45  PRO45      -0.2116
     18  CA       -16.1830  -23.2880   -8.5700 C.3    45  PRO45       0.1372
     19  C        -15.9340  -21.8530   -8.1010 C.2    45  PRO45       0.2244
     20  O        -14.9360  -21.2470   -8.5160 O.2    45  PRO45      -0.2868
     21  CB       -17.2060  -23.3470   -9.7140 C.3    45  PRO45       0.0268
     22  CG       -17.8150  -24.7060   -9.5790 C.3    45  PRO45       0.0207
     23  CD       -17.9090  -24.9570   -8.0970 C.3    45  PRO45       0.0892
     24  N        -15.2680  -34.8190  -10.5580 N.3    77  LYS77      -0.1245
     25  CA       -14.5790  -34.1010  -11.6050 C.3    77  LYS77       0.1561
     26  C        -13.1780  -34.6450  -11.8170 C.2    77  LYS77       0.2260
     27  O        -12.4930  -35.0530  -10.8920 O.2    77  LYS77      -0.2867
     28  CB       -14.5400  -32.6080  -11.2630 C.3    77  LYS77       0.0271
     29  CG       -15.9060  -31.9190  -11.3860 C.3    77  LYS77       0.0035
     30  CD       -15.7650  -30.4030  -11.2140 C.3    77  LYS77       0.0206
     31  CE       -17.0750  -29.6300  -11.3990 C.3    77  LYS77       0.1093
     32  NZ       -17.4840  -29.4650  -12.7940 N.3    77  LYS77      -0.1314
     33  N        -17.0340  -36.2620  -14.4980 N.3    98  ASP98      -0.1239
     34  CA       -17.2070  -34.9920  -15.1950 C.3    98  ASP98       0.1674
     35  C        -15.8150  -34.4960  -15.5910 C.2    98  ASP98       0.2266
     36  O        -15.0670  -33.9700  -14.7620 O.2    98  ASP98      -0.2867
     37  CB       -17.9530  -33.9770  -14.3270 C.3    98  ASP98       0.1410
     38  CG       -18.2140  -32.6440  -15.0570 C.2    98  ASP98       0.3668
     39  OD1      -17.6360  -32.4020  -16.1440 O.co2  98  ASP98      -0.2456
     40  OD2      -18.9970  -31.8270  -14.5370 O.co2  98  ASP98      -0.2456
     41  N        -14.0010  -31.8370  -16.5170 N.3   100  SER100     -0.1217
     42  CA       -14.5210  -30.5090  -16.2360 C.3   100  SER100      0.1889
     43  C        -13.4760  -29.4190  -16.4260 C.2   100  SER100      0.2288
     44  O        -12.3570  -29.5030  -15.9030 O.2   100  SER100     -0.2866
     45  CB       -15.0610  -30.4390  -14.8120 C.3   100  SER100      0.2089
     46  OG       -15.2790  -29.0880  -14.4660 O.3   100  SER100     -0.2183
     47  N        -13.7380  -26.6320  -14.9860 N.3   102  VAL102     -0.1245
     48  CA       -13.4940  -25.8630  -13.7700 C.3   102  VAL102      0.1561
     49  C        -12.2500  -26.3720  -13.0510 C.2   102  VAL102      0.2260
     50  O        -11.6610  -25.6290  -12.2580 O.2   102  VAL102     -0.2867
     51  CB       -14.6970  -25.8330  -12.8020 C.3   102  VAL102      0.0252
     52  CG1      -16.0240  -25.7490  -13.5530 C.3   102  VAL102      0.0019
     53  CG2      -14.6610  -26.9910  -11.8150 C.3   102  VAL102      0.0019
     54  N        -23.0690  -30.8460  -20.3470 N.3   143  ARG143     -0.1245
     55  CA       -23.3270  -29.7430  -19.4470 C.3   143  ARG143      0.1563
     56  C        -23.0220  -28.4690  -20.2270 C.2   143  ARG143      0.2260
     57  O        -21.9100  -28.3000  -20.7350 O.2   143  ARG143     -0.2867
     58  CB       -22.4480  -29.9200  -18.2090 C.3   143  ARG143      0.0307
     59  CG       -22.1590  -28.7220  -17.4360 C.3   143  ARG143      0.0489
     60  CD       -21.4660  -29.1330  -16.1570 C.3   143  ARG143      0.2205
     61  NE       -20.2150  -29.8170  -16.4380 N.pl3 143  ARG143     -0.0865
     62  CZ       -19.1360  -29.2040  -16.9040 C.cat 143  ARG143      0.5346
     63  NH1      -19.1750  -27.9060  -17.1460 N.pl3 143  ARG143      0.1354
     64  NH2      -18.0310  -29.8910  -17.1480 N.pl3 143  ARG143      0.1354
     65  N        -18.5370  -20.4600  -14.3540 N.3   148  ALA148     -0.1231
     66  CA       -18.6960  -21.1180  -13.0730 C.3   148  ALA148      0.1694
     67  C        -18.1930  -20.1980  -11.9720 C.2   148  ALA148      0.2592
     68  O        -17.1620  -19.5340  -12.1210 O.2   148  ALA148     -0.2718
     69  CB       -17.9540  -22.4530  -13.0590 C.3   148  ALA148      0.0304
     70  N        -18.9570  -20.1230  -10.8860 N.am  149  GLY149     -0.1957
     71  CA       -18.5150  -19.4040   -9.7080 C.3   149  GLY149      0.1869
     72  C        -18.7030  -17.9040   -9.7230 C.2   149  GLY149      0.2309
     73  O        -18.0840  -17.2180   -8.9080 O.2   149  GLY149     -0.2863
     74  N        -22.1490  -16.5520  -10.1520 N.3   151  GLY151     -0.1225
     75  CA       -23.5350  -16.2510   -9.8610 C.3   151  GLY151      0.1811
     76  C        -24.2370  -15.4640  -10.9510 C.2   151  GLY151      0.2280
     77  O        -25.3330  -14.9380  -10.7460 O.2   151  GLY151     -0.2866
     78  N        -25.2850  -25.3740  -16.6720 N.3   208  ALA208     -0.1231
     79  CA       -24.3830  -25.1790  -15.5520 C.3   208  ALA208      0.1694
     80  C        -23.7230  -23.8210  -15.6870 C.2   208  ALA208      0.2593
     81  O        -23.4900  -23.3370  -16.7970 O.2   208  ALA208     -0.2718
     82  CB       -23.3040  -26.2630  -15.4770 C.3   208  ALA208      0.0304
     83  N        -23.4250  -23.2090  -14.5460 N.am  209  GLY209     -0.1942
     84  CA       -22.7090  -21.9530  -14.5530 C.3   209  GLY209      0.2014
     85  C        -23.5590  -20.7600  -14.1840 C.2   209  GLY209      0.2639
     86  O        -24.3660  -20.2780  -14.9830 O.2   209  GLY209     -0.2714
     87  N        -23.3790  -20.2650  -12.9690 N.am  210  GLY210     -0.1939
     88  CA       -24.0360  -19.0470  -12.5550 C.3   210  GLY210      0.2014
     89  C        -25.4580  -19.2020  -12.0680 C.2   210  GLY210      0.2638
     90  O        -26.0910  -18.1840  -11.7550 O.2   210  GLY210     -0.2714
     91  N        -25.9930  -20.4230  -12.0110 N.am  211  VAL211     -0.1977
     92  CA       -27.3570  -20.6210  -11.5210 C.3   211  VAL211      0.1596
     93  C        -27.3530  -20.3390  -10.0240 C.2   211  VAL211      0.2287
     94  O        -26.8150  -21.1230   -9.2390 O.2   211  VAL211     -0.2864
     95  CB       -27.8740  -22.0300  -11.8150 C.3   211  VAL211      0.0276
     96  CG1      -29.2670  -22.1880  -11.2620 C.3   211  VAL211      0.0022
     97  CG2      -27.8560  -22.2990  -13.3040 C.3   211  VAL211      0.0022
     98  N        -27.0110  -28.0080  -13.2570 N.3   229  PHE229     -0.1227
     99  CA       -25.9810  -28.1180  -12.2420 C.3   229  PHE229      0.1736
    100  C        -25.9850  -26.8520  -11.4150 C.2   229  PHE229      0.2595
    101  O        -26.2110  -25.7580  -11.9370 O.2   229  PHE229     -0.2718
    102  CB       -24.5940  -28.2880  -12.8600 C.3   229  PHE229      0.0547
    103  CG       -24.3360  -29.6410  -13.4170 C.ar  229  PHE229     -0.0202
    104  CD1      -24.7520  -29.9630  -14.6870 C.ar  229  PHE229     -0.0042
    105  CD2      -23.6620  -30.5870  -12.6740 C.ar  229  PHE229     -0.0042
    106  CE1      -24.5100  -31.2120  -15.2060 C.ar  229  PHE229     -0.0003
    107  CE2      -23.4200  -31.8300  -13.1860 C.ar  229  PHE229     -0.0003
    108  CZ       -23.8390  -32.1440  -14.4600 C.ar  229  PHE229     -0.0000
    109  N        -25.7290  -27.0020  -10.1270 N.am  230  VAL230     -0.1966
    110  CA       -25.4760  -25.8660   -9.2600 C.3   230  VAL230      0.1727
    111  C        -24.2040  -26.1800   -8.5000 C.2   230  VAL230      0.2617
    112  O        -24.1430  -27.1740   -7.7660 O.2   230  VAL230     -0.2715
    113  CB       -26.6380  -25.5770   -8.2970 C.3   230  VAL230      0.0290
    114  CG1      -26.2590  -24.4340   -7.3470 C.3   230  VAL230      0.0023
    115  CG2      -27.8930  -25.2240   -9.0780 C.3   230  VAL230      0.0023
    116  N        -23.1770  -25.3720   -8.7220 N.am  231  GLY231     -0.1940
    117  CA       -21.9180  -25.5750   -8.0520 C.3   231  GLY231      0.2014
    118  C        -21.7790  -24.6830   -6.8410 C.2   231  GLY231      0.2640
    119  O        -21.5600  -25.1640   -5.7280 O.2   231  GLY231     -0.2714
    120  N        -21.9330  -23.3770   -7.0480 N.am  232  SER232     -0.1935
    121  CA       -21.6970  -22.3820   -6.0140 C.3   232  SER232      0.2055
    122  C        -22.9690  -21.7860   -5.4250 C.2   232  SER232      0.2643
    123  O        -22.9750  -21.4220   -4.2470 O.2   232  SER232     -0.2714
    124  CB       -20.8250  -21.2480   -6.5750 C.3   232  SER232      0.2130
    125  OG       -19.7170  -21.7740   -7.3040 O.3   232  SER232     -0.2179
    126  N        -24.0490  -21.6970   -6.2050 N.am  233  GLY233     -0.1954
    127  CA       -25.2310  -20.9780   -5.7550 C.3   233  GLY233      0.1869
    128  C        -25.8340  -21.5090   -4.4680 C.2   233  GLY233      0.2309
    129  O        -26.4530  -20.7520   -3.7180 O.2   233  GLY233     -0.2863
    130  N        -25.4780  -16.0810   -3.3780 N.3   271  MET271     -0.1245
    131  CA       -24.0200  -16.0490   -3.3460 C.3   271  MET271      0.1570
    132  C        -23.4870  -14.6860   -3.7980 C.2   271  MET271      0.2261
    133  O        -24.1340  -13.9550   -4.5550 O.2   271  MET271     -0.2867
    134  CB       -23.4470  -17.1600   -4.2290 C.3   271  MET271      0.0387
    135  CG       -23.9160  -17.0850   -5.6830 C.3   271  MET271      0.0595
    136  SD       -23.0290  -18.2180   -6.7640 S.3   271  MET271     -0.1393
    137  CE       -21.4360  -17.3740   -6.8890 C.3   271  MET271      0.0692
@<TRIPOS>BOND
     1    57    56    2
     2    54    55    1
     3    56    55    1
     4    55    58    1
     5    58    59    1
     6    59    60    1
     7    64    62    1
     8    63    62    1
     9    62    61    2
    10    81    80    2
    11    78    79    1
    12    41    42    1
    13    61    60    1
    14    43    42    1
    15    43    44    2
    16    42    45    1
    17    39    38   ar
    18    80    79    1
    19    80    83   am
    20    35    34    1
    21    35    36    2
    22    79    82    1
    23   106   104   ar
    24   106   108   ar
    25    34    33    1
    26    34    37    1
    27    38    40   ar
    28    38    37    1
    29    47    48    1
    30    86    85    2
    31    45    46    1
    32   104   103   ar
    33    84    83    1
    34    84    85    1
    35   108   107   ar
    36    65    66    1
    37    85    87   am
    38    48    49    1
    39    48    51    1
    40    52    51    1
    41   103   102    1
    42   103   105   ar
    43    97    95    1
    44    98    99    1
    45   107   105   ar
    46    66    69    1
    47    66    67    1
    48    49    50    2
    49    87    88    1
    50   102    99    1
    51    51    53    1
    52    32    31    1
    53    88    89    1
    54    99   100    1
    55    68    67    2
    56    89    91   am
    57    89    90    2
    58    16    15    1
    59    91    92    1
    60    67    70   am
    61   101   100    2
    62    26    25    1
    63    26    27    2
    64    95    92    1
    65    95    96    1
    66    25    28    1
    67    25    24    1
    68    92    93    1
    69   100   109   am
    70    31    30    1
    71    29    28    1
    72    29    30    1
    73    76    77    2
    74    76    75    1
    75    70    71    1
    76    15    14    1
    77    74    75    1
    78   109   110    1
    79    93    94    2
    80    72    71    1
    81    72    73    2
    82    21    22    1
    83    21    18    1
    84    22    23    1
    85    14    13    1
    86   110   111    1
    87   110   113    1
    88   115   113    1
    89     7     6   ar
    90    13    10    1
    91     8     6   ar
    92   116   111   am
    93   116   117    1
    94    18    19    1
    95    18    17    1
    96    20    19    2
    97   111   112    2
    98     6     5    1
    99   113   114    1
   100    23    17    1
   101   117   118    1
   102    10     9    1
   103    10    11    1
   104   125   124    1
   105   120   118   am
   106   120   121    1
   107    11    12    2
   108   137   136    1
   109   118   119    2
   110     5     2    1
   111   136   135    1
   112     1     2    1
   113   124   121    1
   114     2     3    1
   115   126   127    1
   116   126   122   am
   117   121   122    1
   118   127   128    1
   119   135   134    1
   120   122   123    2
   121     3     4    2
   122   133   132    2
   123   128   129    2
   124   134   131    1
   125   132   131    1
   126   130   131    1
