@<TRIPOS>MOLECULE
tmp/5lnwC01.pdb
 102 95 0 0 0
SMALL
GASTEIGER

@<TRIPOS>ATOM
      1  N        -19.3200  -27.5240  -59.4200 N.3    80  ILE80      -0.1245
      2  CA       -19.4500  -27.7960  -57.9930 C.3    80  ILE80       0.1561
      3  C        -20.7560  -27.2110  -57.4670 C.2    80  ILE80       0.2260
      4  O        -21.0590  -26.0290  -57.6730 O.2    80  ILE80      -0.2867
      5  CB       -18.2240  -27.2410  -57.2550 C.3    80  ILE80       0.0252
      6  CG1      -16.9880  -28.1050  -57.5600 C.3    80  ILE80       0.0019
      7  CG2      -18.4940  -27.1240  -55.7430 C.3    80  ILE80       0.0019
      8  CD1      -15.7100  -27.5160  -56.9980 C.3    80  ILE80       0.0001
      9  N        -13.6120  -28.6200  -59.9490 N.3   101  GLU101     -0.1245
     10  CA       -13.0990  -27.2820  -59.6940 C.3   101  GLU101      0.1567
     11  C        -12.6840  -26.5430  -60.9700 C.2   101  GLU101      0.2260
     12  O        -12.6030  -25.3100  -60.9490 O.2   101  GLU101     -0.2867
     13  CB       -11.8790  -27.3930  -58.7620 C.3   101  GLU101      0.0388
     14  CG       -12.1090  -28.1780  -57.4320 C.3   101  GLU101      0.1160
     15  CD       -12.3160  -29.7020  -57.6050 C.2   101  GLU101      0.3649
     16  OE1      -11.9170  -30.2490  -58.6350 O.co2 101  GLU101     -0.2457
     17  OE2      -12.9000  -30.3550  -56.7130 O.co2 101  GLU101     -0.2457
     18  N        -17.3330  -22.4710  -60.4350 N.3   105  LEU105     -0.1245
     19  CA       -18.0700  -22.8590  -59.2440 C.3   105  LEU105      0.1561
     20  C        -19.5110  -22.3490  -59.3330 C.2   105  LEU105      0.2260
     21  O        -19.7480  -21.1870  -59.6790 O.2   105  LEU105     -0.2867
     22  CB       -17.3540  -22.2350  -58.0460 C.3   105  LEU105      0.0270
     23  CG       -17.6210  -22.5280  -56.5750 C.3   105  LEU105      0.0019
     24  CD1      -17.0750  -23.8810  -56.1820 C.3   105  LEU105      0.0001
     25  CD2      -16.9300  -21.4340  -55.7790 C.3   105  LEU105      0.0001
     26  N        -21.8210  -23.2250  -56.5840 N.3   107  ASP107     -0.1225
     27  CA       -22.1830  -23.0390  -55.1820 C.3   107  ASP107      0.1805
     28  C        -20.8910  -22.9040  -54.3920 C.2   107  ASP107      0.2598
     29  O        -20.1090  -23.8570  -54.3130 O.2   107  ASP107     -0.2718
     30  CB       -22.9990  -24.2280  -54.6700 C.3   107  ASP107      0.1424
     31  CG       -23.7470  -23.9170  -53.3820 C.2   107  ASP107      0.3668
     32  OD1      -23.1960  -23.1600  -52.5450 O.co2 107  ASP107     -0.2456
     33  OD2      -24.8870  -24.4240  -53.2140 O.co2 107  ASP107     -0.2456
     34  N        -20.6710  -21.7300  -53.7900 N.am  108  GLU108     -0.1965
     35  CA       -19.4120  -21.4890  -53.1010 C.3   108  GLU108      0.1733
     36  C        -19.3580  -22.1630  -51.7390 C.2   108  GLU108      0.2616
     37  O        -18.2680  -22.3730  -51.2050 O.2   108  GLU108     -0.2715
     38  CB       -19.1530  -19.9850  -52.9610 C.3   108  GLU108      0.0429
     39  CG       -17.7200  -19.6750  -52.5310 C.3   108  GLU108      0.1163
     40  CD       -17.4500  -18.1940  -52.3730 C.2   108  GLU108      0.3649
     41  OE1      -17.6850  -17.4370  -53.3410 O.co2 108  GLU108     -0.2457
     42  OE2      -17.0050  -17.7910  -51.2760 O.co2 108  GLU108     -0.2457
     43  N        -20.5100  -22.5290  -51.1840 N.am  109  ASP109     -0.1971
     44  CA       -20.5900  -23.0310  -49.8260 C.3   109  ASP109      0.1709
     45  C        -20.9280  -24.5100  -49.7230 C.2   109  ASP109      0.2293
     46  O        -20.6880  -25.0980  -48.6710 O.2   109  ASP109     -0.2864
     47  CB       -21.6170  -22.2140  -49.0220 C.3   109  ASP109      0.1436
     48  CG       -21.1490  -20.7840  -48.7870 C.2   109  ASP109      0.3671
     49  OD1      -19.9190  -20.5840  -48.6860 O.co2 109  ASP109     -0.2456
     50  OD2      -21.9950  -19.8690  -48.7140 O.co2 109  ASP109     -0.2456
     51  N        -21.2110  -28.4990  -51.7570 N.3   111  HIS111     -0.1241
     52  CA       -21.0720  -29.4070  -52.8930 C.3   111  HIS111      0.1621
     53  C        -22.3890  -30.1450  -53.1590 C.2   111  HIS111      0.2264
     54  O        -23.3420  -30.0690  -52.3840 O.2   111  HIS111     -0.2867
     55  CB       -19.9400  -30.4140  -52.6540 C.3   111  HIS111      0.0745
     56  CG       -18.5680  -29.8450  -52.8530 C.ar  111  HIS111      0.0817
     57  ND1      -18.0070  -28.9340  -51.9780 N.ar  111  HIS111     -0.2268
     58  CD2      -17.6400  -30.0610  -53.8180 C.ar  111  HIS111      0.1154
     59  CE1      -16.7910  -28.6150  -52.3970 C.ar  111  HIS111      0.1986
     60  NE2      -16.5440  -29.2830  -53.5130 N.ar  111  HIS111     -0.2212
     61  N         -7.3100  -31.1250  -52.0660 N.3   126  ARG126     -0.1245
     62  CA        -5.9310  -30.6930  -51.9260 C.3   126  ARG126      0.1563
     63  C         -5.3300  -31.1330  -50.6000 C.2   126  ARG126      0.2260
     64  O         -4.1290  -30.9400  -50.3880 O.2   126  ARG126     -0.2867
     65  CB        -5.8290  -29.1690  -52.0890 C.3   126  ARG126      0.0307
     66  CG        -6.2870  -28.6820  -53.4490 C.3   126  ARG126      0.0489
     67  CD        -6.0590  -27.1910  -53.6420 C.3   126  ARG126      0.2205
     68  NE        -6.0890  -26.8230  -55.0600 N.pl3 126  ARG126     -0.0865
     69  CZ        -7.2010  -26.5910  -55.7590 C.cat 126  ARG126      0.5346
     70  NH1       -7.1230  -26.2540  -57.0410 N.pl3 126  ARG126      0.1354
     71  NH2       -8.3930  -26.6940  -55.1840 N.pl3 126  ARG126      0.1354
     72  N        -10.2750  -32.2200  -46.9180 N.3   130  GLU130     -0.1245
     73  CA       -11.1520  -32.0290  -48.0650 C.3   130  GLU130      0.1567
     74  C        -11.5830  -33.3580  -48.6610 C.2   130  GLU130      0.2260
     75  O        -12.7480  -33.5160  -49.0430 O.2   130  GLU130     -0.2867
     76  CB       -10.4530  -31.1900  -49.1310 C.3   130  GLU130      0.0388
     77  CG       -10.6150  -29.6970  -48.9800 C.3   130  GLU130      0.1160
     78  CD        -9.8880  -28.9370  -50.0680 C.2   130  GLU130      0.3649
     79  OE1       -9.7080  -27.7090  -49.9170 O.co2 130  GLU130     -0.2457
     80  OE2       -9.4900  -29.5710  -51.0710 O.co2 130  GLU130     -0.2457
     81  N        -14.2260  -34.9830  -46.5370 N.3   133  ARG133     -0.1231
     82  CA       -15.5010  -34.2690  -46.6250 C.3   133  ARG133      0.1694
     83  C        -16.2320  -34.6200  -47.9090 C.2   133  ARG133      0.2591
     84  O        -17.4480  -34.8580  -47.8990 O.2   133  ARG133     -0.2718
     85  CB       -15.2980  -32.7510  -46.5140 C.3   133  ARG133      0.0321
     86  CG       -15.0410  -32.2940  -45.0860 C.3   133  ARG133      0.0489
     87  CD       -15.1780  -30.7850  -44.8930 C.3   133  ARG133      0.2205
     88  NE       -14.2260  -30.0140  -45.6870 N.pl3 133  ARG133     -0.0865
     89  CZ       -12.9430  -29.8240  -45.3720 C.cat 133  ARG133      0.5346
     90  NH1      -12.4250  -30.3650  -44.2760 N.pl3 133  ARG133      0.1354
     91  NH2      -12.1680  -29.0990  -46.1700 N.pl3 133  ARG133      0.1354
     92  N        -15.4970  -34.6680  -49.0260 N.am  134  ARG134     -0.1980
     93  CA       -16.0990  -35.0690  -50.2910 C.3   134  ARG134      0.1597
     94  C        -16.6260  -36.4990  -50.2100 C.2   134  ARG134      0.2287
     95  O        -17.7210  -36.7950  -50.7100 O.2   134  ARG134     -0.2864
     96  CB       -15.0660  -34.9480  -51.4120 C.3   134  ARG134      0.0334
     97  CG       -14.4480  -33.5600  -51.5810 C.3   134  ARG134      0.0492
     98  CD       -15.4430  -32.5220  -52.1440 C.3   134  ARG134      0.2205
     99  NE       -16.2910  -31.8940  -51.1310 N.pl3 134  ARG134     -0.0865
    100  CZ       -15.8650  -31.0090  -50.2250 C.cat 134  ARG134      0.5346
    101  NH1      -14.5930  -30.6200  -50.1960 N.pl3 134  ARG134      0.1354
    102  NH2      -16.7130  -30.4990  -49.3490 N.pl3 134  ARG134      0.1354
@<TRIPOS>BOND
     1    11    12    2
     2    11    10    1
     3    18    19    1
     4     9    10    1
     5    10    13    1
     6    21    20    2
     7     1     2    1
     8    20    19    1
     9    19    22    1
    10    13    14    1
    11    16    15   ar
    12    22    23    1
    13     2     3    1
    14     2     5    1
    15     4     3    2
    16    15    14    1
    17    15    17   ar
    18     6     5    1
    19     6     8    1
    20     5     7    1
    21    70    69    1
    22    26    27    1
    23    23    24    1
    24    23    25    1
    25    69    71    1
    26    69    68    2
    27    27    30    1
    28    27    28    1
    29    68    67    1
    30    30    31    1
    31    28    29    2
    32    28    34   am
    33    58    60   ar
    34    58    56   ar
    35    34    35    1
    36    67    66    1
    37    60    59   ar
    38    66    65    1
    39    31    33   ar
    40    31    32   ar
    41    41    40   ar
    42    53    52    1
    43    53    54    2
    44    35    38    1
    45    35    36    1
    46    38    39    1
    47    52    55    1
    48    52    51    1
    49    56    55    1
    50    56    57   ar
    51    39    40    1
    52    59    57   ar
    53    40    42   ar
    54    98    97    1
    55    98    99    1
    56    65    62    1
    57    61    62    1
    58    62    63    1
    59    36    37    2
    60    36    43   am
    61    97    96    1
    62    96    93    1
    63    43    44    1
    64    99   100    2
    65    80    78   ar
    66    95    94    2
    67    63    64    2
    68    93    94    1
    69    93    92    1
    70   100   101    1
    71   100   102    1
    72    78    79   ar
    73    78    77    1
    74    44    45    1
    75    44    47    1
    76    45    46    2
    77    76    77    1
    78    76    73    1
    79    75    74    2
    80    92    83   am
    81    47    48    1
    82    48    50   ar
    83    48    49   ar
    84    74    73    1
    85    73    72    1
    86    83    84    2
    87    83    82    1
    88    82    81    1
    89    82    85    1
    90    85    86    1
    91    91    89    1
    92    88    89    2
    93    88    87    1
    94    89    90    1
    95    86    87    1
