@<TRIPOS>MOLECULE
tmp/5lnwC00.pdb
 151 141 0 0 0
SMALL
GASTEIGER

@<TRIPOS>ATOM
      1  N         -8.9560  -36.5090  -70.9730 N.3    20  ASP20      -0.1239
      2  CA        -9.9570  -35.5530  -71.4360 C.3    20  ASP20       0.1674
      3  C        -10.0590  -35.6250  -72.9520 C.2    20  ASP20       0.2266
      4  O         -9.0390  -35.6190  -73.6480 O.2    20  ASP20      -0.2867
      5  CB        -9.5430  -34.1340  -71.0590 C.3    20  ASP20       0.1410
      6  CG        -9.7610  -33.8330  -69.6090 C.2    20  ASP20       0.3668
      7  OD1      -10.0070  -34.7790  -68.8340 O.co2  20  ASP20      -0.2456
      8  OD2       -9.6690  -32.6430  -69.2410 O.co2  20  ASP20      -0.2456
      9  N        -12.8280  -38.5210  -70.2930 N.3    39  MET39      -0.1245
     10  CA       -13.5380  -37.4150  -69.6570 C.3    39  MET39       0.1570
     11  C        -14.0640  -36.5210  -70.7690 C.2    39  MET39       0.2261
     12  O        -13.2890  -35.8030  -71.4100 O.2    39  MET39      -0.2867
     13  CB       -12.5990  -36.6350  -68.7430 C.3    39  MET39       0.0387
     14  CG       -13.2320  -35.4000  -68.1420 C.3    39  MET39       0.0595
     15  SD       -14.4500  -35.8350  -66.8970 S.3    39  MET39      -0.1393
     16  CE       -13.3900  -36.5660  -65.6580 C.3    39  MET39       0.0692
     17  N         -8.7550  -28.0580  -69.7550 N.3    45  PRO45      -0.2116
     18  CA        -8.3790  -27.0750  -68.7200 C.3    45  PRO45       0.1372
     19  C         -7.3850  -26.0100  -69.1740 C.2    45  PRO45       0.2244
     20  O         -7.4710  -24.8670  -68.7040 O.2    45  PRO45      -0.2868
     21  CB        -7.8140  -27.9520  -67.5940 C.3    45  PRO45       0.0268
     22  CG        -8.4840  -29.2660  -67.7760 C.3    45  PRO45       0.0207
     23  CD        -8.5990  -29.4420  -69.2630 C.3    45  PRO45       0.0892
     24  N        -18.0380  -33.6780  -66.5700 N.3    77  LYS77      -0.1245
     25  CA       -17.8970  -32.7450  -65.4610 C.3    77  LYS77       0.1561
     26  C        -19.1820  -31.9730  -65.1990 C.2    77  LYS77       0.2260
     27  O        -19.8980  -31.5880  -66.1270 O.2    77  LYS77      -0.2867
     28  CB       -16.7440  -31.7710  -65.7170 C.3    77  LYS77       0.0271
     29  CG       -15.3810  -32.4750  -65.8590 C.3    77  LYS77       0.0035
     30  CD       -14.2300  -31.4700  -65.8750 C.3    77  LYS77       0.0206
     31  CE       -12.8570  -32.1190  -66.1110 C.3    77  LYS77       0.1093
     32  NZ       -12.3200  -32.9690  -65.0280 N.3    77  LYS77      -0.1314
     33  N        -17.9110  -36.0450  -62.5740 N.3    98  ASP98      -0.1239
     34  CA       -16.7910  -35.4140  -61.9030 C.3    98  ASP98       0.1674
     35  C        -17.2420  -34.0260  -61.4550 C.2    98  ASP98       0.2266
     36  O        -17.4290  -33.1350  -62.2850 O.2    98  ASP98      -0.2867
     37  CB       -15.6180  -35.3350  -62.8710 C.3    98  ASP98       0.1410
     38  CG       -14.3740  -34.7740  -62.2280 C.2    98  ASP98       0.3668
     39  OD1      -14.3870  -34.5310  -61.0050 O.co2  98  ASP98      -0.2456
     40  OD2      -13.3790  -34.5870  -62.9460 O.co2  98  ASP98      -0.2456
     41  N        -16.3020  -30.8240  -60.5030 N.3   100  SER100     -0.1202
     42  CA       -14.9770  -30.3630  -60.8870 C.3   100  SER100      0.2020
     43  C        -14.7510  -28.8910  -60.5850 C.2   100  SER100      0.2619
     44  O        -15.5400  -28.0310  -60.9920 O.2   100  SER100     -0.2717
     45  CB       -14.7290  -30.5930  -62.3720 C.3   100  SER100      0.2103
     46  OG       -13.5210  -29.9480  -62.7320 O.3   100  SER100     -0.2182
     47  N        -13.6120  -28.6200  -59.9490 N.am  101  GLU101     -0.1965
     48  CA       -13.0990  -27.2820  -59.6940 C.3   101  GLU101      0.1733
     49  C        -12.6840  -26.5430  -60.9700 C.2   101  GLU101      0.2616
     50  O        -12.6030  -25.3100  -60.9490 O.2   101  GLU101     -0.2715
     51  CB       -11.8790  -27.3930  -58.7620 C.3   101  GLU101      0.0429
     52  CG       -12.1090  -28.1780  -57.4320 C.3   101  GLU101      0.1163
     53  CD       -12.3160  -29.7020  -57.6050 C.2   101  GLU101      0.3649
     54  OE1      -11.9170  -30.2490  -58.6350 O.co2 101  GLU101     -0.2457
     55  OE2      -12.9000  -30.3550  -56.7130 O.co2 101  GLU101     -0.2457
     56  N        -12.3960  -27.2410  -62.0720 N.am  102  VAL102     -0.1977
     57  CA       -11.9950  -26.5060  -63.2740 C.3   102  VAL102      0.1596
     58  C        -13.1730  -25.8480  -63.9740 C.2   102  VAL102      0.2287
     59  O        -12.9710  -24.9280  -64.7840 O.2   102  VAL102     -0.2864
     60  CB       -11.1410  -27.2980  -64.2830 C.3   102  VAL102      0.0276
     61  CG1      -10.0270  -28.0250  -63.5740 C.3   102  VAL102      0.0022
     62  CG2      -12.0110  -28.2380  -65.1450 C.3   102  VAL102      0.0022
     63  N         -9.8660  -37.1220  -56.8250 N.3   143  ARG143     -0.1245
     64  CA        -8.7690  -36.5440  -57.5930 C.3   143  ARG143      0.1563
     65  C         -7.9550  -35.6710  -56.6470 C.2   143  ARG143      0.2260
     66  O         -8.4760  -34.6780  -56.1330 O.2   143  ARG143     -0.2867
     67  CB        -9.3440  -35.6020  -58.6470 C.3   143  ARG143      0.0307
     68  CG        -9.5690  -36.1790  -59.9940 C.3   143  ARG143      0.0489
     69  CD        -9.9400  -35.0910  -60.9930 C.3   143  ARG143      0.2205
     70  NE       -11.2410  -34.5050  -60.7060 N.pl3 143  ARG143     -0.0865
     71  CZ       -11.4180  -33.3690  -60.0420 C.cat 143  ARG143      0.5346
     72  NH1      -10.3700  -32.6920  -59.5960 N.pl3 143  ARG143      0.1354
     73  NH2      -12.6400  -32.9160  -59.8150 N.pl3 143  ARG143      0.1354
     74  N         -5.4740  -32.8390  -56.5290 N.3   145  LYS145     -0.1231
     75  CA        -5.2770  -31.8210  -57.5560 C.3   145  LYS145      0.1693
     76  C         -3.9400  -31.0950  -57.4460 C.2   145  LYS145      0.2592
     77  O         -3.4810  -30.7470  -56.3520 O.2   145  LYS145     -0.2718
     78  CB        -6.3800  -30.7630  -57.4710 C.3   145  LYS145      0.0285
     79  CG        -7.7580  -31.2220  -57.8920 C.3   145  LYS145      0.0035
     80  CD        -8.7500  -30.0430  -57.9400 C.3   145  LYS145      0.0206
     81  CE        -8.5230  -29.1450  -59.1670 C.3   145  LYS145      0.1093
     82  NZ        -8.9250  -29.7480  -60.4540 N.3   145  LYS145     -0.1314
     83  N         -3.3400  -30.8380  -58.5980 N.am  146  GLY146     -0.1957
     84  CA        -2.3600  -29.7810  -58.7870 C.3   146  GLY146      0.1869
     85  C         -2.9870  -28.5640  -59.4400 C.2   146  GLY146      0.2309
     86  O         -4.1390  -28.2110  -59.1610 O.2   146  GLY146     -0.2863
     87  N         -4.4450  -27.3050  -62.7070 N.3   148  ALA148     -0.1231
     88  CA        -4.9430  -27.7600  -63.9970 C.3   148  ALA148      0.1694
     89  C         -4.5090  -26.8050  -65.1030 C.2   148  ALA148      0.2592
     90  O         -4.5480  -25.5850  -64.9400 O.2   148  ALA148     -0.2718
     91  CB        -6.4710  -27.8450  -63.9550 C.3   148  ALA148      0.0304
     92  N         -4.0800  -27.3720  -66.2350 N.am  149  GLY149     -0.1957
     93  CA        -3.7570  -26.6080  -67.4230 C.3   149  GLY149      0.1869
     94  C         -2.3590  -26.0210  -67.4930 C.2   149  GLY149      0.2309
     95  O         -1.9840  -25.5030  -68.5500 O.2   149  GLY149     -0.2863
     96  N          0.6590  -27.6480  -67.0020 N.3   151  GLY151     -0.1225
     97  CA         1.7550  -28.5560  -67.3080 C.3   151  GLY151      0.1811
     98  C          2.8110  -28.6280  -66.2240 C.2   151  GLY151      0.2280
     99  O          3.9190  -29.1240  -66.4690 O.2   151  GLY151     -0.2866
    100  N         -4.2920  -35.4630  -60.4550 N.3   208  ALA208     -0.1231
    101  CA        -4.8620  -34.7260  -61.5780 C.3   208  ALA208      0.1694
    102  C         -4.3420  -33.2990  -61.5760 C.2   208  ALA208      0.2593
    103  O         -4.3780  -32.6250  -60.5460 O.2   208  ALA208     -0.2718
    104  CB        -6.3930  -34.7080  -61.5220 C.3   208  ALA208      0.0304
    105  N         -3.8820  -32.8400  -62.7330 N.am  209  GLY209     -0.1942
    106  CA        -3.4690  -31.4620  -62.8730 C.3   209  GLY209      0.2014
    107  C         -1.9790  -31.3280  -63.0800 C.2   209  GLY209      0.2639
    108  O         -1.1970  -31.5840  -62.1660 O.2   209  GLY209     -0.2714
    109  N         -1.5630  -30.9470  -64.2840 N.am  210  GLY210     -0.1939
    110  CA        -0.1640  -30.6880  -64.5350 C.3   210  GLY210      0.2014
    111  C          0.6590  -31.8820  -64.9640 C.2   210  GLY210      0.2638
    112  O          1.8840  -31.7550  -65.0710 O.2   210  GLY210     -0.2714
    113  N          0.0330  -33.0310  -65.2170 N.am  211  VAL211     -0.1977
    114  CA         0.7420  -34.2450  -65.6230 C.3   211  VAL211      0.1596
    115  C          1.0320  -34.1190  -67.1150 C.2   211  VAL211      0.2287
    116  O          0.1520  -34.3360  -67.9500 O.2   211  VAL211     -0.2864
    117  CB        -0.0580  -35.5090  -65.2990 C.3   211  VAL211      0.0276
    118  CG1        0.6100  -36.7580  -65.8990 C.3   211  VAL211      0.0022
    119  CG2       -0.2050  -35.6480  -63.8040 C.3   211  VAL211      0.0022
    120  N         -5.2650  -38.5760  -64.0220 N.3   229  PHE229     -0.1227
    121  CA        -6.0330  -37.8660  -65.0260 C.3   229  PHE229      0.1736
    122  C         -5.0610  -37.0190  -65.8270 C.2   229  PHE229      0.2595
    123  O         -4.1750  -36.3750  -65.2610 O.2   229  PHE229     -0.2718
    124  CB        -7.0170  -36.9080  -64.3590 C.3   229  PHE229      0.0547
    125  CG        -8.2170  -37.5640  -63.7730 C.ar  229  PHE229     -0.0202
    126  CD1       -8.1530  -38.1720  -62.5290 C.ar  229  PHE229     -0.0042
    127  CD2       -9.4310  -37.5140  -64.4330 C.ar  229  PHE229     -0.0042
    128  CE1       -9.2770  -38.7650  -61.9720 C.ar  229  PHE229     -0.0003
    129  CE2      -10.5630  -38.0930  -63.8820 C.ar  229  PHE229     -0.0003
    130  CZ       -10.4880  -38.7210  -62.6490 C.ar  229  PHE229     -0.0000
    131  N         -5.2210  -37.0200  -67.1400 N.am  230  VAL230     -0.1966
    132  CA        -4.4660  -36.1260  -68.0030 C.3   230  VAL230      0.1727
    133  C         -5.4660  -35.4040  -68.8870 C.2   230  VAL230      0.2617
    134  O         -6.3750  -36.0310  -69.4410 O.2   230  VAL230     -0.2715
    135  CB        -3.3980  -36.8640  -68.8380 C.3   230  VAL230      0.0290
    136  CG1       -2.5990  -35.8700  -69.6670 C.3   230  VAL230      0.0023
    137  CG2       -2.4520  -37.6450  -67.9290 C.3   230  VAL230      0.0023
    138  N         -5.3250  -34.0880  -68.9880 N.am  231  GLY231     -0.1940
    139  CA        -6.2470  -33.3260  -69.8020 C.3   231  GLY231      0.2014
    140  C         -5.5520  -32.6850  -70.9770 C.2   231  GLY231      0.2640
    141  O         -5.6760  -33.1400  -72.1190 O.2   231  GLY231     -0.2714
    142  N         -4.7890  -31.6310  -70.6850 N.am  232  SER232     -0.1935
    143  CA        -4.1000  -30.8720  -71.7190 C.3   232  SER232      0.2055
    144  C         -2.8410  -31.5740  -72.2030 C.2   232  SER232      0.2643
    145  O         -2.5080  -31.4940  -73.3950 O.2   232  SER232     -0.2714
    146  CB        -3.7500  -29.4830  -71.1790 C.3   232  SER232      0.2130
    147  OG        -4.8500  -28.9210  -70.4760 O.3   232  SER232     -0.2179
    148  N         -2.1550  -32.2820  -71.3080 N.am  233  GLY233     -0.1954
    149  CA        -0.8500  -32.8530  -71.5780 C.3   233  GLY233      0.1869
    150  C         -0.7260  -33.7760  -72.7760 C.2   233  GLY233      0.2309
    151  O          0.3920  -34.1850  -73.1070 O.2   233  GLY233     -0.2863
@<TRIPOS>BOND
     1     4     3    2
     2   145   144    2
     3   151   150    2
     4     3     2    1
     5   150   149    1
     6   144   143    1
     7   144   148   am
     8   141   140    2
     9   143   146    1
    10   143   142    1
    11   149   148    1
    12     2     5    1
    13     2     1    1
    14    12    11    2
    15   146   147    1
    16     5     6    1
    17   140   142   am
    18   140   139    1
    19    11    10    1
    20     9    10    1
    21   139   138    1
    22    17    23    1
    23    17    18    1
    24   136   135    1
    25    10    13    1
    26     6     8   ar
    27     6     7   ar
    28   134   133    2
    29    23    22    1
    30    19    18    1
    31    19    20    2
    32   138   133   am
    33   133   132    1
    34   135   132    1
    35   135   137    1
    36    13    14    1
    37    18    21    1
    38    95    94    2
    39    14    15    1
    40   132   131    1
    41   116   115    2
    42    22    21    1
    43    94    93    1
    44    93    92    1
    45    97    96    1
    46    97    98    1
    47   131   122   am
    48   115   114    1
    49    15    16    1
    50    24    25    1
    51    99    98    2
    52    92    89   am
    53    27    26    2
    54    31    30    1
    55    31    32    1
    56   118   117    1
    57    30    29    1
    58    29    28    1
    59   122   123    2
    60   122   121    1
    61    28    25    1
    62   114   117    1
    63   114   113    1
    64    25    26    1
    65   117   119    1
    66   113   111   am
    67    62    60    1
    68    89    90    2
    69    89    88    1
    70   112   111    2
    71   121   124    1
    72   121   120    1
    73   111   110    1
    74    59    58    2
    75   110   109    1
    76   127   129   ar
    77   127   125   ar
    78   124   125    1
    79   109   107   am
    80    60    61    1
    81    60    57    1
    82    88    91    1
    83    88    87    1
    84    58    57    1
    85   129   130   ar
    86   125   126   ar
    87    57    56    1
    88   107   106    1
    89   107   108    2
    90    40    38   ar
    91   106   105    1
    92    37    38    1
    93    37    34    1
    94   105   102   am
    95    46    45    1
    96   130   128   ar
    97    33    34    1
    98   126   128   ar
    99    45    42    1
   100    36    35    2
   101    38    39   ar
   102    56    49   am
   103    34    35    1
   104   101   102    1
   105   101   104    1
   106   101   100    1
   107   102   103    2
   108    69    70    1
   109    69    68    1
   110    44    43    2
   111    49    50    2
   112    49    48    1
   113    42    43    1
   114    42    41    1
   115    70    71    2
   116    43    47   am
   117    82    81    1
   118    71    73    1
   119    71    72    1
   120    68    67    1
   121    47    48    1
   122    48    51    1
   123    85    86    2
   124    85    84    1
   125    81    80    1
   126    84    83    1
   127    51    52    1
   128    67    64    1
   129    54    53   ar
   130    83    76   am
   131    80    79    1
   132    79    78    1
   133    53    52    1
   134    53    55   ar
   135    64    63    1
   136    64    65    1
   137    75    78    1
   138    75    76    1
   139    75    74    1
   140    76    77    2
   141    65    66    2
