@<TRIPOS>MOLECULE
tmp/5lnzA00.pdb
 182 170 0 0 0
SMALL
GASTEIGER

@<TRIPOS>ATOM
      1  N          0.7910   11.6510   33.2820 N.3    32  LEU32      -0.1245
      2  CA         1.2860   12.2070   32.0250 C.3    32  LEU32       0.1561
      3  C          2.6200   11.5390   31.6090 C.2    32  LEU32       0.2260
      4  O          2.8130   11.2420   30.4260 O.2    32  LEU32      -0.2867
      5  CB         1.4250   13.7200   32.1140 C.3    32  LEU32       0.0270
      6  CG         0.0930   14.4550   32.3770 C.3    32  LEU32       0.0019
      7  CD1        0.3710   15.9340   32.5860 C.3    32  LEU32       0.0001
      8  CD2       -0.8610   14.2670   31.1900 C.3    32  LEU32       0.0001
      9  N          1.7280    8.2080   30.1540 N.3    35  ASN35      -0.1225
     10  CA         1.2430    8.3560   28.7830 C.3    35  ASN35       0.1785
     11  C          2.3950    8.5620   27.7960 C.2    35  ASN35       0.2597
     12  O          2.3790    7.9620   26.7190 O.2    35  ASN35      -0.2718
     13  CB         0.2370    9.4920   28.6870 C.3    35  ASN35       0.1169
     14  CG        -1.0550    9.1800   29.4150 C.2    35  ASN35       0.2627
     15  OD1       -1.2330    8.0960   30.0010 O.2    35  ASN35      -0.2716
     16  ND2       -1.9690   10.1480   29.4500 N.am   35  ASN35      -0.0877
     17  N          3.3870    9.4020   28.1580 N.am   36  SER36      -0.1952
     18  CA         4.5590    9.6130   27.3030 C.3    36  SER36       0.1924
     19  C          5.3120    8.2910   27.1060 C.2    36  SER36       0.2314
     20  O          5.6920    7.9610   25.9830 O.2    36  SER36      -0.2863
     21  CB         5.5060   10.6270   27.9350 C.3    36  SER36       0.2116
     22  OG         4.9510   11.9340   27.9180 O.3    36  SER36      -0.2180
     23  N          4.0830    5.3170   27.1780 N.3    38  ASP38      -0.1225
     24  CA         3.3210    4.4690   26.2500 C.3    38  ASP38       0.1805
     25  C          3.5780    4.8780   24.8030 C.2    38  ASP38       0.2597
     26  O          3.7400    3.9990   23.9440 O.2    38  ASP38      -0.2718
     27  CB         1.8180    4.5250   26.5470 C.3    38  ASP38       0.1424
     28  CG         1.4140    3.9280   27.8920 C.2    38  ASP38       0.3668
     29  OD1        2.2440    3.2070   28.5040 O.co2  38  ASP38      -0.2456
     30  OD2        0.2620    4.1260   28.2940 O.co2  38  ASP38      -0.2456
     31  N          3.6200    6.2030   24.5330 N.am   39  ALA39      -0.1979
     32  CA         3.8530    6.6670   23.1620 C.3    39  ALA39       0.1597
     33  C          5.2650    6.2770   22.6990 C.2    39  ALA39       0.2287
     34  O          5.4860    6.0140   21.5100 O.2    39  ALA39      -0.2864
     35  CB         3.7030    8.1610   23.1000 C.3    39  ALA39       0.0319
     36  N          5.3440    2.6620   21.8210 N.3    42  LYS42      -0.1245
     37  CA         4.7150    2.4600   20.5180 C.3    42  LYS42       0.1561
     38  C          5.6470    2.7280   19.3450 C.2    42  LYS42       0.2260
     39  O          5.7060    1.9110   18.4110 O.2    42  LYS42      -0.2867
     40  CB         3.4290    3.2780   20.4030 C.3    42  LYS42       0.0271
     41  CG         2.5490    2.7490   19.2870 C.3    42  LYS42       0.0035
     42  CD         1.1460    3.3320   19.3470 C.3    42  LYS42       0.0206
     43  CE         0.3050    2.6760   18.2790 C.3    42  LYS42       0.1093
     44  NZ        -1.0960    3.1720   18.3530 N.3    42  LYS42      -0.1314
     45  N          5.6660   18.8570   29.5630 N.3    75  ILE75      -0.1245
     46  CA         6.1210   17.4670   29.5210 C.3    75  ILE75       0.1561
     47  C          6.2990   17.1470   28.0440 C.2    75  ILE75       0.2260
     48  O          5.2960   17.1330   27.3160 O.2    75  ILE75      -0.2867
     49  CB         5.1370   16.4890   30.2050 C.3    75  ILE75       0.0252
     50  CG1        4.9690   16.8310   31.7080 C.3    75  ILE75       0.0019
     51  CG2        5.6410   15.0340   30.0610 C.3    75  ILE75       0.0019
     52  CD1        3.8240   17.7850   32.0310 C.3    75  ILE75       0.0001
     53  N          7.8260   14.5620   24.9860 N.3    77  ASP77      -0.1239
     54  CA         8.3710   13.2470   24.6770 C.3    77  ASP77       0.1674
     55  C          8.5690   13.1320   23.1640 C.2    77  ASP77       0.2266
     56  O          7.9740   13.8930   22.3860 O.2    77  ASP77      -0.2867
     57  CB         7.4740   12.0960   25.1960 C.3    77  ASP77       0.1410
     58  CG         6.1320   12.0060   24.5030 C.2    77  ASP77       0.3668
     59  OD1        6.1160   11.7380   23.2720 O.co2  77  ASP77      -0.2456
     60  OD2        5.0970   12.2610   25.1680 O.co2  77  ASP77      -0.2456
     61  N          5.4440    8.3060   19.5090 N.3    80  ILE80      -0.1231
     62  CA         4.8190    8.1740   18.1700 C.3    80  ILE80       0.1692
     63  C          4.0030    9.4250   17.7220 C.2    80  ILE80       0.2593
     64  O          3.8040    9.6180   16.5250 O.2    80  ILE80      -0.2718
     65  CB         3.9570    6.8840   18.1460 C.3    80  ILE80       0.0266
     66  CG1        3.5760    6.4900   16.6910 C.3    80  ILE80       0.0019
     67  CG2        2.7220    6.9870   19.0510 C.3    80  ILE80       0.0020
     68  CD1        3.1350    5.0280   16.5160 C.3    80  ILE80       0.0001
     69  N          3.5540   10.2350   18.6760 N.am   81  GLY81      -0.1942
     70  CA         2.7550   11.4070   18.3530 C.3    81  GLY81       0.2014
     71  C          1.3230   11.0320   18.0160 C.2    81  GLY81       0.2638
     72  O          0.9590    9.8470   17.9760 O.2    81  GLY81      -0.2714
     73  N          0.4900   12.0650   17.7650 N.am   82  MET82      -0.1976
     74  CA        -0.9130   11.8380   17.4890 C.3    82  MET82       0.1605
     75  C         -1.3380   12.5070   16.1920 C.2    82  MET82       0.2287
     76  O         -0.9030   13.6220   15.8840 O.2    82  MET82      -0.2864
     77  CB        -1.7610   12.4300   18.6190 C.3    82  MET82       0.0413
     78  CG        -1.6860   11.5960   19.8850 C.3    82  MET82       0.0598
     79  SD        -2.4650   12.3440   21.3400 S.3    82  MET82      -0.1393
     80  CE        -1.3300   13.7190   21.6660 C.3    82  MET82       0.0692
     81  N         -6.8190   11.3520   15.8580 N.3    86  ASP86      -0.1225
     82  CA        -6.6440   10.9430   17.2610 C.3    86  ASP86       0.1805
     83  C         -7.1350   12.0630   18.1870 C.2    86  ASP86       0.2597
     84  O         -7.8560   11.7970   19.1580 O.2    86  ASP86      -0.2718
     85  CB        -5.1570   10.7300   17.5800 C.3    86  ASP86       0.1424
     86  CG        -4.5430    9.4350   17.1120 C.2    86  ASP86       0.3668
     87  OD1       -5.2760    8.4190   17.0590 O.co2  86  ASP86      -0.2456
     88  OD2       -3.2900    9.4160   16.8690 O.co2  86  ASP86      -0.2456
     89  N         -6.6790   13.3210   17.9180 N.am   87  LEU87      -0.1979
     90  CA        -7.0230   14.4880   18.7430 C.3    87  LEU87       0.1596
     91  C         -8.4960   14.8200   18.7220 C.2    87  LEU87       0.2287
     92  O         -9.0510   15.1870   19.7630 O.2    87  LEU87      -0.2864
     93  CB        -6.2600   15.7410   18.2570 C.3    87  LEU87       0.0297
     94  CG        -4.7610   15.7370   18.4250 C.3    87  LEU87       0.0022
     95  CD1       -4.1880   17.0040   17.7810 C.3    87  LEU87       0.0001
     96  CD2       -4.3750   15.7270   19.9340 C.3    87  LEU87       0.0001
     97  N         -9.2260    9.1860   20.2610 N.3    91  LEU91      -0.1231
     98  CA        -8.9120    9.0360   21.6820 C.3    91  LEU91       0.1693
     99  C        -10.1210    9.3160   22.5780 C.2    91  LEU91       0.2592
    100  O        -10.3550    8.5650   23.5450 O.2    91  LEU91      -0.2718
    101  CB        -7.6850    9.8620   22.0470 C.3    91  LEU91       0.0284
    102  CG        -6.3900    9.4100   21.3100 C.3    91  LEU91       0.0019
    103  CD1       -5.2420   10.3690   21.5880 C.3    91  LEU91       0.0001
    104  CD2       -5.9800    7.9750   21.6690 C.3    91  LEU91       0.0001
    105  N        -10.9230   10.3260   22.2190 N.am   92  GLY92      -0.1957
    106  CA       -12.1190   10.6580   22.9790 C.3    92  GLY92       0.1869
    107  C        -13.1730    9.5690   22.8760 C.2    92  GLY92       0.2309
    108  O        -13.8350    9.2540   23.8680 O.2    92  GLY92      -0.2863
    109  N        -12.6330    6.3230   22.4430 N.3    94  ILE94      -0.1245
    110  CA       -12.1720    5.2280   23.3000 C.3    94  ILE94       0.1561
    111  C        -12.3850    5.5870   24.7590 C.2    94  ILE94       0.2260
    112  O        -12.8320    4.7420   25.5310 O.2    94  ILE94      -0.2867
    113  CB       -10.6960    4.8470   22.9860 C.3    94  ILE94       0.0252
    114  CG1      -10.5920    4.2870   21.5320 C.3    94  ILE94       0.0019
    115  CG2      -10.1460    3.8490   24.0430 C.3    94  ILE94       0.0019
    116  CD1       -9.2190    4.0660   21.0410 C.3    94  ILE94       0.0001
    117  N         -7.8120    4.2710   31.8270 N.3   119  GLY119     -0.1225
    118  CA        -7.3380    4.8060   30.5540 C.3   119  GLY119      0.1811
    119  C         -7.6690    6.2590   30.2860 C.2   119  GLY119      0.2280
    120  O         -7.6250    6.7090   29.1340 O.2   119  GLY119     -0.2866
    121  N         -6.2840    8.8910   32.4280 N.3   121  GLY121     -0.1210
    122  CA        -5.3740    9.6400   33.2920 C.3   121  GLY121      0.1956
    123  C         -4.9960   11.0180   32.7890 C.2   121  GLY121      0.2612
    124  O         -4.7030   11.8900   33.6140 O.2   121  GLY121     -0.2717
    125  N         -5.0440   11.2590   31.4480 N.am  122  PHE122     -0.1962
    126  CA        -4.7110   12.5800   30.9290 C.3   122  PHE122      0.1771
    127  C         -5.5190   13.6740   31.6510 C.2   122  PHE122      0.2619
    128  O         -4.9770   14.7390   31.9630 O.2   122  PHE122     -0.2715
    129  CB        -5.0290   12.6390   29.4340 C.3   122  PHE122      0.0574
    130  CG        -5.0450   14.0480   28.8840 C.ar  122  PHE122     -0.0200
    131  CD1       -3.8600   14.7700   28.7410 C.ar  122  PHE122     -0.0042
    132  CD2       -6.2510   14.6940   28.6190 C.ar  122  PHE122     -0.0042
    133  CE1       -3.8730   16.0850   28.2500 C.ar  122  PHE122     -0.0003
    134  CE2       -6.2680   16.0000   28.1220 C.ar  122  PHE122     -0.0003
    135  CZ        -5.0800   16.7000   27.9700 C.ar  122  PHE122     -0.0000
    136  N         -6.8340   13.4180   31.8640 N.am  123  TYR123     -0.1974
    137  CA        -7.7180   14.4460   32.4050 C.3   123  TYR123      0.1639
    138  C         -7.3560   14.8660   33.8390 C.2   123  TYR123      0.2290
    139  O         -7.7950   15.9350   34.2860 O.2   123  TYR123     -0.2864
    140  CB        -9.1830   14.0080   32.2430 C.3   123  TYR123      0.0560
    141  CG        -9.5030   13.8250   30.7740 C.ar  123  TYR123     -0.0198
    142  CD1       -9.7780   14.9220   29.9580 C.ar  123  TYR123     -0.0009
    143  CD2       -9.4520   12.5610   30.1800 C.ar  123  TYR123     -0.0009
    144  CE1      -10.0190   14.7630   28.5930 C.ar  123  TYR123      0.0417
    145  CE2       -9.6510   12.3960   28.8120 C.ar  123  TYR123      0.0417
    146  CZ        -9.9550   13.4950   28.0250 C.ar  123  TYR123      0.1957
    147  OH       -10.1570   13.3350   26.6690 O.3   123  TYR123     -0.2866
    148  N         -1.6590   21.0290   23.9140 N.3   134  VAL134     -0.1245
    149  CA        -0.9320   19.8320   23.5160 C.3   134  VAL134      0.1561
    150  C         -0.4640   20.0560   22.0910 C.2   134  VAL134      0.2260
    151  O         -1.2880   20.2920   21.1890 O.2   134  VAL134     -0.2867
    152  CB        -1.8140   18.5660   23.6070 C.3   134  VAL134      0.0252
    153  CG1       -1.0610   17.3360   23.0690 C.3   134  VAL134      0.0019
    154  CG2       -2.3070   18.3270   25.0350 C.3   134  VAL134      0.0019
    155  N         -3.6760   21.2350   20.1210 N.3   146  TRP146     -0.1241
    156  CA        -4.9700   20.9860   20.7510 C.3   146  TRP146      0.1605
    157  C         -4.9590   21.8420   22.0070 C.2   146  TRP146      0.2264
    158  O         -3.9070   21.9960   22.6260 O.2   146  TRP146     -0.2867
    159  CB        -5.1010   19.4890   21.1170 C.3   146  TRP146      0.0550
    160  CG        -6.3110   19.0700   21.9200 C.ar  146  TRP146      0.0003
    161  CD1       -7.3770   18.3480   21.4670 C.ar  146  TRP146      0.0946
    162  CD2       -6.4840   19.1880   23.3460 C.ar  146  TRP146      0.0152
    163  NE1       -8.2070   18.0070   22.5180 N.ar  146  TRP146     -0.2442
    164  CE2       -7.6830   18.5070   23.6830 C.ar  146  TRP146      0.0810
    165  CE3       -5.7210   19.7720   24.3850 C.ar  146  TRP146      0.0012
    166  CZ2       -8.1550   18.4230   25.0020 C.ar  146  TRP146      0.0191
    167  CZ3       -6.1890   19.6860   25.6930 C.ar  146  TRP146      0.0001
    168  CH2       -7.3930   19.0260   25.9900 C.ar  146  TRP146      0.0015
    169  N          5.0640   14.3850   21.3510 N.3   168  THR168     -0.1218
    170  CA         4.0000   15.1810   21.9590 C.3   168  THR168      0.1862
    171  C          4.5720   16.0340   23.0630 C.2   168  THR168      0.2287
    172  O          5.3980   15.5610   23.8500 O.2   168  THR168     -0.2866
    173  CB         2.9080   14.2260   22.5070 C.3   168  THR168      0.1770
    174  OG1        2.3190   13.5610   21.3860 O.3   168  THR168     -0.2211
    175  CG2        1.8250   14.9560   23.3650 C.3   168  THR168      0.0375
    176  N          2.9960   18.3810   26.1950 N.3   170  VAL170     -0.1245
    177  CA         1.8290   18.7660   26.9780 C.3   170  VAL170      0.1561
    178  C          2.2480   19.9780   27.8060 C.2   170  VAL170      0.2260
    179  O          3.1660   19.8790   28.6230 O.2   170  VAL170     -0.2867
    180  CB         1.3370   17.6180   27.8860 C.3   170  VAL170      0.0252
    181  CG1        0.2140   18.0970   28.8220 C.3   170  VAL170      0.0019
    182  CG2        0.8800   16.4230   27.0410 C.3   170  VAL170      0.0019
@<TRIPOS>BOND
     1    81    82    1
     2    76    75    2
     3    75    74    1
     4    68    66    1
     5    64    63    2
     6    66    65    1
     7    88    86   ar
     8    87    86   ar
     9    86    85    1
    10    82    85    1
    11    82    83    1
    12    74    73    1
    13    74    77    1
    14    63    62    1
    15    63    69   am
    16    73    71   am
    17    95    94    1
    18    89    83   am
    19    89    90    1
    20    72    71    2
    21    71    70    1
    22    65    62    1
    23    65    67    1
    24    62    61    1
    25    83    84    2
    26    93    94    1
    27    93    90    1
    28    43    44    1
    29    43    42    1
    30    70    69    1
    31    39    38    2
    32    94    96    1
    33    77    78    1
    34    91    90    1
    35    91    92    2
    36    41    42    1
    37    41    40    1
    38    38    37    1
    39    78    79    1
    40   155   156    1
    41    97    98    1
    42    40    37    1
    43    37    36    1
    44   156   159    1
    45   156   157    1
    46   116   114    1
    47   159   160    1
    48   151   150    2
    49   102   103    1
    50   102   104    1
    51   102   101    1
    52    79    80    1
    53   169   170    1
    54   174   173    1
    55   161   160   ar
    56   161   163   ar
    57    34    33    2
    58   114   113    1
    59    98   101    1
    60    98    99    1
    61   160   162   ar
    62   170   173    1
    63   170   171    1
    64   157   158    2
    65   150   149    1
    66   105    99   am
    67   105   106    1
    68    56    55    2
    69   109   110    1
    70   173   175    1
    71   163   164   ar
    72    99   100    2
    73    33    32    1
    74   107   106    1
    75   107   108    2
    76   113   110    1
    77   113   115    1
    78   171   172    2
    79   153   152    1
    80    35    32    1
    81    32    31    1
    82    55    54    1
    83    59    58   ar
    84   110   111    1
    85   162   164   ar
    86   162   165   ar
    87   149   152    1
    88   149   148    1
    89   152   154    1
    90   164   166   ar
    91    26    25    2
    92   165   167   ar
    93    58    60   ar
    94    58    57    1
    95    31    25   am
    96    54    53    1
    97    54    57    1
    98   111   112    2
    99    25    24    1
   100   166   168   ar
   101   167   168   ar
   102    20    19    2
   103   176   177    1
   104    24    27    1
   105    24    23    1
   106    27    28    1
   107   147   146    1
   108    12    11    2
   109   177   178    1
   110   177   180    1
   111   182   180    1
   112    19    18    1
   113    18    21    1
   114    18    17    1
   115    48    47    2
   116    11    17   am
   117    11    10    1
   118   178   179    2
   119   180   181    1
   120    28    30   ar
   121    28    29   ar
   122    22    21    1
   123   135   134   ar
   124   135   133   ar
   125   146   144   ar
   126   146   145   ar
   127    47    46    1
   128   134   132   ar
   129   133   131   ar
   130   144   142   ar
   131   132   130   ar
   132    13    10    1
   133    13    14    1
   134   131   130   ar
   135    10     9    1
   136   145   143   ar
   137   130   129    1
   138   120   119    2
   139    14    16   am
   140    14    15    2
   141   129   126    1
   142    46    45    1
   143    46    49    1
   144   142   141   ar
   145    51    49    1
   146   143   141   ar
   147    49    50    1
   148   119   118    1
   149     4     3    2
   150   118   117    1
   151   141   140    1
   152   126   125    1
   153   126   127    1
   154     8     6    1
   155   125   123   am
   156     3     2    1
   157   127   136   am
   158   127   128    2
   159    50    52    1
   160   136   137    1
   161     2     5    1
   162     2     1    1
   163     5     6    1
   164   140   137    1
   165     6     7    1
   166   137   138    1
   167   121   122    1
   168   123   122    1
   169   123   124    2
   170   138   139    2
