@<TRIPOS>MOLECULE
tmp/5lo0A00.pdb
 170 160 0 0 0
SMALL
GASTEIGER

@<TRIPOS>ATOM
      1  N         -1.2920  -11.7340  -16.4000 N.3    32  LEU32      -0.1245
      2  CA        -1.9160  -12.3150  -17.5830 C.3    32  LEU32       0.1561
      3  C         -3.1940  -11.5910  -17.9410 C.2    32  LEU32       0.2260
      4  O         -3.3890  -11.2750  -19.1170 O.2    32  LEU32      -0.2867
      5  CB        -2.1230  -13.8450  -17.4490 C.3    32  LEU32       0.0270
      6  CG        -0.8310  -14.6480  -17.2370 C.3    32  LEU32       0.0019
      7  CD1       -1.1390  -16.1340  -17.0540 C.3    32  LEU32       0.0001
      8  CD2        0.1970  -14.3870  -18.3670 C.3    32  LEU32       0.0001
      9  N         -2.3100   -8.1560  -19.3950 N.3    35  ASN35      -0.1225
     10  CA        -1.7950   -8.3400  -20.7610 C.3    35  ASN35       0.1785
     11  C         -2.9460   -8.5070  -21.7390 C.2    35  ASN35       0.2597
     12  O         -2.9390   -7.9060  -22.8100 O.2    35  ASN35      -0.2718
     13  CB        -0.8600   -9.5530  -20.8390 C.3    35  ASN35       0.1169
     14  CG         0.5490   -9.2930  -20.3830 C.2    35  ASN35       0.2627
     15  OD1        0.9210   -8.1820  -19.9670 O.2    35  ASN35      -0.2716
     16  ND2        1.3810  -10.3150  -20.4790 N.am   35  ASN35      -0.0877
     17  N         -3.9480   -9.3030  -21.3440 N.am   36  SER36      -0.1952
     18  CA        -5.1650   -9.5720  -22.1020 C.3    36  SER36       0.1924
     19  C         -5.9160   -8.2780  -22.3050 C.2    36  SER36       0.2314
     20  O         -6.2980   -7.9530  -23.4320 O.2    36  SER36      -0.2863
     21  CB        -6.0310  -10.5760  -21.3440 C.3    36  SER36       0.2116
     22  OG        -5.5460  -11.8960  -21.5310 O.3    36  SER36      -0.2180
     23  N         -4.7150   -5.1590  -22.1510 N.3    38  ASP38      -0.1225
     24  CA        -3.9640   -4.2850  -23.0670 C.3    38  ASP38       0.1805
     25  C         -4.1180   -4.7450  -24.5030 C.2    38  ASP38       0.2597
     26  O         -4.2340   -3.8960  -25.3780 O.2    38  ASP38      -0.2718
     27  CB        -2.4770   -4.2000  -22.6900 C.3    38  ASP38       0.1424
     28  CG        -2.1760   -3.5980  -21.3310 C.2    38  ASP38       0.3668
     29  OD1       -3.0900   -2.9660  -20.7330 O.co2  38  ASP38      -0.2456
     30  OD2       -1.0420   -3.7570  -20.8600 O.co2  38  ASP38      -0.2456
     31  N         -4.1650   -6.0870  -24.7420 N.am   39  ALA39      -0.1979
     32  CA        -4.3640   -6.6850  -26.0750 C.3    39  ALA39       0.1597
     33  C         -5.7620   -6.3510  -26.6220 C.2    39  ALA39       0.2287
     34  O         -5.9160   -6.0950  -27.8190 O.2    39  ALA39      -0.2864
     35  CB        -4.1730   -8.1890  -26.0080 C.3    39  ALA39       0.0319
     36  N         -5.7600   -2.7260  -27.7510 N.3    42  LYS42      -0.1245
     37  CA        -5.0950   -2.5760  -29.0590 C.3    42  LYS42       0.1561
     38  C         -6.0210   -2.8420  -30.2350 C.2    42  LYS42       0.2260
     39  O         -5.9920   -2.0830  -31.2130 O.2    42  LYS42      -0.2867
     40  CB        -3.8110   -3.4250  -29.1840 C.3    42  LYS42       0.0271
     41  CG        -2.7040   -3.0960  -28.1770 C.3    42  LYS42       0.0035
     42  CD        -2.1080   -1.6840  -28.2990 C.3    42  LYS42       0.0206
     43  CE        -0.9680   -1.4490  -27.3210 C.3    42  LYS42       0.1093
     44  NZ        -0.3900   -0.0740  -27.4070 N.3    42  LYS42      -0.1314
     45  N         -8.3680  -14.4770  -24.2340 N.3    77  ASP77      -0.1239
     46  CA        -8.8100  -13.1200  -24.5870 C.3    77  ASP77       0.1674
     47  C         -9.0910  -13.0760  -26.0760 C.2    77  ASP77       0.2266
     48  O         -8.5720  -13.8910  -26.8170 O.2    77  ASP77      -0.2867
     49  CB        -7.8190  -12.0120  -24.1610 C.3    77  ASP77       0.1410
     50  CG        -6.4660  -12.0020  -24.8670 C.2    77  ASP77       0.3668
     51  OD1       -6.4130  -11.5960  -26.0600 O.co2  77  ASP77      -0.2456
     52  OD2       -5.4500  -12.2790  -24.1990 O.co2  77  ASP77      -0.2456
     53  N         -5.9860   -8.4300  -29.7640 N.3    80  ILE80      -0.1231
     54  CA        -5.3450   -8.2840  -31.0690 C.3    80  ILE80       0.1692
     55  C         -4.6670   -9.6090  -31.5560 C.2    80  ILE80       0.2593
     56  O         -4.7360   -9.9250  -32.7420 O.2    80  ILE80      -0.2718
     57  CB        -4.3990   -7.0380  -31.0700 C.3    80  ILE80       0.0266
     58  CG1       -3.7870   -6.7600  -32.4630 C.3    80  ILE80       0.0019
     59  CG2       -3.3250   -7.0940  -29.9860 C.3    80  ILE80       0.0020
     60  CD1       -4.4850   -5.7850  -33.2180 C.3    80  ILE80       0.0001
     61  N         -4.0990  -10.3890  -30.6460 N.am   81  GLY81      -0.1942
     62  CA        -3.4250  -11.6230  -31.0340 C.3    81  GLY81       0.2014
     63  C         -2.0000  -11.3430  -31.4530 C.2    81  GLY81       0.2638
     64  O         -1.5490  -10.1930  -31.4030 O.2    81  GLY81      -0.2714
     65  N         -1.2750  -12.3810  -31.8760 N.am   82  MET82      -0.1976
     66  CA         0.1350  -12.2280  -32.2640 C.3    82  MET82       0.1605
     67  C          0.5020  -12.9210  -33.5750 C.2    82  MET82       0.2287
     68  O          0.0670  -14.0500  -33.8160 O.2    82  MET82      -0.2864
     69  CB         1.0550  -12.7550  -31.1410 C.3    82  MET82       0.0413
     70  CG         0.9630  -11.9780  -29.8520 C.3    82  MET82       0.0598
     71  SD         1.8630  -12.7540  -28.5000 S.3    82  MET82      -0.1393
     72  CE         0.7580  -14.0630  -28.0780 C.3    82  MET82       0.0692
     73  N          5.8240  -11.7210  -34.1030 N.3    86  ASP86      -0.1225
     74  CA         5.6430  -11.3460  -32.7000 C.3    86  ASP86       0.1805
     75  C          6.1950  -12.4370  -31.7910 C.2    86  ASP86       0.2597
     76  O          7.0160  -12.1440  -30.9250 O.2    86  ASP86      -0.2718
     77  CB         4.1620  -11.0810  -32.3620 C.3    86  ASP86       0.1424
     78  CG         3.5630   -9.8030  -32.9140 C.2    86  ASP86       0.3668
     79  OD1        4.2860   -8.7730  -32.9650 O.co2  86  ASP86      -0.2456
     80  OD2        2.3540   -9.8080  -33.2310 O.co2  86  ASP86      -0.2456
     81  N          5.7720  -13.6950  -32.0120 N.am   87  LEU87      -0.1979
     82  CA         6.2080  -14.8420  -31.2140 C.3    87  LEU87       0.1596
     83  C          7.7240  -15.0860  -31.2640 C.2    87  LEU87       0.2287
     84  O          8.3590  -15.2540  -30.2130 O.2    87  LEU87      -0.2864
     85  CB         5.4620  -16.1220  -31.6360 C.3    87  LEU87       0.0297
     86  CG         3.9480  -16.1650  -31.4140 C.3    87  LEU87       0.0022
     87  CD1        3.3770  -17.4540  -31.9710 C.3    87  LEU87       0.0001
     88  CD2        3.5750  -16.0170  -29.9260 C.3    87  LEU87       0.0001
     89  N          9.6910  -10.1760  -32.1260 N.3    90  ASN90      -0.1225
     90  CA         9.2010   -8.9860  -31.4360 C.3    90  ASN90       0.1785
     91  C          9.0600   -9.1410  -29.9260 C.2    90  ASN90       0.2597
     92  O          9.5080   -8.2450  -29.2100 O.2    90  ASN90      -0.2718
     93  CB         7.9050   -8.4760  -32.0570 C.3    90  ASN90       0.1169
     94  CG         7.9550   -8.2540  -33.5510 C.2    90  ASN90       0.2627
     95  OD1        9.0110   -8.0050  -34.1470 O.2    90  ASN90      -0.2716
     96  ND2        6.7990   -8.3090  -34.1820 N.am   90  ASN90      -0.0877
     97  N          8.4800  -10.2610  -29.4390 N.am   91  LEU91      -0.1980
     98  CA         8.3290  -10.4940  -27.9960 C.3    91  LEU91       0.1596
     99  C          9.6900  -10.4740  -27.2940 C.2    91  LEU91       0.2287
    100  O          9.8570   -9.7590  -26.3050 O.2    91  LEU91      -0.2864
    101  CB         7.5470  -11.7930  -27.6780 C.3    91  LEU91       0.0297
    102  CG         6.0320  -11.7630  -27.9220 C.3    91  LEU91       0.0022
    103  CD1        5.4410  -13.1630  -27.8720 C.3    91  LEU91       0.0001
    104  CD2        5.3280  -10.8100  -26.9790 C.3    91  LEU91       0.0001
    105  N         11.1160   -6.6350  -27.2970 N.3    94  ILE94      -0.1245
    106  CA        10.4170   -5.7240  -26.3710 C.3    94  ILE94       0.1561
    107  C         10.7240   -6.0780  -24.8980 C.2    94  ILE94       0.2260
    108  O         10.8670   -5.1680  -24.0740 O.2    94  ILE94      -0.2867
    109  CB         8.8850   -5.5500  -26.6360 C.3    94  ILE94       0.0252
    110  CG1        8.1150   -6.8920  -26.6150 C.3    94  ILE94       0.0019
    111  CG2        8.6310   -4.7660  -27.9270 C.3    94  ILE94       0.0019
    112  CD1        6.6050   -6.7870  -26.3110 C.3    94  ILE94       0.0001
    113  N          4.2940  -11.4160  -18.0740 N.3   122  PHE122     -0.1227
    114  CA         3.9330  -12.7340  -18.6090 C.3   122  PHE122      0.1736
    115  C          4.7840  -13.8620  -17.9860 C.2   122  PHE122      0.2595
    116  O          4.2440  -14.9110  -17.6350 O.2   122  PHE122     -0.2718
    117  CB         4.0810  -12.7490  -20.1580 C.3   122  PHE122      0.0547
    118  CG         4.0550  -14.1360  -20.7690 C.ar  122  PHE122     -0.0202
    119  CD1        2.8510  -14.7260  -21.1480 C.ar  122  PHE122     -0.0042
    120  CD2        5.2310  -14.8800  -20.9070 C.ar  122  PHE122     -0.0042
    121  CE1        2.8250  -16.0220  -21.6720 C.ar  122  PHE122     -0.0003
    122  CE2        5.2090  -16.1720  -21.4360 C.ar  122  PHE122     -0.0003
    123  CZ         4.0060  -16.7320  -21.8200 C.ar  122  PHE122     -0.0000
    124  N          6.1170  -13.6360  -17.8430 N.am  123  TYR123     -0.1976
    125  CA         7.0560  -14.6600  -17.3420 C.3   123  TYR123      0.1639
    126  C          6.8120  -15.0600  -15.8800 C.2   123  TYR123      0.2290
    127  O          7.2530  -16.1400  -15.4730 O.2   123  TYR123     -0.2864
    128  CB         8.5150  -14.2520  -17.6110 C.3   123  TYR123      0.0560
    129  CG         8.7540  -14.0590  -19.0970 C.ar  123  TYR123     -0.0198
    130  CD1        9.0500  -15.1410  -19.9210 C.ar  123  TYR123     -0.0009
    131  CD2        8.6020  -12.8070  -19.6930 C.ar  123  TYR123     -0.0009
    132  CE1        9.2130  -14.9800  -21.2980 C.ar  123  TYR123      0.0417
    133  CE2        8.7520  -12.6360  -21.0680 C.ar  123  TYR123      0.0417
    134  CZ         9.0620  -13.7260  -21.8650 C.ar  123  TYR123      0.1957
    135  OH         9.1990  -13.5690  -23.2180 O.3   123  TYR123     -0.2866
    136  N          0.9070  -21.1810  -25.5900 N.3   134  VAL134     -0.1245
    137  CA         0.1850  -19.9770  -25.9890 C.3   134  VAL134      0.1561
    138  C         -0.3380  -20.1910  -27.4110 C.2   134  VAL134      0.2260
    139  O          0.4560  -20.3910  -28.3360 O.2   134  VAL134     -0.2867
    140  CB         1.0600  -18.6780  -25.8790 C.3   134  VAL134      0.0252
    141  CG1        0.3080  -17.4610  -26.4160 C.3   134  VAL134      0.0019
    142  CG2        1.5310  -18.4280  -24.4400 C.3   134  VAL134      0.0019
    143  N          2.8000  -21.4040  -29.4990 N.3   146  TRP146     -0.1241
    144  CA         4.0950  -21.1100  -28.8720 C.3   146  TRP146      0.1605
    145  C          4.1130  -21.9970  -27.6440 C.2   146  TRP146      0.2264
    146  O          3.0680  -22.2040  -27.0360 O.2   146  TRP146     -0.2867
    147  CB         4.1570  -19.6220  -28.4430 C.3   146  TRP146      0.0550
    148  CG         5.4060  -19.1780  -27.7240 C.ar  146  TRP146      0.0003
    149  CD1        6.4460  -18.4630  -28.2520 C.ar  146  TRP146      0.0946
    150  CD2        5.6620  -19.2690  -26.3020 C.ar  146  TRP146      0.0152
    151  NE1        7.3510  -18.1290  -27.2570 N.ar  146  TRP146     -0.2442
    152  CE2        6.8880  -18.6020  -26.0520 C.ar  146  TRP146      0.0810
    153  CE3        4.9470  -19.8110  -25.2060 C.ar  146  TRP146      0.0012
    154  CZ2        7.4270  -18.4900  -24.7630 C.ar  146  TRP146      0.0191
    155  CZ3        5.5040  -19.7320  -23.9410 C.ar  146  TRP146      0.0001
    156  CH2        6.7280  -19.0760  -23.7290 C.ar  146  TRP146      0.0015
    157  N         -5.6820  -14.4510  -27.9310 N.3   168  THR168     -0.1218
    158  CA        -4.6350  -15.2440  -27.2920 C.3   168  THR168      0.1862
    159  C         -5.2290  -16.1240  -26.1990 C.2   168  THR168      0.2287
    160  O         -6.0970  -15.7090  -25.4360 O.2   168  THR168     -0.2866
    161  CB        -3.5010  -14.3230  -26.8130 C.3   168  THR168      0.1770
    162  OG1       -2.9970  -13.5880  -27.9310 O.3   168  THR168     -0.2211
    163  CG2       -2.3560  -15.0670  -26.1100 C.3   168  THR168      0.0375
    164  N         -3.6220  -18.4710  -23.1480 N.3   170  VAL170     -0.1245
    165  CA        -2.4550  -18.8110  -22.3230 C.3   170  VAL170      0.1561
    166  C         -2.8220  -20.0090  -21.4540 C.2   170  VAL170      0.2260
    167  O         -3.6100  -19.8900  -20.5310 O.2   170  VAL170     -0.2867
    168  CB        -1.9040  -17.6120  -21.4910 C.3   170  VAL170      0.0252
    169  CG1       -0.6860  -18.0370  -20.6710 C.3   170  VAL170      0.0019
    170  CG2       -1.5440  -16.4340  -22.3940 C.3   170  VAL170      0.0019
@<TRIPOS>BOND
     1    96    94   am
     2    95    94    2
     3    73    74    1
     4    68    67    2
     5    67    66    1
     6    94    93    1
     7    80    78   ar
     8    60    58    1
     9    79    78   ar
    10    78    77    1
    11    56    55    2
    12    74    77    1
    13    74    75    1
    14    58    57    1
    15    66    65    1
    16    66    69    1
    17    89    90    1
    18    93    90    1
    19    81    75   am
    20    81    82    1
    21    87    86    1
    22    65    63   am
    23    75    76    2
    24    85    86    1
    25    85    82    1
    26    55    54    1
    27    55    61   am
    28    63    64    2
    29    63    62    1
    30    90    91    1
    31    86    88    1
    32    83    82    1
    33    83    84    2
    34    39    38    2
    35    69    70    1
    36    57    54    1
    37    57    59    1
    38    54    53    1
    39    62    61    1
    40    38    37    1
    41    91    97   am
    42    91    92    2
    43    70    71    1
    44   143   144    1
    45    97    98    1
    46    40    37    1
    47    40    41    1
    48    37    36    1
    49   144   147    1
    50   144   145    1
    51    71    72    1
    52   147   148    1
    53   139   138    2
    54    42    41    1
    55    42    43    1
    56   149   148   ar
    57   149   151   ar
    58    98   101    1
    59    98    99    1
    60   157   158    1
    61   162   161    1
    62   111   109    1
    63   102   103    1
    64   102   101    1
    65   102   104    1
    66    34    33    2
    67   148   150   ar
    68   145   146    2
    69   138   137    1
    70    44    43    1
    71   105   106    1
    72    99   100    2
    73   158   161    1
    74   158   159    1
    75   151   152   ar
    76    48    47    2
    77   161   163    1
    78   109   110    1
    79   109   106    1
    80    33    32    1
    81   110   112    1
    82   141   140    1
    83   106   107    1
    84   150   152   ar
    85   150   153   ar
    86   159   160    2
    87    47    46    1
    88    32    35    1
    89    32    31    1
    90    51    50   ar
    91   152   154   ar
    92   137   140    1
    93   137   136    1
    94   140   142    1
    95    26    25    2
    96   153   155   ar
    97   107   108    2
    98    50    52   ar
    99    50    49    1
   100   154   156   ar
   101    31    25   am
   102    46    45    1
   103    46    49    1
   104    25    24    1
   105   155   156   ar
   106    20    19    2
   107   135   134    1
   108   164   165    1
   109    24    27    1
   110    24    23    1
   111    12    11    2
   112    27    28    1
   113   170   168    1
   114   165   168    1
   115   165   166    1
   116    19    18    1
   117    18    17    1
   118    18    21    1
   119   134   132   ar
   120   134   133   ar
   121   123   121   ar
   122   123   122   ar
   123    11    17   am
   124    11    10    1
   125   121   119   ar
   126    22    21    1
   127   168   169    1
   128   166   167    2
   129   122   120   ar
   130    28    30   ar
   131    28    29   ar
   132   132   130   ar
   133   119   118   ar
   134   133   131   ar
   135   120   118   ar
   136    13    10    1
   137    13    14    1
   138   118   117    1
   139    10     9    1
   140    16    14   am
   141    14    15    2
   142   117   114    1
   143   130   129   ar
   144   131   129   ar
   145     4     3    2
   146   129   128    1
   147   114   113    1
   148   114   115    1
   149     8     6    1
   150   115   124   am
   151   115   116    2
   152     3     2    1
   153   124   125    1
   154   128   125    1
   155     2     5    1
   156     2     1    1
   157     5     6    1
   158   125   126    1
   159     6     7    1
   160   126   127    2
