@<TRIPOS>MOLECULE
tmp/5lo1A00.pdb
 170 160 0 0 0
SMALL
GASTEIGER

@<TRIPOS>ATOM
      1  N        -34.3850  -11.8740  -16.2240 N.3    32  LEU32      -0.1245
      2  CA       -34.9870  -12.4460  -17.4160 C.3    32  LEU32       0.1561
      3  C        -36.3100  -11.7790  -17.7450 C.2    32  LEU32       0.2260
      4  O        -36.5770  -11.5580  -18.9200 O.2    32  LEU32      -0.2867
      5  CB       -35.1440  -13.9840  -17.2930 C.3    32  LEU32       0.0270
      6  CG       -33.8540  -14.8330  -17.1210 C.3    32  LEU32       0.0019
      7  CD1      -34.1910  -16.2700  -16.8890 C.3    32  LEU32       0.0001
      8  CD2      -32.9300  -14.6930  -18.2910 C.3    32  LEU32       0.0001
      9  N        -35.4940   -8.3660  -19.3360 N.3    35  ASN35      -0.1225
     10  CA       -35.0560   -8.6060  -20.7010 C.3    35  ASN35       0.1785
     11  C        -36.2330   -8.8360  -21.6210 C.2    35  ASN35       0.2597
     12  O        -36.2230   -8.3550  -22.7590 O.2    35  ASN35      -0.2718
     13  CB       -34.1800   -9.8150  -20.7420 C.3    35  ASN35       0.1169
     14  CG       -32.7440   -9.5830  -20.3800 C.2    35  ASN35       0.2627
     15  OD1      -32.3120   -8.4920  -20.0190 O.2    35  ASN35      -0.2716
     16  ND2      -31.9660  -10.6170  -20.4880 N.am   35  ASN35      -0.0877
     17  N        -37.2440   -9.5740  -21.1340 N.am   36  SER36      -0.1952
     18  CA       -38.4600   -9.8620  -21.8810 C.3    36  SER36       0.1924
     19  C        -39.2110   -8.5490  -22.1170 C.2    36  SER36       0.2314
     20  O        -39.6280   -8.2690  -23.2530 O.2    36  SER36      -0.2863
     21  CB       -39.3400  -10.8310  -21.1030 C.3    36  SER36       0.2116
     22  OG       -38.8970  -12.1740  -21.1690 O.3    36  SER36      -0.2180
     23  N        -38.0240   -5.4810  -22.1810 N.3    38  ASP38      -0.1225
     24  CA       -37.3060   -4.6490  -23.1550 C.3    38  ASP38       0.1805
     25  C        -37.5850   -5.1170  -24.5860 C.2    38  ASP38       0.2597
     26  O        -37.7280   -4.2810  -25.4780 O.2    38  ASP38      -0.2718
     27  CB       -35.7840   -4.6510  -22.8860 C.3    38  ASP38       0.1424
     28  CG       -35.3160   -4.1400  -21.5350 C.2    38  ASP38       0.3668
     29  OD1      -36.1720   -3.6490  -20.7460 O.co2  38  ASP38      -0.2456
     30  OD2      -34.0950   -4.2620  -21.2430 O.co2  38  ASP38      -0.2456
     31  N        -37.6250   -6.4470  -24.8080 N.am   39  ALA39      -0.1979
     32  CA       -37.9050   -7.0650  -26.1060 C.3    39  ALA39       0.1597
     33  C        -39.3420   -6.7220  -26.5170 C.2    39  ALA39       0.2287
     34  O        -39.5780   -6.3680  -27.6700 O.2    39  ALA39      -0.2864
     35  CB       -37.7140   -8.5720  -26.0220 C.3    39  ALA39       0.0319
     36  N        -39.4200   -3.1800  -27.4550 N.3    42  LYS42      -0.1245
     37  CA       -38.8840   -3.1110  -28.8170 C.3    42  LYS42       0.1561
     38  C        -39.9640   -3.4010  -29.8730 C.2    42  LYS42       0.2260
     39  O        -40.1670   -2.5550  -30.7480 O.2    42  LYS42      -0.2867
     40  CB       -37.6300   -3.9750  -29.0030 C.3    42  LYS42       0.0271
     41  CG       -36.3310   -3.1900  -28.8410 C.3    42  LYS42       0.0035
     42  CD       -35.7970   -2.6360  -30.1640 C.3    42  LYS42       0.0206
     43  CE       -34.5450   -1.8070  -29.9830 C.3    42  LYS42       0.1093
     44  NZ       -33.3520   -2.6440  -29.6840 N.3    42  LYS42      -0.1314
     45  N        -41.5760  -14.8800  -23.8280 N.3    69  ASP69      -0.1239
     46  CA       -42.1070  -13.5680  -24.1620 C.3    69  ASP69       0.1674
     47  C        -42.4740  -13.5240  -25.6450 C.2    69  ASP69       0.2266
     48  O        -41.9560  -14.3080  -26.4600 O.2    69  ASP69      -0.2867
     49  CB       -41.1590  -12.4250  -23.7740 C.3    69  ASP69       0.1410
     50  CG       -39.8280  -12.4040  -24.4870 C.2    69  ASP69       0.3668
     51  OD1      -39.7950  -11.9960  -25.6820 O.co2  69  ASP69      -0.2456
     52  OD2      -38.8040  -12.6960  -23.8300 O.co2  69  ASP69      -0.2456
     53  N        -39.5680   -8.7670  -29.3850 N.3    72  ILE72      -0.1231
     54  CA       -38.9940   -8.5660  -30.7300 C.3    72  ILE72       0.1692
     55  C        -38.3470   -9.8360  -31.3210 C.2    72  ILE72       0.2593
     56  O        -38.4080  -10.0450  -32.5300 O.2    72  ILE72      -0.2718
     57  CB       -38.0290   -7.3430  -30.7840 C.3    72  ILE72       0.0266
     58  CG1      -37.6860   -6.9710  -32.2600 C.3    72  ILE72       0.0019
     59  CG2      -36.7770   -7.5270  -29.8910 C.3    72  ILE72       0.0020
     60  CD1      -37.1550   -5.6050  -32.5040 C.3    72  ILE72       0.0001
     61  N        -37.7470  -10.6490  -30.4660 N.am   73  GLY73      -0.1942
     62  CA       -37.0540  -11.8550  -30.8800 C.3    73  GLY73       0.2014
     63  C        -35.6160  -11.5640  -31.2340 C.2    73  GLY73       0.2638
     64  O        -35.1500  -10.4310  -31.1030 O.2    73  GLY73      -0.2714
     65  N        -34.9030  -12.5930  -31.6730 N.am   74  MET74      -0.1976
     66  CA       -33.4940  -12.4940  -32.0370 C.3    74  MET74       0.1605
     67  C        -33.1760  -13.2120  -33.3510 C.2    74  MET74       0.2287
     68  O        -33.8130  -14.2070  -33.7060 O.2    74  MET74      -0.2864
     69  CB       -32.6070  -13.0410  -30.9070 C.3    74  MET74       0.0413
     70  CG       -32.6450  -12.2320  -29.6510 C.3    74  MET74       0.0598
     71  SD       -31.5830  -12.9310  -28.4010 S.3    74  MET74      -0.1393
     72  CE       -32.6430  -14.2230  -27.7170 C.3    74  MET74       0.0692
     73  N        -27.9910  -11.9760  -34.0740 N.3    78  ASP78      -0.1225
     74  CA       -28.1670  -11.4730  -32.7110 C.3    78  ASP78       0.1805
     75  C        -27.5850  -12.4460  -31.7130 C.2    78  ASP78       0.2597
     76  O        -26.9920  -12.0310  -30.7250 O.2    78  ASP78      -0.2718
     77  CB       -29.6440  -11.2160  -32.3780 C.3    78  ASP78       0.1424
     78  CG       -30.2220   -9.9040  -32.8810 C.2    78  ASP78       0.3668
     79  OD1      -29.4890   -8.8780  -32.8560 O.co2  78  ASP78      -0.2456
     80  OD2      -31.4330   -9.8780  -33.2170 O.co2  78  ASP78      -0.2456
     81  N        -27.7490  -13.7420  -31.9660 N.am   79  LEU79      -0.1979
     82  CA       -27.2650  -14.8120  -31.0960 C.3    79  LEU79       0.1596
     83  C        -25.7440  -14.8870  -31.0570 C.2    79  LEU79       0.2287
     84  O        -25.1730  -14.8770  -29.9590 O.2    79  LEU79      -0.2864
     85  CB       -27.8750  -16.1500  -31.5550 C.3    79  LEU79       0.0297
     86  CG       -29.1900  -16.6580  -30.9220 C.3    79  LEU79       0.0022
     87  CD1      -29.8380  -15.6900  -29.9460 C.3    79  LEU79       0.0001
     88  CD2      -30.1340  -17.0840  -31.9550 C.3    79  LEU79       0.0001
     89  N        -23.4210   -9.4040  -31.6630 N.3    82  ASN82      -0.1225
     90  CA       -24.4880   -8.6010  -31.0270 C.3    82  ASN82       0.1785
     91  C        -24.6530   -8.9430  -29.5620 C.2    82  ASN82       0.2597
     92  O        -24.3470   -8.0830  -28.7380 O.2    82  ASN82      -0.2718
     93  CB       -25.8450   -8.6200  -31.7710 C.3    82  ASN82       0.1169
     94  CG       -25.8420   -8.0560  -33.1710 C.2    82  ASN82       0.2627
     95  OD1      -24.8060   -7.9460  -33.8460 O.2    82  ASN82      -0.2716
     96  ND2      -27.0280   -7.7190  -33.6520 N.am   82  ASN82      -0.0877
     97  N        -25.1140  -10.1770  -29.2140 N.am   83  LEU83      -0.1980
     98  CA       -25.2100  -10.5760  -27.8020 C.3    83  LEU83       0.1596
     99  C        -23.8000  -10.6210  -27.2160 C.2    83  LEU83       0.2287
    100  O        -23.6000  -10.1540  -26.1040 O.2    83  LEU83      -0.2864
    101  CB       -25.9370  -11.9180  -27.5790 C.3    83  LEU83       0.0297
    102  CG       -27.4840  -11.9400  -27.6810 C.3    83  LEU83       0.0022
    103  CD1      -28.0120  -13.3500  -27.5170 C.3    83  LEU83       0.0001
    104  CD2      -28.1420  -11.0080  -26.7010 C.3    83  LEU83       0.0001
    105  N        -22.5170   -6.8440  -26.7920 N.3    86  ILE86      -0.1245
    106  CA       -23.2660   -6.3130  -25.6360 C.3    86  ILE86       0.1561
    107  C        -22.6170   -6.8260  -24.3390 C.2    86  ILE86       0.2260
    108  O        -22.3570   -6.0470  -23.4140 O.2    86  ILE86      -0.2867
    109  CB       -24.7840   -6.6980  -25.7360 C.3    86  ILE86       0.0252
    110  CG1      -25.5280   -5.7280  -26.6690 C.3    86  ILE86       0.0019
    111  CG2      -25.4790   -6.7910  -24.3590 C.3    86  ILE86       0.0019
    112  CD1      -26.8910   -6.1710  -27.0690 C.3    86  ILE86       0.0001
    113  N        -28.8180  -11.6680  -17.9520 N.3   107  PHE107     -0.1227
    114  CA       -29.2210  -13.0040  -18.4260 C.3   107  PHE107      0.1736
    115  C        -28.3660  -14.1020  -17.7740 C.2   107  PHE107      0.2595
    116  O        -28.9020  -15.1380  -17.3720 O.2   107  PHE107     -0.2718
    117  CB       -29.0500  -13.1200  -19.9630 C.3   107  PHE107      0.0547
    118  CG       -29.1030  -14.5340  -20.5030 C.ar  107  PHE107     -0.0202
    119  CD1      -30.3180  -15.1240  -20.8370 C.ar  107  PHE107     -0.0042
    120  CD2      -27.9430  -15.2900  -20.6390 C.ar  107  PHE107     -0.0042
    121  CE1      -30.3700  -16.4340  -21.3050 C.ar  107  PHE107     -0.0003
    122  CE2      -27.9960  -16.5970  -21.1280 C.ar  107  PHE107     -0.0003
    123  CZ       -29.2060  -17.1490  -21.4780 C.ar  107  PHE107     -0.0000
    124  N        -27.0330  -13.8860  -17.7210 N.am  108  TYR108     -0.1976
    125  CA       -26.0570  -14.8540  -17.2270 C.3   108  TYR108      0.1639
    126  C        -26.2290  -15.2010  -15.7390 C.2   108  TYR108      0.2290
    127  O        -25.6050  -16.1640  -15.2540 O.2   108  TYR108     -0.2864
    128  CB       -24.6240  -14.4090  -17.5560 C.3   108  TYR108      0.0560
    129  CG       -24.4270  -14.1970  -19.0410 C.ar  108  TYR108     -0.0198
    130  CD1      -24.1040  -15.2600  -19.8820 C.ar  108  TYR108     -0.0009
    131  CD2      -24.6420  -12.9470  -19.6230 C.ar  108  TYR108     -0.0009
    132  CE1      -23.9370  -15.0710  -21.2530 C.ar  108  TYR108      0.0417
    133  CE2      -24.5090  -12.7570  -20.9980 C.ar  108  TYR108      0.0417
    134  CZ       -24.1400  -13.8160  -21.8030 C.ar  108  TYR108      0.1957
    135  OH       -24.0050  -13.6280  -23.1530 O.3   108  TYR108     -0.2866
    136  N        -32.2540  -21.3470  -25.3080 N.3   119  VAL119     -0.1245
    137  CA       -32.9570  -20.1380  -25.7200 C.3   119  VAL119      0.1561
    138  C        -33.5540  -20.3450  -27.1250 C.2   119  VAL119      0.2260
    139  O        -32.8200  -20.3540  -28.1130 O.2   119  VAL119     -0.2867
    140  CB       -32.1030  -18.8350  -25.5880 C.3   119  VAL119      0.0252
    141  CG1      -32.8370  -17.6330  -26.1540 C.3   119  VAL119      0.0019
    142  CG2      -31.7240  -18.5610  -24.1420 C.3   119  VAL119      0.0019
    143  N        -30.4270  -21.4480  -29.2080 N.3   131  TRP131     -0.1241
    144  CA       -29.1360  -21.1620  -28.5580 C.3   131  TRP131      0.1605
    145  C        -29.1000  -22.0730  -27.3290 C.2   131  TRP131      0.2264
    146  O        -30.1270  -22.2690  -26.6820 O.2   131  TRP131     -0.2867
    147  CB       -29.0720  -19.6880  -28.1110 C.3   131  TRP131      0.0550
    148  CG       -27.7970  -19.2320  -27.4350 C.ar  131  TRP131      0.0003
    149  CD1      -26.8020  -18.4810  -27.9930 C.ar  131  TRP131      0.0946
    150  CD2      -27.5040  -19.2920  -26.0220 C.ar  131  TRP131      0.0152
    151  NE1      -25.8780  -18.1250  -27.0320 N.ar  131  TRP131     -0.2442
    152  CE2      -26.2950  -18.5910  -25.8140 C.ar  131  TRP131      0.0810
    153  CE3      -28.1490  -19.8810  -24.9090 C.ar  131  TRP131      0.0012
    154  CZ2      -25.6990  -18.4880  -24.5500 C.ar  131  TRP131      0.0191
    155  CZ3      -27.5490  -19.7860  -23.6630 C.ar  131  TRP131      0.0001
    156  CH2      -26.3520  -19.0760  -23.4900 C.ar  131  TRP131      0.0015
    157  N        -39.0710  -14.8270  -27.6340 N.3   153  THR153     -0.1218
    158  CA       -37.9680  -15.6030  -27.0280 C.3   153  THR153      0.1862
    159  C        -38.5210  -16.5630  -25.9280 C.2   153  THR153      0.2287
    160  O        -39.4880  -16.2360  -25.2440 O.2   153  THR153     -0.2866
    161  CB       -36.8540  -14.6170  -26.5620 C.3   153  THR153      0.1770
    162  OG1      -36.3510  -13.8850  -27.6880 O.3   153  THR153     -0.2211
    163  CG2      -35.6920  -15.2900  -25.8730 C.3   153  THR153      0.0375
    164  N        -36.7800  -18.7770  -22.8910 N.3   155  VAL155     -0.1245
    165  CA       -35.5840  -19.0550  -22.1010 C.3   155  VAL155      0.1561
    166  C        -35.9550  -20.2530  -21.2080 C.2   155  VAL155      0.2260
    167  O        -36.7590  -20.1160  -20.2910 O.2   155  VAL155     -0.2867
    168  CB       -35.0950  -17.7910  -21.3310 C.3   155  VAL155      0.0252
    169  CG1      -33.9600  -18.1170  -20.3720 C.3   155  VAL155      0.0019
    170  CG2      -34.6640  -16.7080  -22.3110 C.3   155  VAL155      0.0019
@<TRIPOS>BOND
     1    73    74    1
     2    95    94    2
     3    68    67    2
     4    96    94   am
     5    67    66    1
     6    80    78   ar
     7    94    93    1
     8    78    79   ar
     9    78    77    1
    10    74    77    1
    11    74    75    1
    12    56    55    2
    13    60    58    1
    14    58    57    1
    15    66    65    1
    16    66    69    1
    17    81    75   am
    18    81    82    1
    19    88    86    1
    20    93    90    1
    21    75    76    2
    22    65    63   am
    23    89    90    1
    24    85    82    1
    25    85    86    1
    26    55    54    1
    27    55    61   am
    28    63    64    2
    29    63    62    1
    30    82    83    1
    31    83    84    2
    32    90    91    1
    33    86    87    1
    34    69    70    1
    35    62    61    1
    36    57    54    1
    37    57    59    1
    38    39    38    2
    39    54    53    1
    40    42    43    1
    41    42    41    1
    42    43    44    1
    43    38    37    1
    44    70    71    1
    45    91    97   am
    46    91    92    2
    47    97    98    1
    48   143   144    1
    49    40    41    1
    50    40    37    1
    51    37    36    1
    52   144   147    1
    53   144   145    1
    54    71    72    1
    55   139   138    2
    56   147   148    1
    57   149   148   ar
    58   149   151   ar
    59    98   101    1
    60    98    99    1
    61   162   161    1
    62   102   101    1
    63   102   103    1
    64   102   104    1
    65    34    33    2
    66   157   158    1
    67   148   150   ar
    68   145   146    2
    69    99   100    2
    70   138   137    1
    71   112   110    1
    72   151   152   ar
    73   158   161    1
    74   158   159    1
    75   105   106    1
    76   110   109    1
    77   161   163    1
    78    33    32    1
    79    48    47    2
    80   141   140    1
    81    32    35    1
    82    32    31    1
    83   150   152   ar
    84   150   153   ar
    85   159   160    2
    86   152   154   ar
    87   109   106    1
    88   109   111    1
    89   137   140    1
    90   137   136    1
    91    51    50   ar
    92    47    46    1
    93   106   107    1
    94   140   142    1
    95    26    25    2
    96   153   155   ar
    97    31    25   am
    98    25    24    1
    99   154   156   ar
   100    50    52   ar
   101    50    49    1
   102   107   108    2
   103    46    45    1
   104    46    49    1
   105   155   156   ar
   106    20    19    2
   107    24    27    1
   108    24    23    1
   109   135   134    1
   110   164   165    1
   111    27    28    1
   112    12    11    2
   113   170   168    1
   114    19    18    1
   115   165   168    1
   116   165   166    1
   117    18    17    1
   118    18    21    1
   119   134   132   ar
   120   134   133   ar
   121    11    17   am
   122    11    10    1
   123    28    30   ar
   124    28    29   ar
   125   123   121   ar
   126   123   122   ar
   127   168   169    1
   128   121   119   ar
   129   132   130   ar
   130   166   167    2
   131    22    21    1
   132   122   120   ar
   133   133   131   ar
   134   119   118   ar
   135    13    10    1
   136    13    14    1
   137    10     9    1
   138   120   118   ar
   139   118   117    1
   140    16    14   am
   141    14    15    2
   142   117   114    1
   143   130   129   ar
   144   131   129   ar
   145   129   128    1
   146     4     3    2
   147   114   113    1
   148   114   115    1
   149     8     6    1
   150   115   124   am
   151   115   116    2
   152     3     2    1
   153   124   125    1
   154   128   125    1
   155     2     5    1
   156     2     1    1
   157     5     6    1
   158   125   126    1
   159     6     7    1
   160   126   127    2
