@<TRIPOS>MOLECULE
tmp/5lo5A00.pdb
 193 184 0 0 0
SMALL
GASTEIGER

@<TRIPOS>ATOM
      1  N         17.1420   25.0810   20.3280 N.3     5  ALA5       -0.1231
      2  CA        17.7270   25.3840   21.6320 C.3     5  ALA5        0.1694
      3  C         17.2460   26.7390   22.1400 C.2     5  ALA5        0.2592
      4  O         17.1420   27.6990   21.3730 O.2     5  ALA5       -0.2718
      5  CB        19.2490   25.3870   21.5350 C.3     5  ALA5        0.0304
      6  N         16.9580   26.8170   23.4370 N.am    6  PHE6       -0.1962
      7  CA        16.7200   28.1060   24.0770 C.3     6  PHE6        0.1771
      8  C         18.0050   28.9270   24.0940 C.2     6  PHE6        0.2619
      9  O         19.0990   28.3770   24.2340 O.2     6  PHE6       -0.2715
     10  CB        16.2470   27.9210   25.5230 C.3     6  PHE6        0.0574
     11  CG        14.8100   27.5050   25.6500 C.ar    6  PHE6       -0.0200
     12  CD1       13.7910   28.3720   25.2970 C.ar    6  PHE6       -0.0042
     13  CD2       14.4800   26.2520   26.1350 C.ar    6  PHE6       -0.0042
     14  CE1       12.4610   27.9940   25.4270 C.ar    6  PHE6       -0.0003
     15  CE2       13.1550   25.8660   26.2680 C.ar    6  PHE6       -0.0003
     16  CZ        12.1460   26.7390   25.9120 C.ar    6  PHE6       -0.0000
     17  N         17.8660   30.2410   23.9600 N.am    7  GLN7       -0.1977
     18  CA        18.9630   31.1450   24.2870 C.3     7  GLN7        0.1601
     19  C         19.4260   30.8320   25.7050 C.2     7  GLN7        0.2287
     20  O         18.6180   30.4870   26.5670 O.2     7  GLN7       -0.2864
     21  CB        18.4930   32.5980   24.2060 C.3     7  GLN7        0.0394
     22  CG        18.0690   33.0330   22.8150 C.3     7  GLN7        0.0908
     23  CD        19.2080   32.9720   21.8160 C.2     7  GLN7        0.2608
     24  OE1       20.3110   33.4470   22.0870 O.2     7  GLN7       -0.2717
     25  NE2       18.9460   32.3810   20.6540 N.am    7  GLN7       -0.0878
     26  N         17.6540   32.3660   28.7610 N.3    10  ILE10      -0.1245
     27  CA        16.2950   31.8870   28.9690 C.3    10  ILE10       0.1561
     28  C         16.3080   30.4870   29.5720 C.2    10  ILE10       0.2260
     29  O         15.5030   30.1740   30.4490 O.2    10  ILE10      -0.2867
     30  CB        15.4940   31.8940   27.6480 C.3    10  ILE10       0.0252
     31  CG1       15.3500   33.3360   27.1520 C.3    10  ILE10       0.0019
     32  CG2       14.1250   31.2630   27.8610 C.3    10  ILE10       0.0019
     33  CD1       14.5670   33.4820   25.8700 C.3    10  ILE10       0.0001
     34  N         -0.7150   34.0350   32.9030 N.3    32  LEU32      -0.1245
     35  CA        -1.2070   33.4690   31.6530 C.3    32  LEU32       0.1561
     36  C         -2.5130   34.1270   31.2120 C.2    32  LEU32       0.2260
     37  O         -2.7050   34.4100   30.0260 O.2    32  LEU32      -0.2867
     38  CB        -1.3840   31.9540   31.7900 C.3    32  LEU32       0.0270
     39  CG        -0.0790   31.1940   32.0640 C.3    32  LEU32       0.0019
     40  CD1       -0.3840   29.7170   32.2650 C.3    32  LEU32       0.0001
     41  CD2        0.8930   31.3870   30.9060 C.3    32  LEU32       0.0001
     42  N         -1.6610   37.4600   29.6910 N.3    35  ASN35      -0.1225
     43  CA        -1.1960   37.3210   28.3150 C.3    35  ASN35       0.1785
     44  C         -2.3520   37.0530   27.3490 C.2    35  ASN35       0.2597
     45  O         -2.3590   37.5690   26.2320 O.2    35  ASN35      -0.2718
     46  CB        -0.1520   36.2030   28.2130 C.3    35  ASN35       0.1169
     47  CG         1.2090   36.6220   28.7440 C.2    35  ASN35       0.2627
     48  OD1        1.3820   37.7360   29.2390 O.2    35  ASN35      -0.2716
     49  ND2        2.1840   35.7270   28.6430 N.am   35  ASN35      -0.0877
     50  N         -3.3330   36.2640   27.7820 N.am   36  SER36      -0.1952
     51  CA        -4.5440   36.0670   26.9860 C.3    36  SER36       0.1924
     52  C         -5.2770   37.3900   26.7710 C.2    36  SER36       0.2314
     53  O         -5.6940   37.7050   25.6540 O.2    36  SER36      -0.2863
     54  CB        -5.4800   35.0700   27.6750 C.3    36  SER36       0.2116
     55  OG        -4.9640   33.7470   27.6140 O.3    36  SER36      -0.2180
     56  N         -3.6520   39.5410   24.1840 N.3    39  ALA39      -0.1245
     57  CA        -3.8800   39.0220   22.8390 C.3    39  ALA39       0.1562
     58  C         -5.2870   39.3410   22.3490 C.2    39  ALA39       0.2260
     59  O         -5.5020   39.5900   21.1550 O.2    39  ALA39      -0.2867
     60  CB        -3.6530   37.5170   22.8160 C.3    39  ALA39       0.0290
     61  N         -7.9700   31.0350   24.7040 N.3    77  ASP77      -0.1239
     62  CA        -8.5190   32.3370   24.3500 C.3    77  ASP77       0.1674
     63  C         -8.7130   32.4630   22.8480 C.2    77  ASP77       0.2266
     64  O         -8.1540   31.6830   22.0690 O.2    77  ASP77      -0.2867
     65  CB        -7.6190   33.4740   24.8610 C.3    77  ASP77       0.1410
     66  CG        -6.2800   33.5340   24.1510 C.2    77  ASP77       0.3668
     67  OD1       -6.2660   33.7860   22.9270 O.co2  77  ASP77      -0.2456
     68  OD2       -5.2440   33.3350   24.8260 O.co2  77  ASP77      -0.2456
     69  N         -5.4600   37.2030   19.2280 N.3    80  ILE80      -0.1231
     70  CA        -4.8900   37.3960   17.9000 C.3    80  ILE80       0.1692
     71  C         -4.1180   36.1750   17.3960 C.2    80  ILE80       0.2593
     72  O         -3.9870   35.9760   16.1890 O.2    80  ILE80      -0.2718
     73  CB        -3.9660   38.6360   17.8810 C.3    80  ILE80       0.0266
     74  CG1       -3.5090   38.9290   16.4500 C.3    80  ILE80       0.0019
     75  CG2       -2.7650   38.4040   18.7870 C.3    80  ILE80       0.0020
     76  CD1       -2.8900   40.3000   16.2760 C.3    80  ILE80       0.0001
     77  N         -3.6090   35.3570   18.3140 N.am   81  GLY81      -0.1942
     78  CA        -2.8410   34.1930   17.9080 C.3    81  GLY81       0.2014
     79  C         -1.4070   34.5350   17.5460 C.2    81  GLY81       0.2638
     80  O         -1.0440   35.7100   17.4480 O.2    81  GLY81      -0.2714
     81  N         -0.5910   33.5060   17.3420 N.am   82  MET82      -0.1976
     82  CA         0.8270   33.6940   17.0480 C.3    82  MET82       0.1605
     83  C          1.2460   33.0120   15.7500 C.2    82  MET82       0.2287
     84  O          0.7370   31.9460   15.4000 O.2    82  MET82      -0.2864
     85  CB         1.6790   33.1720   18.2130 C.3    82  MET82       0.0413
     86  CG         1.6160   34.0550   19.4560 C.3    82  MET82       0.0598
     87  SD         2.3120   33.2850   20.9340 S.3    82  MET82      -0.1393
     88  CE         1.0620   32.0450   21.2980 C.3    82  MET82       0.0692
     89  N          6.6930   34.1100   15.3560 N.3    86  ASP86      -0.1225
     90  CA         6.5010   34.4400   16.7700 C.3    86  ASP86       0.1805
     91  C          7.0470   33.3120   17.6420 C.2    86  ASP86       0.2598
     92  O          7.7470   33.5510   18.6270 O.2    86  ASP86      -0.2718
     93  CB         5.0130   34.6210   17.0920 C.3    86  ASP86       0.1424
     94  CG         4.4650   35.9700   16.6590 C.2    86  ASP86       0.3668
     95  OD1        5.2450   36.9410   16.5510 O.co2  86  ASP86      -0.2456
     96  OD2        3.2370   36.0520   16.4370 O.co2  86  ASP86      -0.2456
     97  N          6.7170   32.0780   17.2710 N.am   87  LEU87      -0.1966
     98  CA         6.9990   30.9120   18.1020 C.3    87  LEU87       0.1728
     99  C          8.4720   30.5210   18.0900 C.2    87  LEU87       0.2616
    100  O          8.9990   30.0300   19.0890 O.2    87  LEU87      -0.2715
    101  CB         6.1590   29.7190   17.6340 C.3    87  LEU87       0.0311
    102  CG         4.6420   29.8780   17.7440 C.3    87  LEU87       0.0022
    103  CD1        3.9540   28.6570   17.1520 C.3    87  LEU87       0.0001
    104  CD2        4.2480   30.0640   19.2050 C.3    87  LEU87       0.0001
    105  N          9.1310   30.7230   16.9540 N.am   88  ILE88      -0.1977
    106  CA        10.5310   30.3460   16.8310 C.3    88  ILE88       0.1596
    107  C         11.4690   31.4940   17.2050 C.2    88  ILE88       0.2287
    108  O         12.4290   31.2910   17.9500 O.2    88  ILE88      -0.2864
    109  CB        10.8510   29.8740   15.3970 C.3    88  ILE88       0.0276
    110  CG1       10.0350   28.6220   15.0700 C.3    88  ILE88       0.0022
    111  CG2       12.3350   29.5730   15.2700 C.3    88  ILE88       0.0022
    112  CD1       10.1660   28.1590   13.6320 C.3    88  ILE88       0.0001
    113  N          9.2520   36.1350   19.8730 N.3    91  LEU91      -0.1231
    114  CA         8.9680   36.2390   21.2970 C.3    91  LEU91       0.1693
    115  C         10.1970   35.9110   22.1360 C.2    91  LEU91       0.2592
    116  O         10.3960   36.4860   23.2060 O.2    91  LEU91      -0.2718
    117  CB         7.8020   35.3190   21.6670 C.3    91  LEU91       0.0284
    118  CG         6.4990   35.6890   20.9520 C.3    91  LEU91       0.0019
    119  CD1        5.4020   34.7230   21.3550 C.3    91  LEU91       0.0001
    120  CD2        6.1110   37.1190   21.2930 C.3    91  LEU91       0.0001
    121  N         11.0300   35.0010   21.6440 N.am   92  GLY92      -0.1957
    122  CA        12.2550   34.6820   22.3530 C.3    92  GLY92       0.1869
    123  C         13.2340   35.8390   22.3400 C.2    92  GLY92       0.2309
    124  O         13.8850   36.1260   23.3470 O.2    92  GLY92      -0.2863
    125  N          5.2170   34.4330   31.2840 N.3   122  PHE122     -0.1227
    126  CA         4.9500   33.1050   30.7380 C.3   122  PHE122      0.1736
    127  C          5.7050   32.0070   31.4820 C.2   122  PHE122      0.2595
    128  O          5.1600   30.9340   31.7530 O.2   122  PHE122     -0.2718
    129  CB         5.3340   33.0450   29.2590 C.3   122  PHE122      0.0547
    130  CG         5.4590   31.6460   28.7320 C.ar  122  PHE122     -0.0202
    131  CD1        4.3310   30.8710   28.5200 C.ar  122  PHE122     -0.0042
    132  CD2        6.7060   31.0890   28.4910 C.ar  122  PHE122     -0.0042
    133  CE1        4.4430   29.5590   28.0790 C.ar  122  PHE122     -0.0003
    134  CE2        6.8230   29.7790   28.0520 C.ar  122  PHE122     -0.0003
    135  CZ         5.6900   29.0140   27.8470 C.ar  122  PHE122     -0.0000
    136  N          6.9660   32.2670   31.8070 N.am  123  TYR123     -0.1976
    137  CA         7.8160   31.2080   32.3230 C.3   123  TYR123      0.1639
    138  C          7.4060   30.7590   33.7180 C.2   123  TYR123      0.2290
    139  O          7.8460   29.7060   34.1880 O.2   123  TYR123     -0.2864
    140  CB         9.2840   31.6550   32.2900 C.3   123  TYR123      0.0560
    141  CG         9.7640   31.9420   30.8830 C.ar  123  TYR123     -0.0198
    142  CD1       10.2070   30.9150   30.0580 C.ar  123  TYR123     -0.0009
    143  CD2        9.7160   33.2270   30.3590 C.ar  123  TYR123     -0.0009
    144  CE1       10.5830   31.1600   28.7510 C.ar  123  TYR123      0.0417
    145  CE2       10.0900   33.4820   29.0490 C.ar  123  TYR123      0.0417
    146  CZ        10.5210   32.4410   28.2520 C.ar  123  TYR123      0.1957
    147  OH        10.8850   32.6860   26.9470 O.3   123  TYR123     -0.2866
    148  N          1.6670   24.7850   23.6830 N.3   134  VAL134     -0.1245
    149  CA         0.9220   25.9550   23.2350 C.3   134  VAL134      0.1561
    150  C          0.4600   25.7290   21.8000 C.2   134  VAL134      0.2260
    151  O          1.2810   25.6040   20.8900 O.2   134  VAL134     -0.2867
    152  CB         1.7960   27.2300   23.2990 C.3   134  VAL134      0.0252
    153  CG1        0.9900   28.4390   22.8510 C.3   134  VAL134      0.0019
    154  CG2        2.3210   27.4320   24.7140 C.3   134  VAL134      0.0019
    155  N          3.6860   24.6340   19.7940 N.3   146  TRP146     -0.1241
    156  CA         4.9770   24.8580   20.4430 C.3   146  TRP146      0.1605
    157  C          4.9620   24.0420   21.7340 C.2   146  TRP146      0.2264
    158  O          3.9280   23.9340   22.3900 O.2   146  TRP146     -0.2867
    159  CB         5.1360   26.3530   20.7610 C.3   146  TRP146      0.0550
    160  CG         6.4010   26.7440   21.4860 C.ar  146  TRP146      0.0003
    161  CD1        7.5190   27.3080   20.9360 C.ar  146  TRP146      0.0946
    162  CD2        6.6550   26.6470   22.8960 C.ar  146  TRP146      0.0152
    163  NE1        8.4500   27.5670   21.9150 N.ar  146  TRP146     -0.2442
    164  CE2        7.9450   27.1710   23.1250 C.ar  146  TRP146      0.0810
    165  CE3        5.9190   26.1680   23.9870 C.ar  146  TRP146      0.0012
    166  CZ2        8.5130   27.2300   24.4000 C.ar  146  TRP146      0.0191
    167  CZ3        6.4870   26.2270   25.2540 C.ar  146  TRP146      0.0001
    168  CH2        7.7690   26.7540   25.4480 C.ar  146  TRP146      0.0015
    169  N         13.0430   23.3470   22.8520 N.3   154  PHE154     -0.1241
    170  CA        11.6080   23.3490   22.5940 C.3   154  PHE154      0.1605
    171  C         11.3640   22.8480   21.1770 C.2   154  PHE154      0.2264
    172  O         12.2930   22.7910   20.3660 O.2   154  PHE154     -0.2867
    173  CB        11.0270   24.7620   22.7700 C.3   154  PHE154      0.0534
    174  CG        11.5740   25.7870   21.8030 C.ar  154  PHE154     -0.0203
    175  CD1       10.9200   26.0560   20.6040 C.ar  154  PHE154     -0.0042
    176  CD2       12.7140   26.5170   22.1140 C.ar  154  PHE154     -0.0042
    177  CE1       11.3860   27.0350   19.7410 C.ar  154  PHE154     -0.0003
    178  CE2       13.1890   27.4970   21.2570 C.ar  154  PHE154     -0.0003
    179  CZ        12.5230   27.7580   20.0650 C.ar  154  PHE154     -0.0000
    180  N         -5.3030   31.0990   21.0130 N.3   168  THR168     -0.1218
    181  CA        -4.2180   30.3620   21.6410 C.3   168  THR168      0.1862
    182  C         -4.7330   29.4720   22.7640 C.2   168  THR168      0.2287
    183  O         -5.6060   29.8680   23.5430 O.2   168  THR168     -0.2866
    184  CB        -3.1580   31.3320   22.2030 C.3   168  THR168      0.1770
    185  OG1       -2.6120   32.1000   21.1280 O.3   168  THR168     -0.2211
    186  CG2       -2.0350   30.5710   22.9020 C.3   168  THR168      0.0375
    187  N         -3.1140   27.2310   25.8830 N.3   170  VAL170     -0.1245
    188  CA        -1.9480   26.8530   26.6750 C.3   170  VAL170      0.1561
    189  C         -2.2990   25.6530   27.5370 C.2   170  VAL170      0.2260
    190  O         -3.1440   25.7420   28.4350 O.2   170  VAL170     -0.2867
    191  CB        -1.4830   28.0070   27.5860 C.3   170  VAL170      0.0252
    192  CG1       -0.3040   27.5530   28.4440 C.3   170  VAL170      0.0019
    193  CG2       -1.0990   29.2070   26.7400 C.3   170  VAL170      0.0019
@<TRIPOS>BOND
     1   112   110    1
     2   110   109    1
     3   111   109    1
     4    89    90    1
     5   109   106    1
     6    84    83    2
     7    83    82    1
     8    72    71    2
     9    76    74    1
    10    96    94   ar
    11    74    73    1
    12    95    94   ar
    13    94    93    1
    14    90    93    1
    15    90    91    1
    16   106   105    1
    17   106   107    1
    18   105    99   am
    19    82    81    1
    20    82    85    1
    21   103   102    1
    22   107   108    2
    23    97    91   am
    24    97    98    1
    25    81    79   am
    26    71    70    1
    27    71    77   am
    28    80    79    2
    29    79    78    1
    30   101   102    1
    31   101    98    1
    32    91    92    2
    33   102   104    1
    34    73    70    1
    35    73    75    1
    36    70    69    1
    37    78    77    1
    38    99    98    1
    39    99   100    2
    40    85    86    1
    41    86    87    1
    42   177   179   ar
    43   177   175   ar
    44   155   156    1
    45   113   114    1
    46   179   178   ar
    47     1     2    1
    48   172   171    2
    49   156   159    1
    50   156   157    1
    51   175   174   ar
    52    25    23   am
    53   159   160    1
    54   151   150    2
    55    87    88    1
    56   161   160   ar
    57   161   163   ar
    58   118   120    1
    59   118   119    1
    60   118   117    1
    61   180   181    1
    62   185   184    1
    63    59    58    2
    64   171   170    1
    65   178   176   ar
    66   114   117    1
    67   114   115    1
    68     4     3    2
    69   160   162   ar
    70     5     2    1
    71     2     3    1
    72   181   184    1
    73   181   182    1
    74   121   115   am
    75   121   122    1
    76   157   158    2
    77   150   149    1
    78   174   176   ar
    79   174   173    1
    80    23    24    2
    81    23    22    1
    82   163   164   ar
    83    64    63    2
    84   115   116    2
    85     3     6   am
    86   184   186    1
    87   123   122    1
    88   123   124    2
    89    58    57    1
    90   170   173    1
    91   170   169    1
    92   182   183    2
    93    22    21    1
    94    60    57    1
    95    57    56    1
    96    63    62    1
    97   153   152    1
    98   162   164   ar
    99   162   165   ar
   100    67    66   ar
   101   164   166   ar
   102   149   152    1
   103   149   148    1
   104   152   154    1
   105     6     7    1
   106    17     8   am
   107    17    18    1
   108   165   167   ar
   109     7     8    1
   110     7    10    1
   111     8     9    2
   112    66    68   ar
   113    66    65    1
   114    21    18    1
   115    18    19    1
   116    62    61    1
   117    62    65    1
   118   166   168   ar
   119   167   168   ar
   120    12    14   ar
   121    12    11   ar
   122    14    16   ar
   123    10    11    1
   124    11    13   ar
   125    53    52    2
   126    19    20    2
   127    33    31    1
   128   187   188    1
   129    16    15   ar
   130    13    15   ar
   131    45    44    2
   132   188   189    1
   133   188   191    1
   134   193   191    1
   135    52    51    1
   136   147   146    1
   137    51    54    1
   138    51    50    1
   139    31    30    1
   140    44    50   am
   141    44    43    1
   142   189   190    2
   143   191   192    1
   144    55    54    1
   145    30    32    1
   146    30    27    1
   147   135   134   ar
   148   135   133   ar
   149   134   132   ar
   150   133   131   ar
   151    46    43    1
   152    46    47    1
   153   146   144   ar
   154   146   145   ar
   155    43    42    1
   156   132   130   ar
   157   131   130   ar
   158    49    47   am
   159   130   129    1
   160    47    48    2
   161   144   142   ar
   162    26    27    1
   163    27    28    1
   164   145   143   ar
   165   129   126    1
   166    28    29    2
   167    37    36    2
   168   142   141   ar
   169   143   141   ar
   170   126   125    1
   171   126   127    1
   172   141   140    1
   173    41    39    1
   174    36    35    1
   175   127   128    2
   176   127   136   am
   177    35    38    1
   178    35    34    1
   179    38    39    1
   180   136   137    1
   181    39    40    1
   182   140   137    1
   183   137   138    1
   184   138   139    2
