@<TRIPOS>MOLECULE
tmp/5lo6A00.pdb
 174 162 0 0 0
SMALL
GASTEIGER

@<TRIPOS>ATOM
      1  N         -1.0510   11.8750   16.4830 N.3    32  LEU32      -0.1245
      2  CA        -1.6280   12.4610   17.6930 C.3    32  LEU32       0.1561
      3  C         -2.9120   11.7630   18.0910 C.2    32  LEU32       0.2260
      4  O         -3.0460   11.3850   19.2550 O.2    32  LEU32      -0.2867
      5  CB        -1.7750   13.9860   17.5810 C.3    32  LEU32       0.0270
      6  CG        -0.4360   14.7500   17.4230 C.3    32  LEU32       0.0019
      7  CD1       -0.6800   16.2210   17.1810 C.3    32  LEU32       0.0001
      8  CD2        0.4870   14.5250   18.6260 C.3    32  LEU32       0.0001
      9  N         -2.0100    8.3530   19.6980 N.3    35  ASN35      -0.1225
     10  CA        -1.5500    8.5300   21.0870 C.3    35  ASN35       0.1785
     11  C         -2.7400    8.7570   22.0170 C.2    35  ASN35       0.2597
     12  O         -2.7770    8.1710   23.0970 O.2    35  ASN35      -0.2718
     13  CB        -0.5690    9.7010   21.2050 C.3    35  ASN35       0.1169
     14  CG         0.8220    9.4710   20.6500 C.2    35  ASN35       0.2627
     15  OD1        1.1740    8.3780   20.2250 O.2    35  ASN35      -0.2716
     16  ND2        1.6660   10.5080   20.6660 N.am   35  ASN35      -0.0877
     17  N         -3.7260    9.5720   21.5710 N.am   36  SER36      -0.1952
     18  CA        -4.9860    9.8610   22.2720 C.3    36  SER36       0.1924
     19  C         -5.7620    8.5610   22.5110 C.2    36  SER36       0.2314
     20  O         -6.1750    8.2860   23.6370 O.2    36  SER36      -0.2863
     21  CB        -5.8420   10.8370   21.4670 C.3    36  SER36       0.2116
     22  OG        -5.4090   12.1760   21.6340 O.3    36  SER36      -0.2180
     23  N         -4.5420    5.4970   22.5660 N.3    38  ASP38      -0.1225
     24  CA        -3.7650    4.6360   23.4860 C.3    38  ASP38       0.1805
     25  C         -4.0360    5.0040   24.9410 C.2    38  ASP38       0.2597
     26  O         -4.2080    4.1120   25.7690 O.2    38  ASP38      -0.2718
     27  CB        -2.2460    4.7000   23.1870 C.3    38  ASP38       0.1424
     28  CG        -1.7900    4.0430   21.8900 C.2    38  ASP38       0.3668
     29  OD1       -2.5170    3.1620   21.3790 O.co2  38  ASP38      -0.2456
     30  OD2       -0.7070    4.4160   21.3840 O.co2  38  ASP38      -0.2456
     31  N         -4.1210    6.3150   25.2380 N.am   39  ALA39      -0.1979
     32  CA        -4.4170    6.8500   26.5770 C.3    39  ALA39       0.1597
     33  C         -5.8800    6.5200   26.9850 C.2    39  ALA39       0.2287
     34  O         -6.1580    6.2340   28.1490 O.2    39  ALA39      -0.2864
     35  CB        -4.1860    8.3530   26.5910 C.3    39  ALA39       0.0319
     36  N         -6.0400    2.8760   27.9220 N.3    42  LYS42      -0.1245
     37  CA        -5.4120    2.7670   29.2430 C.3    42  LYS42       0.1561
     38  C         -6.4010    3.0650   30.3680 C.2    42  LYS42       0.2260
     39  O         -6.4320    2.3290   31.3580 O.2    42  LYS42      -0.2867
     40  CB        -4.1770    3.6860   29.3390 C.3    42  LYS42       0.0271
     41  CG        -2.8380    2.9600   29.3670 C.3    42  LYS42       0.0035
     42  CD        -1.6700    3.9450   29.1880 C.3    42  LYS42       0.0206
     43  CE        -0.3600    3.3040   28.7710 C.3    42  LYS42       0.1093
     44  NZ         0.6240    4.3160   28.2780 N.3    42  LYS42      -0.1314
     45  N         -8.2300   14.8660   24.4970 N.3    77  ASP77      -0.1239
     46  CA        -8.7590   13.5370   24.7900 C.3    77  ASP77       0.1674
     47  C         -9.0120   13.4460   26.2740 C.2    77  ASP77       0.2266
     48  O         -8.4290   14.2050   27.0420 O.2    77  ASP77      -0.2867
     49  CB        -7.8430   12.4070   24.2800 C.3    77  ASP77       0.1410
     50  CG        -6.5160   12.2870   24.9830 C.2    77  ASP77       0.3668
     51  OD1       -6.4990   11.8240   26.1420 O.co2  77  ASP77      -0.2456
     52  OD2       -5.4960   12.6360   24.3740 O.co2  77  ASP77      -0.2456
     53  N         -6.2180    8.5620   30.1020 N.3    80  ILE80      -0.1231
     54  CA        -5.6240    8.3920   31.4280 C.3    80  ILE80       0.1692
     55  C         -4.8060    9.6320   31.9040 C.2    80  ILE80       0.2593
     56  O         -4.6660    9.8300   33.1050 O.2    80  ILE80      -0.2718
     57  CB        -4.8140    7.0630   31.4810 C.3    80  ILE80       0.0266
     58  CG1       -4.4490    6.6610   32.9390 C.3    80  ILE80       0.0019
     59  CG2       -3.5970    7.0760   30.5650 C.3    80  ILE80       0.0020
     60  CD1       -4.4420    5.2280   33.2020 C.3    80  ILE80       0.0001
     61  N         -4.2940   10.4450   30.9830 N.am   81  GLY81      -0.1942
     62  CA        -3.4840   11.6000   31.3450 C.3    81  GLY81       0.2014
     63  C         -2.0900   11.1910   31.7760 C.2    81  GLY81       0.2638
     64  O         -1.7570   10.0000   31.7770 O.2    81  GLY81      -0.2714
     65  N         -1.2450   12.1750   32.1130 N.am   82  MET82      -0.1976
     66  CA         0.1290   11.8990   32.5530 C.3    82  MET82       0.1605
     67  C          0.4690   12.6270   33.8530 C.2    82  MET82       0.2287
     68  O          0.1230   13.8030   34.0130 O.2    82  MET82      -0.2864
     69  CB         1.1520   12.2900   31.4700 C.3    82  MET82       0.0413
     70  CG         1.0850   11.4510   30.2150 C.3    82  MET82       0.0598
     71  SD         2.1830   12.0380   28.9090 S.3    82  MET82      -0.1393
     72  CE         1.2670   13.5220   28.3300 C.3    82  MET82       0.0692
     73  N          5.1100   12.0750   32.3070 N.3    87  LEU87      -0.1245
     74  CA         5.4640   13.0890   31.3290 C.3    87  LEU87       0.1561
     75  C          6.9810   13.1560   31.0900 C.2    87  LEU87       0.2260
     76  O          7.3950   13.1330   29.9420 O.2    87  LEU87      -0.2867
     77  CB         4.8900   14.4480   31.7590 C.3    87  LEU87       0.0270
     78  CG         5.2560   15.6660   30.9310 C.3    87  LEU87       0.0019
     79  CD1        4.6030   15.6070   29.5460 C.3    87  LEU87       0.0001
     80  CD2        4.8530   16.9430   31.6710 C.3    87  LEU87       0.0001
     81  N          8.3030    9.7530   29.4820 N.3    90  ASN90      -0.1225
     82  CA         7.8970    9.6190   28.0800 C.3    90  ASN90       0.1785
     83  C          8.8300   10.3610   27.1170 C.2    90  ASN90       0.2597
     84  O          8.9090    9.9900   25.9480 O.2    90  ASN90      -0.2718
     85  CB         6.4450   10.0390   27.8750 C.3    90  ASN90       0.1169
     86  CG         5.4430    8.9680   28.2050 C.2    90  ASN90       0.2627
     87  OD1        5.4270    7.8820   27.6170 O.2    90  ASN90      -0.2716
     88  ND2        4.5280    9.2830   29.0880 N.am   90  ASN90      -0.0877
     89  N          9.5430   11.3910   27.6130 N.am   91  LEU91      -0.1980
     90  CA        10.5220   12.1620   26.8340 C.3    91  LEU91       0.1596
     91  C         11.9530   11.6620   27.1420 C.2    91  LEU91       0.2287
     92  O         12.9250   12.2600   26.6710 O.2    91  LEU91      -0.2864
     93  CB        10.4280   13.6650   27.1730 C.3    91  LEU91       0.0297
     94  CG         9.1020   14.3710   26.9500 C.3    91  LEU91       0.0022
     95  CD1        8.7910   15.2680   28.1180 C.3    91  LEU91       0.0001
     96  CD2        9.1290   15.1740   25.6730 C.3    91  LEU91       0.0001
     97  N         12.8400    5.8250   27.1810 N.3    94  ILE94      -0.1245
     98  CA        11.8040    5.0430   26.4960 C.3    94  ILE94       0.1561
     99  C         11.7620    5.4180   25.0050 C.2    94  ILE94       0.2260
    100  O         11.6480    4.5350   24.1500 O.2    94  ILE94      -0.2867
    101  CB        10.4230    5.1500   27.2460 C.3    94  ILE94       0.0252
    102  CG1       10.1500    3.8890   28.1220 C.3    94  ILE94       0.0019
    103  CG2        9.2110    5.4980   26.3520 C.3    94  ILE94       0.0019
    104  CD1       10.0950    2.4550   27.4130 C.3    94  ILE94       0.0001
    105  N          5.6230    6.5790   13.4970 N.3   116  GLY116     -0.1225
    106  CA         4.7620    5.9100   14.4720 C.3   116  GLY116      0.1811
    107  C          5.1560    4.4850   14.8060 C.2   116  GLY116      0.2280
    108  O          5.0150    4.0580   15.9570 O.2   116  GLY116     -0.2866
    109  N          7.4840    4.4520   17.6450 N.3   119  GLY119     -0.1225
    110  CA         6.9050    5.0120   18.8630 C.3   119  GLY119      0.1811
    111  C          7.2940    6.4330   19.2000 C.2   119  GLY119      0.2280
    112  O          7.2130    6.8420   20.3670 O.2   119  GLY119     -0.2866
    113  N          6.0590    9.0910   17.0890 N.3   121  GLY121     -0.1210
    114  CA         5.1260    9.7970   16.2210 C.3   121  GLY121      0.1956
    115  C          4.7340   11.1900   16.6720 C.2   121  GLY121      0.2612
    116  O          4.4480   12.0460   15.8320 O.2   121  GLY121     -0.2717
    117  N          4.7610   11.4550   17.9860 N.am  122  PHE122     -0.1962
    118  CA         4.4610   12.7820   18.5310 C.3   122  PHE122      0.1771
    119  C          5.2870   13.8930   17.8350 C.2   122  PHE122      0.2619
    120  O          4.7500   14.9710   17.5330 O.2   122  PHE122     -0.2715
    121  CB         4.7520   12.8100   20.0520 C.3   122  PHE122      0.0574
    122  CG         4.7470   14.2090   20.6130 C.ar  122  PHE122     -0.0200
    123  CD1        3.5460   14.8600   20.8930 C.ar  122  PHE122     -0.0042
    124  CD2        5.9390   14.9170   20.7700 C.ar  122  PHE122     -0.0042
    125  CE1        3.5400   16.1840   21.3430 C.ar  122  PHE122     -0.0003
    126  CE2        5.9330   16.2350   21.2350 C.ar  122  PHE122     -0.0003
    127  CZ         4.7370   16.8640   21.5060 C.ar  122  PHE122     -0.0000
    128  N          6.5920   13.6240   17.5980 N.am  123  TYR123     -0.1974
    129  CA         7.5220   14.6070   17.0510 C.3   123  TYR123      0.1639
    130  C          7.1930   15.0470   15.6030 C.2   123  TYR123      0.2290
    131  O          7.6470   16.1240   15.2000 O.2   123  TYR123     -0.2864
    132  CB         8.9760   14.1480   17.2260 C.3   123  TYR123      0.0560
    133  CG         9.3120   14.0110   18.6970 C.ar  123  TYR123     -0.0198
    134  CD1        9.5660   15.1360   19.4820 C.ar  123  TYR123     -0.0009
    135  CD2        9.2610   12.7690   19.3320 C.ar  123  TYR123     -0.0009
    136  CE1        9.7670   15.0270   20.8590 C.ar  123  TYR123      0.0417
    137  CE2        9.4930   12.6460   20.7000 C.ar  123  TYR123      0.0417
    138  CZ         9.7450   13.7780   21.4600 C.ar  123  TYR123      0.1957
    139  OH         9.9540   13.6580   22.8110 O.3   123  TYR123     -0.2866
    140  N          1.5280   20.9180   25.6690 N.3   134  VAL134     -0.1245
    141  CA         0.8300   19.7210   26.1040 C.3   134  VAL134      0.1561
    142  C          0.3790   19.9670   27.5360 C.2   134  VAL134      0.2260
    143  O          1.2190   20.1400   28.4200 O.2   134  VAL134     -0.2867
    144  CB         1.6940   18.4180   25.9660 C.3   134  VAL134      0.0252
    145  CG1        0.9110   17.1830   26.4240 C.3   134  VAL134      0.0019
    146  CG2        2.1950   18.2280   24.5370 C.3   134  VAL134      0.0019
    147  N          3.5320   21.2590   29.5230 N.3   146  TRP146     -0.1241
    148  CA         4.7780   20.9630   28.8300 C.3   146  TRP146      0.1605
    149  C          4.8100   21.8630   27.5790 C.2   146  TRP146      0.2264
    150  O          3.7740   22.1060   26.9630 O.2   146  TRP146     -0.2867
    151  CB         4.8460   19.4800   28.4370 C.3   146  TRP146      0.0550
    152  CG         6.0730   19.0990   27.6470 C.ar  146  TRP146      0.0003
    153  CD1        7.2230   18.5520   28.1360 C.ar  146  TRP146      0.0946
    154  CD2        6.2410   19.1690   26.2110 C.ar  146  TRP146      0.0152
    155  NE1        8.0860   18.2660   27.1020 N.ar  146  TRP146     -0.2442
    156  CE2        7.5070   18.6290   25.9120 C.ar  146  TRP146      0.0810
    157  CE3        5.4400   19.6430   25.1510 C.ar  146  TRP146      0.0012
    158  CZ2        8.0070   18.5720   24.6040 C.ar  146  TRP146      0.0191
    159  CZ3        5.9380   19.5960   23.8610 C.ar  146  TRP146      0.0001
    160  CH2        7.2060   19.0630   23.5980 C.ar  146  TRP146      0.0015
    161  N         -5.3830   14.6000   28.2740 N.3   168  THR168     -0.1218
    162  CA        -4.3000   15.3380   27.6480 C.3   168  THR168      0.1862
    163  C         -4.8470   16.1890   26.5270 C.2   168  THR168      0.2287
    164  O         -5.7490   15.7750   25.8010 O.2   168  THR168     -0.2866
    165  CB        -3.1970   14.3390   27.2190 C.3   168  THR168      0.1770
    166  OG1       -2.6650   13.7260   28.3960 O.3   168  THR168     -0.2211
    167  CG2       -2.0700   14.9820   26.4320 C.3   168  THR168      0.0375
    168  N         -3.2140   18.5960   23.3540 N.3   170  VAL170     -0.1245
    169  CA        -2.0530   18.9440   22.5350 C.3   170  VAL170      0.1561
    170  C         -2.4370   20.1580   21.7130 C.2   170  VAL170      0.2260
    171  O         -3.4000   20.1120   20.9470 O.2   170  VAL170     -0.2867
    172  CB        -1.4840   17.7700   21.6940 C.3   170  VAL170      0.0252
    173  CG1       -0.3340   18.2330   20.7870 C.3   170  VAL170      0.0019
    174  CG2       -1.0280   16.6220   22.6020 C.3   170  VAL170      0.0019
@<TRIPOS>BOND
     1   105   106    1
     2   106   107    1
     3   107   108    2
     4   131   130    2
     5   130   129    1
     6   116   115    2
     7   114   115    1
     8   114   113    1
     9     1     2    1
    10   115   117   am
    11   129   132    1
    12   129   128    1
    13     7     6    1
    14   132   133    1
    15     6     5    1
    16     6     8    1
    17   120   119    2
    18     5     2    1
    19   128   119   am
    20   109   110    1
    21     2     3    1
    22   119   118    1
    23   117   118    1
    24     3     4    2
    25   118   121    1
    26   133   135   ar
    27   133   134   ar
    28   110   111    1
    29   111   112    2
    30   135   137   ar
    31   134   136   ar
    32     9    10    1
    33   121   122    1
    34    15    14    2
    35   122   124   ar
    36   122   123   ar
    37    14    16   am
    38    14    13    1
    39   137   138   ar
    40   124   126   ar
    41   173   172    1
    42   136   138   ar
    43   123   125   ar
    44   171   170    2
    45    10    13    1
    46    10    11    1
    47   126   127   ar
    48   125   127   ar
    49    29    28   ar
    50    30    28   ar
    51   138   139    1
    52    21    22    1
    53    21    18    1
    54    17    11   am
    55    17    18    1
    56   172   169    1
    57   172   174    1
    58   170   169    1
    59    28    27    1
    60    11    12    2
    61    18    19    1
    62    19    20    2
    63   169   168    1
    64    23    24    1
    65    27    24    1
    66    24    25    1
    67   160   159   ar
    68   160   158   ar
    69   159   157   ar
    70   100    99    2
    71    49    46    1
    72    49    50    1
    73    52    50   ar
    74    45    46    1
    75   146   144    1
    76   158   156   ar
    77    46    47    1
    78    25    31   am
    79    25    26    2
    80    50    51   ar
    81    99    98    1
    82   157   154   ar
    83    31    32    1
    84   140   141    1
    85    96    94    1
    86   164   163    2
    87   156   154   ar
    88   156   155   ar
    89    84    83    2
    90   144   141    1
    91   144   145    1
    92   141   142    1
    93   154   152   ar
    94    47    48    2
    95   103   101    1
    96   167   165    1
    97    98    97    1
    98    98   101    1
    99   163   162    1
   100    32    35    1
   101    32    33    1
   102    92    91    2
   103    90    91    1
   104    90    93    1
   105    90    89    1
   106    94    93    1
   107    94    95    1
   108   150   149    2
   109    33    34    2
   110   155   153   ar
   111    83    89   am
   112    83    82    1
   113   165   162    1
   114   165   166    1
   115   101   102    1
   116   104   102    1
   117   142   143    2
   118   149   148    1
   119    87    86    2
   120   152   153   ar
   121   152   151    1
   122   162   161    1
   123    85    82    1
   124    85    86    1
   125    36    37    1
   126    82    81    1
   127    86    88   am
   128    44    43    1
   129    72    71    1
   130   151   148    1
   131    43    42    1
   132   148   147    1
   133    71    70    1
   134    42    41    1
   135    37    40    1
   136    37    38    1
   137    40    41    1
   138    79    78    1
   139    76    75    2
   140    53    54    1
   141    70    69    1
   142    38    39    2
   143    59    57    1
   144    78    80    1
   145    78    77    1
   146    61    62    1
   147    61    55   am
   148    75    74    1
   149    74    77    1
   150    74    73    1
   151    62    63    1
   152    54    57    1
   153    54    55    1
   154    69    66    1
   155    57    58    1
   156    63    64    2
   157    63    65   am
   158    55    56    2
   159    65    66    1
   160    66    67    1
   161    58    60    1
   162    67    68    2
