@<TRIPOS>MOLECULE
tmp/5lo8B01.pdb
 93 90 0 0 0
SMALL
GASTEIGER

@<TRIPOS>ATOM
      1  N        107.5870    5.8740  -45.0940 N.3    43  PHE43      -0.1241
      2  CA       106.5380    6.6220  -45.7680 C.3    43  PHE43       0.1605
      3  C        107.1690    7.8450  -46.4170 C.2    43  PHE43       0.2264
      4  O        108.0850    8.4530  -45.8560 O.2    43  PHE43      -0.2867
      5  CB       105.4130    7.0290  -44.8070 C.3    43  PHE43       0.0534
      6  CG       105.8710    7.8560  -43.6390 C.ar   43  PHE43      -0.0203
      7  CD1      106.4100    7.2540  -42.5140 C.ar   43  PHE43      -0.0042
      8  CD2      105.7470    9.2350  -43.6610 C.ar   43  PHE43      -0.0042
      9  CE1      106.8270    8.0130  -41.4370 C.ar   43  PHE43      -0.0003
     10  CE2      106.1620    9.9990  -42.5860 C.ar   43  PHE43      -0.0003
     11  CZ       106.7020    9.3870  -41.4730 C.ar   43  PHE43      -0.0000
     12  N        107.0240   11.6480  -47.9880 N.3    45  LYS45      -0.1245
     13  CA       106.3680   12.9340  -47.8140 C.3    45  LYS45       0.1561
     14  C        106.7870   13.8720  -48.9370 C.2    45  LYS45       0.2260
     15  O        107.9560   13.8910  -49.3450 O.2    45  LYS45      -0.2867
     16  CB       106.7070   13.5470  -46.4530 C.3    45  LYS45       0.0271
     17  CG       106.2950   12.6810  -45.2740 C.3    45  LYS45       0.0035
     18  CD       106.7910   13.2590  -43.9610 C.3    45  LYS45       0.0206
     19  CE       106.0980   14.5720  -43.6420 C.3    45  LYS45       0.1093
     20  NZ       104.6390   14.3820  -43.4130 N.3    45  LYS45      -0.1314
     21  N        106.6340   17.8570  -50.8100 N.3    47  TRP47      -0.1241
     22  CA       106.6800   19.2720  -50.4320 C.3    47  TRP47       0.1605
     23  C        107.1120   20.0760  -51.6660 C.2    47  TRP47       0.2264
     24  O        108.3040   20.2500  -51.9120 O.2    47  TRP47      -0.2867
     25  CB       107.6170   19.5020  -49.2620 C.3    47  TRP47       0.0550
     26  CG       107.6300   20.9110  -48.7350 C.ar   47  TRP47       0.0003
     27  CD1      106.8990   21.9710  -49.1920 C.ar   47  TRP47       0.0946
     28  CD2      108.4160   21.4090  -47.6460 C.ar   47  TRP47       0.0152
     29  NE1      107.1850   23.0950  -48.4570 N.ar   47  TRP47      -0.2442
     30  CE2      108.1130   22.7770  -47.5020 C.ar   47  TRP47       0.0810
     31  CE3      109.3480   20.8290  -46.7790 C.ar   47  TRP47       0.0012
     32  CZ2      108.7060   23.5740  -46.5250 C.ar   47  TRP47       0.0191
     33  CZ3      109.9370   21.6230  -45.8110 C.ar   47  TRP47       0.0001
     34  CH2      109.6140   22.9800  -45.6920 C.ar   47  TRP47       0.0015
     35  N        104.2250   27.0970  -46.2040 N.3    53  GLY53      -0.1210
     36  CA       102.9590   26.8030  -45.5510 C.3    53  GLY53       0.1956
     37  C        102.6900   25.3060  -45.5800 C.2    53  GLY53       0.2611
     38  O        103.6170   24.4960  -45.5380 O.2    53  GLY53      -0.2717
     39  N        101.3990   24.9640  -45.6530 N.am   54  LYS54      -0.1979
     40  CA       100.9670   23.5710  -45.6960 C.3    54  LYS54       0.1596
     41  C        100.0500   23.2860  -46.8800 C.2    54  LYS54       0.2287
     42  O         99.4270   22.2200  -46.9300 O.2    54  LYS54      -0.2864
     43  CB       100.2750   23.1720  -44.3900 C.3    54  LYS54       0.0298
     44  CG       101.0000   23.6560  -43.1580 C.3    54  LYS54       0.0038
     45  CD       102.0650   22.6550  -42.7630 C.3    54  LYS54       0.0206
     46  CE       102.6600   22.9900  -41.4220 C.3    54  LYS54       0.1093
     47  NZ       104.1180   23.1630  -41.6010 N.3    54  LYS54      -0.1314
     48  N        102.0500   20.1090  -49.4820 N.3    57  LYS57      -0.1245
     49  CA       102.6940   18.9870  -48.8160 C.3    57  LYS57       0.1561
     50  C        101.7770   17.7770  -48.8810 C.2    57  LYS57       0.2260
     51  O        100.5520   17.9110  -48.9430 O.2    57  LYS57      -0.2867
     52  CB       103.0360   19.3070  -47.3550 C.3    57  LYS57       0.0271
     53  CG       104.3100   20.1120  -47.1680 C.3    57  LYS57       0.0035
     54  CD       104.4650   20.5600  -45.7260 C.3    57  LYS57       0.0206
     55  CE       105.5230   21.6400  -45.5920 C.3    57  LYS57       0.1093
     56  NZ       105.0400   22.7840  -44.7720 N.3    57  LYS57      -0.1314
     57  N        101.6480   13.2160  -47.7690 N.3    59  LYS59      -0.1245
     58  CA       102.2330   12.0680  -47.0940 C.3    59  LYS59       0.1561
     59  C        101.4540   10.8260  -47.5010 C.2    59  LYS59       0.2260
     60  O        100.2230   10.8580  -47.5920 O.2    59  LYS59      -0.2867
     61  CB       102.2340   12.2390  -45.5690 C.3    59  LYS59       0.0271
     62  CG       100.8630   12.4410  -44.9440 C.3    59  LYS59       0.0035
     63  CD       100.9820   13.0140  -43.5400 C.3    59  LYS59       0.0206
     64  CE       101.8580   12.1400  -42.6530 C.3    59  LYS59       0.1093
     65  NZ       101.2170   10.8330  -42.3400 N.3    59  LYS59      -0.1314
     66  N        110.8600    8.7470  -45.0120 N.3    94  TRP94      -0.1241
     67  CA       110.9660    8.6460  -43.5650 C.3    94  TRP94       0.1605
     68  C        110.6650    7.2270  -43.1010 C.2    94  TRP94       0.2264
     69  O        110.1780    6.3820  -43.8590 O.2    94  TRP94      -0.2867
     70  CB       110.0080    9.6250  -42.8740 C.3    94  TRP94       0.0550
     71  CG       110.3730   11.0610  -43.0540 C.ar   94  TRP94       0.0003
     72  CD1      109.9830   11.8850  -44.0690 C.ar   94  TRP94       0.0946
     73  CD2      111.1970   11.8510  -42.1900 C.ar   94  TRP94       0.0152
     74  NE1      110.5160   13.1380  -43.8930 N.ar   94  TRP94      -0.2442
     75  CE2      111.2660   13.1440  -42.7460 C.ar   94  TRP94       0.0810
     76  CE3      111.8850   11.5910  -41.0010 C.ar   94  TRP94       0.0012
     77  CZ2      111.9950   14.1730  -42.1540 C.ar   94  TRP94       0.0191
     78  CZ3      112.6080   12.6130  -40.4150 C.ar   94  TRP94       0.0001
     79  CH2      112.6570   13.8880  -40.9920 C.ar   94  TRP94       0.0015
     80  N        110.6680    9.6760  -32.4020 N.3   101  SER101     -0.1202
     81  CA       110.6040   10.5810  -33.5380 C.3   101  SER101      0.2020
     82  C        110.9070    9.8250  -34.8260 C.2   101  SER101      0.2618
     83  O        111.6280    8.8240  -34.8300 O.2   101  SER101     -0.2717
     84  CB       111.5910   11.7370  -33.3640 C.3   101  SER101      0.2103
     85  OG       111.1260   12.9120  -34.0090 O.3   101  SER101     -0.2182
     86  N        110.3490   10.3140  -35.9280 N.am  102  ASN102     -0.1974
     87  CA       110.6150    9.7010  -37.2200 C.3   102  ASN102      0.1688
     88  C        112.1040    9.7820  -37.5320 C.2   102  ASN102      0.2292
     89  O        112.7140   10.8480  -37.4170 O.2   102  ASN102     -0.2864
     90  CB       109.8040   10.3990  -38.3120 C.3   102  ASN102      0.1181
     91  CG       108.3240   10.1110  -38.2150 C.2   102  ASN102      0.2629
     92  OD1      107.5000   10.9110  -38.6490 O.2   102  ASN102     -0.2716
     93  ND2      107.9780    8.9610  -37.6450 N.am  102  ASN102     -0.0877
@<TRIPOS>BOND
     1    24    23    2
     2    23    22    1
     3    21    22    1
     4    22    25    1
     5    48    49    1
     6    15    14    2
     7    25    26    1
     8    27    26   ar
     9    27    29   ar
    10    51    50    2
    11    14    13    1
    12    50    49    1
    13    49    52    1
    14    26    28   ar
    15    29    30   ar
    16    12    13    1
    17    13    16    1
    18    57    58    1
    19    28    30   ar
    20    28    31   ar
    21    60    59    2
    22    30    32   ar
    23    59    58    1
    24    52    53    1
    25    53    54    1
    26    58    61    1
    27    42    41    2
    28    41    40    1
    29    31    33   ar
    30    32    34   ar
    31    16    17    1
    32     3     4    2
    33     3     2    1
    34    35    36    1
    35    33    34   ar
    36     2     1    1
    37     2     5    1
    38    54    55    1
    39    40    39    1
    40    40    43    1
    41    39    37   am
    42    55    56    1
    43    37    36    1
    44    37    38    2
    45    61    62    1
    46    17    18    1
    47    66    67    1
    48    62    63    1
    49     5     6    1
    50    43    44    1
    51    72    74   ar
    52    72    71   ar
    53    18    19    1
    54    74    75   ar
    55    69    68    2
    56     8     6   ar
    57     8    10   ar
    58    19    20    1
    59     6     7   ar
    60    67    68    1
    61    67    70    1
    62    63    64    1
    63    44    45    1
    64    71    70    1
    65    71    73   ar
    66    45    46    1
    67    75    73   ar
    68    75    77   ar
    69    64    65    1
    70    10    11   ar
    71     7     9   ar
    72    73    76   ar
    73    77    79   ar
    74    47    46    1
    75    11     9   ar
    76    76    78   ar
    77    79    78   ar
    78    92    91    2
    79    90    91    1
    80    90    87    1
    81    91    93   am
    82    88    89    2
    83    88    87    1
    84    87    86    1
    85    86    82   am
    86    83    82    2
    87    82    81    1
    88    85    84    1
    89    81    84    1
    90    81    80    1
