@<TRIPOS>MOLECULE
tmp/5loeA00.pdb
 103 102 0 0 0
SMALL
GASTEIGER

@<TRIPOS>ATOM
      1  N         17.8400   21.8520  -12.8200 N.3    61  ARG61      -0.1231
      2  CA        17.6210   20.4470  -13.1380 C.3    61  ARG61       0.1694
      3  C         18.5810   19.5650  -12.3550 C.2    61  ARG61       0.2591
      4  O         18.1500   18.5910  -11.7230 O.2    61  ARG61      -0.2718
      5  CB        17.7970   20.2000  -14.6350 C.3    61  ARG61       0.0321
      6  CG        17.6510   18.7440  -15.0460 C.3    61  ARG61       0.0489
      7  CD        17.7700   18.5800  -16.5500 C.3    61  ARG61       0.2205
      8  NE        19.0960   18.9710  -17.0230 N.pl3  61  ARG61      -0.0865
      9  CZ        19.9060   18.2350  -17.7900 C.cat  61  ARG61       0.5346
     10  NH1       19.5600   17.0340  -18.2460 N.pl3  61  ARG61       0.1354
     11  NH2       21.0870   18.7290  -18.1380 N.pl3  61  ARG61       0.1354
     12  N         19.8750   19.9040  -12.4230 N.am   62  MET62      -0.1979
     13  CA        20.9010   19.2580  -11.5930 C.3    62  MET62       0.1605
     14  C         20.4260   19.2970  -10.1620 C.2    62  MET62       0.2287
     15  O         20.3450   18.2500   -9.5410 O.2    62  MET62      -0.2864
     16  CB        22.2530   19.9670  -11.6930 C.3    62  MET62       0.0413
     17  CG        23.4050   19.2840  -10.9310 C.3    62  MET62       0.0598
     18  SD        23.8830   17.6330  -11.5210 S.3    62  MET62      -0.1393
     19  CE        24.2520   17.9790  -13.2520 C.3    62  MET62       0.0692
     20  N         17.8240   16.6810   -9.3750 N.3    65  MET65      -0.1245
     21  CA        18.3460   15.3090   -9.4400 C.3    65  MET65       0.1570
     22  C         18.8850   14.8770   -8.0770 C.2    65  MET65       0.2261
     23  O         18.6120   13.7730   -7.5930 O.2    65  MET65      -0.2867
     24  CB        19.4640   15.1910  -10.4870 C.3    65  MET65       0.0387
     25  CG        19.0140   15.3120  -11.9280 C.3    65  MET65       0.0595
     26  SD        20.4580   15.4370  -12.9870 S.3    65  MET65      -0.1393
     27  CE        19.6930   15.5240  -14.5960 C.3    65  MET65       0.0692
     28  N         19.1610   10.0350  -11.3520 N.3    71  PHE71      -0.1228
     29  CA        19.7600   10.5600  -12.5850 C.3    71  PHE71       0.1721
     30  C         18.9070   10.0420  -13.7470 C.2    71  PHE71       0.2437
     31  O         18.1990    9.0310  -13.5910 O.2    71  PHE71      -0.2733
     32  CB        21.2100   10.0590  -12.7650 C.3    71  PHE71       0.0547
     33  CG        22.2770   10.9500  -12.1470 C.ar   71  PHE71      -0.0202
     34  CD1       22.0040   11.8640  -11.1110 C.ar   71  PHE71      -0.0042
     35  CD2       23.5970   10.8370  -12.5770 C.ar   71  PHE71      -0.0042
     36  CE1       23.0200   12.6500  -10.5660 C.ar   71  PHE71      -0.0003
     37  CE2       24.6060   11.6310  -12.0280 C.ar   71  PHE71      -0.0003
     38  CZ        24.3170   12.5340  -11.0240 C.ar   71  PHE71      -0.0000
     39  N         18.9630   10.7270  -14.9140 N.am   72  PRO72      -0.2729
     40  CA        18.1480   10.3770  -16.0860 C.3    72  PRO72       0.1401
     41  C         18.3260    8.9380  -16.4950 C.2    72  PRO72       0.2269
     42  O         19.4300    8.4080  -16.4030 O.2    72  PRO72      -0.2865
     43  CB        18.6940   11.2920  -17.1670 C.3    72  PRO72       0.0296
     44  CG        19.1130   12.4940  -16.4050 C.3    72  PRO72       0.0237
     45  CD        19.7280   11.9590  -15.1500 C.3    72  PRO72       0.0939
     46  N         20.8190    8.5620  -19.5280 N.3    75  TYR75      -0.1241
     47  CA        22.2090    8.8300  -19.1000 C.3    75  TYR75       0.1605
     48  C         22.8410    7.6810  -18.3470 C.2    75  TYR75       0.2264
     49  O         23.9790    7.2990  -18.6100 O.2    75  TYR75      -0.2867
     50  CB        22.2510   10.0450  -18.1810 C.3    75  TYR75       0.0534
     51  CG        23.6360   10.3730  -17.6530 C.ar   75  TYR75      -0.0201
     52  CD1       24.6390   10.8060  -18.5100 C.ar   75  TYR75      -0.0009
     53  CD2       23.9340   10.2720  -16.3020 C.ar   75  TYR75      -0.0009
     54  CE1       25.8970   11.1280  -18.0390 C.ar   75  TYR75       0.0417
     55  CE2       25.1920   10.5870  -15.8270 C.ar   75  TYR75       0.0417
     56  CZ        26.1680   11.0070  -16.6900 C.ar   75  TYR75       0.1957
     57  OH        27.4150   11.3040  -16.1990 O.3    75  TYR75      -0.2866
     58  N         28.8690   12.6030  -24.3110 N.3    94  GLU94      -0.1245
     59  CA        27.5800   12.1020  -23.7700 C.3    94  GLU94       0.1567
     60  C         27.6450   11.7380  -22.2640 C.2    94  GLU94       0.2260
     61  O         26.6760   11.9610  -21.5260 O.2    94  GLU94      -0.2867
     62  CB        27.0720   10.8890  -24.5590 C.3    94  GLU94       0.0388
     63  CG        27.9820    9.6650  -24.5420 C.3    94  GLU94       0.1160
     64  CD        27.5390    8.5420  -25.4870 C.2    94  GLU94       0.3649
     65  OE1       26.3190    8.4440  -25.7750 O.co2  94  GLU94      -0.2457
     66  OE2       28.4070    7.7250  -25.9050 O.co2  94  GLU94      -0.2457
     67  N         29.4900   13.1780  -19.8690 N.3    96  THR96      -0.1203
     68  CA        29.8720   14.2570  -18.9530 C.3    96  THR96       0.1994
     69  C         28.8790   14.3460  -17.8370 C.2    96  THR96       0.2618
     70  O         27.6850   14.1920  -18.0580 O.2    96  THR96      -0.2717
     71  CB        29.9830   15.6660  -19.5930 C.3    96  THR96       0.1784
     72  OG1       30.6800   16.5540  -18.6890 O.3    96  THR96      -0.2211
     73  CG2       28.6070   16.2480  -19.9310 C.3    96  THR96       0.0376
     74  N         29.3830   14.6280  -16.6470 N.am   97  ALA97      -0.1965
     75  CA        28.5550   14.7380  -15.4500 C.3    97  ALA97       0.1728
     76  C         28.0890   16.1760  -15.2140 C.2    97  ALA97       0.2616
     77  O         27.5400   16.4710  -14.1520 O.2    97  ALA97      -0.2715
     78  CB        29.3310   14.2370  -14.2450 C.3    97  ALA97       0.0334
     79  N         28.3510   17.0750  -16.1700 N.am   98  PHE98      -0.1960
     80  CA        27.8490   18.4370  -16.1000 C.3    98  PHE98       0.1756
     81  C         26.7090   18.6210  -17.0940 C.2    98  PHE98       0.2461
     82  O         26.7130   17.9600  -18.1360 O.2    98  PHE98      -0.2730
     83  CB        28.9400   19.4140  -16.4630 C.3    98  PHE98       0.0574
     84  CG        30.1060   19.3910  -15.5390 C.ar   98  PHE98      -0.0200
     85  CD1       30.0750   20.1030  -14.3350 C.ar   98  PHE98      -0.0042
     86  CD2       31.2500   18.6790  -15.8790 C.ar   98  PHE98      -0.0042
     87  CE1       31.1660   20.0920  -13.4750 C.ar   98  PHE98      -0.0003
     88  CE2       32.3460   18.6740  -15.0300 C.ar   98  PHE98      -0.0003
     89  CZ        32.3010   19.3810  -13.8260 C.ar   98  PHE98      -0.0000
     90  N         25.7460   19.5290  -16.7930 N.am   99  PRO99      -0.2716
     91  CA        24.6420   19.8800  -17.6970 C.3    99  PRO99       0.1536
     92  C         25.0410   20.2060  -19.1480 C.2    99  PRO99       0.2598
     93  O         26.0320   20.8800  -19.3760 O.2    99  PRO99      -0.2715
     94  CB        24.0310   21.1020  -17.0230 C.3    99  PRO99       0.0310
     95  CG        24.2780   20.8490  -15.5810 C.3    99  PRO99       0.0237
     96  CD        25.6590   20.3050  -15.5470 C.3    99  PRO99       0.0939
     97  N         24.2500   19.7140  -20.1020 N.am  100  VAL100     -0.1978
     98  CA        24.5140   19.8670  -21.5370 C.3   100  VAL100      0.1596
     99  C         23.9710   21.1940  -22.1200 C.2   100  VAL100      0.2287
    100  O         24.5410   21.7500  -23.0560 O.2   100  VAL100     -0.2864
    101  CB        23.9760   18.6510  -22.3390 C.3   100  VAL100      0.0276
    102  CG1       24.8270   17.4040  -22.0760 C.3   100  VAL100      0.0022
    103  CG2       22.4820   18.3870  -22.0800 C.3   100  VAL100      0.0022
@<TRIPOS>BOND
     1    66    64   ar
     2    65    64   ar
     3    64    63    1
     4    62    63    1
     5    62    59    1
     6    58    59    1
     7    59    60    1
     8   100    99    2
     9   101   103    1
    10   101   102    1
    11   101    98    1
    12    60    61    2
    13    99    98    1
    14    98    97    1
    15    97    92   am
    16    73    71    1
    17    67    68    1
    18    71    68    1
    19    71    72    1
    20    46    47    1
    21    93    92    2
    22    92    91    1
    23    47    48    1
    24    47    50    1
    25    68    69    1
    26    49    48    2
    27    52    54   ar
    28    52    51   ar
    29    10     9    1
    30    50    51    1
    31    11     9    1
    32    82    81    2
    33    70    69    2
    34    54    56   ar
    35    69    74   am
    36     9     8    2
    37    91    94    1
    38    91    90    1
    39    51    53   ar
    40    43    44    1
    41    43    40    1
    42    81    90   am
    43    81    80    1
    44    94    95    1
    45     8     7    1
    46    90    96    1
    47    56    57    1
    48    56    55   ar
    49    74    75    1
    50     7     6    1
    51    41    42    2
    52    41    40    1
    53    83    80    1
    54    83    84    1
    55    44    45    1
    56    53    55   ar
    57    79    80    1
    58    79    76   am
    59    40    39    1
    60    86    84   ar
    61    86    88   ar
    62    95    96    1
    63    84    85   ar
    64    75    76    1
    65    75    78    1
    66    76    77    2
    67    45    39    1
    68     6     5    1
    69    88    89   ar
    70    39    30   am
    71     5     2    1
    72    27    26    1
    73    85    87   ar
    74    89    87   ar
    75    30    31    2
    76    30    29    1
    77    19    18    1
    78     2     1    1
    79     2     3    1
    80    26    25    1
    81    32    29    1
    82    32    33    1
    83    29    28    1
    84    35    33   ar
    85    35    37   ar
    86    12     3   am
    87    12    13    1
    88     3     4    2
    89    33    34   ar
    90    37    38   ar
    91    25    24    1
    92    16    13    1
    93    16    17    1
    94    13    14    1
    95    18    17    1
    96    34    36   ar
    97    38    36   ar
    98    24    21    1
    99    14    15    2
   100    21    20    1
   101    21    22    1
   102    22    23    2
