@<TRIPOS>MOLECULE
tmp/5lofA00.pdb
 177 168 0 0 0
SMALL
GASTEIGER

@<TRIPOS>ATOM
      1  N        -25.5370    7.5110    3.4190 N.3   409  VAL409     -0.1245
      2  CA       -25.0010    7.8940    2.1380 C.3   409  VAL409      0.1561
      3  C        -23.4920    7.6300    2.0330 C.2   409  VAL409      0.2260
      4  O        -23.0250    7.2200    0.9440 O.2   409  VAL409     -0.2867
      5  CB       -25.3370    9.3740    1.8040 C.3   409  VAL409      0.0252
      6  CG1      -24.7730    9.7340    0.4420 C.3   409  VAL409      0.0019
      7  CG2      -26.8610    9.5940    1.8200 C.3   409  VAL409      0.0019
      8  N        -21.2050    5.2390   -0.5310 N.3   413  VAL413     -0.1245
      9  CA       -20.0790    5.7000   -1.3380 C.3   413  VAL413      0.1561
     10  C        -18.8150    4.8250   -1.1200 C.2   413  VAL413      0.2260
     11  O        -18.1730    4.4080   -2.0650 O.2   413  VAL413     -0.2867
     12  CB       -19.7350    7.1770   -1.0650 C.3   413  VAL413      0.0252
     13  CG1      -18.3860    7.5720   -1.6580 C.3   413  VAL413      0.0019
     14  CG2      -20.8220    8.0870   -1.6120 C.3   413  VAL413      0.0019
     15  N        -17.5520    2.7160   -4.1530 N.3   417  HIS417     -0.1241
     16  CA       -16.2830    3.2450   -4.6970 C.3   417  HIS417      0.1621
     17  C        -15.0330    2.6960   -4.0120 C.2   417  HIS417      0.2264
     18  O        -13.9590    3.3560   -4.0630 O.2   417  HIS417     -0.2867
     19  CB       -16.2920    4.7870   -4.7000 C.3   417  HIS417      0.0745
     20  CG       -17.3830    5.3890   -5.5340 C.ar  417  HIS417      0.0817
     21  ND1      -17.2070    5.7090   -6.8640 N.ar  417  HIS417     -0.2268
     22  CD2      -18.6640    5.7020   -5.2440 C.ar  417  HIS417      0.1154
     23  CE1      -18.3250    6.2130   -7.3530 C.ar  417  HIS417      0.1986
     24  NE2      -19.2230    6.2300   -6.3860 N.ar  417  HIS417     -0.2212
     25  N        -11.4890    2.6210   -6.1620 N.3   420  ALA420     -0.1231
     26  CA       -10.7770    3.8570   -6.3590 C.3   420  ALA420      0.1694
     27  C        -10.2740    4.3620   -5.0180 C.2   420  ALA420      0.2592
     28  O         -9.1860    4.9340   -4.9560 O.2   420  ALA420     -0.2718
     29  CB       -11.6600    4.8830   -7.0220 C.3   420  ALA420      0.0304
     30  N        -11.0490    4.1380   -3.9510 N.am  421  PHE421     -0.1976
     31  CA       -10.6310    4.5410   -2.6100 C.3   421  PHE421      0.1639
     32  C         -9.3910    3.7470   -2.2200 C.2   421  PHE421      0.2290
     33  O         -8.4160    4.3380   -1.7740 O.2   421  PHE421     -0.2864
     34  CB       -11.7540    4.3570   -1.5710 C.3   421  PHE421      0.0560
     35  CG       -12.7260    5.5140   -1.5010 C.ar  421  PHE421     -0.0200
     36  CD1      -12.8720    6.4410   -2.5680 C.ar  421  PHE421     -0.0042
     37  CD2      -13.5130    5.6960   -0.3670 C.ar  421  PHE421     -0.0042
     38  CE1      -13.7660    7.5040   -2.4720 C.ar  421  PHE421     -0.0003
     39  CE2      -14.3900    6.7740   -0.2780 C.ar  421  PHE421     -0.0003
     40  CZ       -14.5320    7.6590   -1.3370 C.ar  421  PHE421     -0.0000
     41  N         -7.3410    2.2260   -4.3010 N.3   423  GLY423     -0.1210
     42  CA        -6.3300    2.7450   -5.2220 C.3   423  GLY423      0.1956
     43  C         -5.5930    4.0080   -4.8010 C.2   423  GLY423      0.2611
     44  O         -4.3660    3.9980   -4.7300 O.2   423  GLY423     -0.2717
     45  N         -6.3370    5.0830   -4.5080 N.am  424  MET424     -0.1979
     46  CA        -5.7230    6.3340   -4.1250 C.3   424  MET424      0.1605
     47  C         -5.1270    6.2620   -2.7410 C.2   424  MET424      0.2287
     48  O         -4.1100    6.9110   -2.4750 O.2   424  MET424     -0.2864
     49  CB        -6.6980    7.5000   -4.1680 C.3   424  MET424      0.0413
     50  CG        -5.9690    8.8490   -4.3000 C.3   424  MET424      0.0598
     51  SD        -6.2120    9.5330   -5.9500 S.3   424  MET424     -0.1393
     52  CE        -5.3080   11.0940   -5.9210 C.3   424  MET424      0.0692
     53  N         -1.7980    4.3850   -3.2990 N.3   427  LYS427     -0.1231
     54  CA        -0.8700    5.3290   -3.9540 C.3   427  LYS427      0.1693
     55  C         -0.1830    6.2270   -2.9250 C.2   427  LYS427      0.2591
     56  O          1.0400    6.2090   -2.7980 O.2   427  LYS427     -0.2718
     57  CB        -1.5990    6.1860   -5.0100 C.3   427  LYS427      0.0285
     58  CG        -0.7540    7.2690   -5.6820 C.3   427  LYS427      0.0035
     59  CD        -1.4520    7.9080   -6.8800 C.3   427  LYS427      0.0206
     60  CE        -0.5050    8.8430   -7.6270 C.3   427  LYS427      0.1093
     61  NZ        -1.1360    9.4630   -8.8220 N.3   427  LYS427     -0.1314
     62  N         -0.9800    6.9850   -2.1760 N.am  428  LEU428     -0.1980
     63  CA        -0.4670    7.8550   -1.1180 C.3   428  LEU428      0.1596
     64  C          0.1310    6.9160   -0.0740 C.2   428  LEU428      0.2287
     65  O         -0.2370    5.7450    0.0040 O.2   428  LEU428     -0.2864
     66  CB        -1.5970    8.6990   -0.5290 C.3   428  LEU428      0.0297
     67  CG        -2.3120    9.6470   -1.5190 C.3   428  LEU428      0.0022
     68  CD1       -3.7830    9.8490   -1.1920 C.3   428  LEU428      0.0001
     69  CD2       -1.6130   11.0040   -1.5960 C.3   428  LEU428      0.0001
     70  N         -1.5940   14.5420    3.1450 N.3   439  LEU439     -0.1245
     71  CA        -2.9130   14.1150    2.6300 C.3   439  LEU439      0.1561
     72  C         -3.9210   15.2460    2.4990 C.2   439  LEU439      0.2260
     73  O         -4.5540   15.4210    1.4690 O.2   439  LEU439     -0.2867
     74  CB        -3.5120   13.0910    3.5830 C.3   439  LEU439      0.0270
     75  CG        -4.2900   11.9110    3.0170 C.3   439  LEU439      0.0019
     76  CD1       -5.1980   11.3910    4.1120 C.3   439  LEU439      0.0001
     77  CD2       -5.0650   12.2180    1.7530 C.3   439  LEU439      0.0001
     78  N         -3.4930   17.5850   -0.4370 N.3   442  VAL442     -0.1231
     79  CA        -4.0530   16.9180   -1.6240 C.3   442  VAL442      0.1692
     80  C         -5.5990   17.0290   -1.6410 C.2   442  VAL442      0.2591
     81  O         -6.1890   17.5460   -2.6150 O.2   442  VAL442     -0.2718
     82  CB        -3.6490   15.4140   -1.6890 C.3   442  VAL442      0.0266
     83  CG1       -3.8730   14.8560   -3.0980 C.3   442  VAL442      0.0020
     84  CG2       -2.1960   15.1850   -1.2310 C.3   442  VAL442      0.0020
     85  N         -6.2430   16.5510   -0.5610 N.am  443  MET443     -0.1979
     86  CA        -7.7100   16.6300   -0.4090 C.3   443  MET443      0.1605
     87  C         -8.1490   18.0610   -0.5310 C.2   443  MET443      0.2287
     88  O         -9.0650   18.3440   -1.3170 O.2   443  MET443     -0.2864
     89  CB        -8.1820   16.1380    0.9580 C.3   443  MET443      0.0413
     90  CG        -8.0060   14.6620    1.1750 C.3   443  MET443      0.0598
     91  SD        -8.8880   14.1500    2.6360 S.3   443  MET443     -0.1393
     92  CE        -8.1650   12.5770    2.9440 C.3   443  MET443      0.0692
     93  N         -7.8850   18.8320   -4.2160 N.3   446  VAL446     -0.1231
     94  CA        -8.8030   18.0350   -5.0560 C.3   446  VAL446      0.1692
     95  C        -10.2660   18.4600   -4.8320 C.2   446  VAL446      0.2592
     96  O        -11.0910   18.4660   -5.7600 O.2   446  VAL446     -0.2718
     97  CB        -8.6770   16.5090   -4.8040 C.3   446  VAL446      0.0266
     98  CG1       -9.7010   15.7360   -5.6390 C.3   446  VAL446      0.0020
     99  CG2       -7.2570   15.9900   -5.1090 C.3   446  VAL446      0.0020
    100  N        -10.6010   18.7740   -3.5840 N.am  447  PHE447     -0.1976
    101  CA       -11.9440   19.2410   -3.2920 C.3   447  PHE447      0.1639
    102  C        -12.1420   20.6120   -3.9550 C.2   447  PHE447      0.2290
    103  O        -12.9820   20.7540   -4.8460 O.2   447  PHE447     -0.2864
    104  CB       -12.2140   19.2820   -1.7830 C.3   447  PHE447      0.0560
    105  CG       -13.6220   19.7050   -1.4330 C.ar  447  PHE447     -0.0200
    106  CD1      -14.7170   18.9540   -1.8640 C.ar  447  PHE447     -0.0042
    107  CD2      -13.8550   20.8750   -0.6860 C.ar  447  PHE447     -0.0042
    108  CE1      -16.0200   19.3570   -1.5560 C.ar  447  PHE447     -0.0003
    109  CE2      -15.1510   21.2740   -0.3640 C.ar  447  PHE447     -0.0003
    110  CZ       -16.2360   20.5220   -0.8020 C.ar  447  PHE447     -0.0000
    111  N        -21.6350   20.6300   -4.6900 N.3   453  ASN453     -0.1240
    112  CA       -22.9250   19.9760   -4.3780 C.3   453  ASN453      0.1653
    113  C        -22.7190   18.9580   -3.2510 C.2   453  ASN453      0.2266
    114  O        -21.5820   18.6510   -2.8670 O.2   453  ASN453     -0.2867
    115  CB       -23.5180   19.2700   -5.6130 C.3   453  ASN453      0.1155
    116  CG       -22.5500   18.2670   -6.2110 C.2   453  ASN453      0.2627
    117  OD1      -22.2320   17.2260   -5.6080 O.2   453  ASN453     -0.2716
    118  ND2      -22.0200   18.6030   -7.3600 N.am  453  ASN453     -0.0877
    119  N        -22.9580   15.7100   -3.0930 N.3   455  GLY455     -0.1210
    120  CA       -22.3110   14.4520   -3.4380 C.3   455  GLY455      0.1956
    121  C        -20.8220   14.5490   -3.3330 C.2   455  GLY455      0.2611
    122  O        -20.1760   13.6560   -2.8070 O.2   455  GLY455     -0.2717
    123  N        -20.2710   15.6610   -3.8060 N.am  456  ARG456     -0.1979
    124  CA       -18.8490   15.9230   -3.6720 C.3   456  ARG456      0.1597
    125  C        -18.4960   16.1440   -2.1890 C.2   456  ARG456      0.2287
    126  O        -17.4160   15.7420   -1.7510 O.2   456  ARG456     -0.2864
    127  CB       -18.4030   17.1300   -4.5260 C.3   456  ARG456      0.0334
    128  CG       -18.6680   17.0200   -6.0450 C.3   456  ARG456      0.0492
    129  CD       -17.7880   17.9990   -6.8640 C.3   456  ARG456      0.2205
    130  NE       -16.3620   17.6180   -6.8960 N.pl3 456  ARG456     -0.0865
    131  CZ       -15.3210   18.2480   -6.3250 C.cat 456  ARG456      0.5346
    132  NH1      -15.4250   19.4030   -5.6530 N.pl3 456  ARG456      0.1354
    133  NH2      -14.1110   17.7040   -6.4380 N.pl3 456  ARG456      0.1354
    134  N        -20.2190   14.7900    0.5080 N.3   458  VAL458     -0.1231
    135  CA       -20.2540   13.4260    1.0360 C.3   458  VAL458      0.1692
    136  C        -19.0150   12.6600    0.6420 C.2   458  VAL458      0.2593
    137  O        -18.5100   11.8860    1.4460 O.2   458  VAL458     -0.2718
    138  CB       -21.4950   12.6740    0.5140 C.3   458  VAL458      0.0266
    139  CG1      -21.2710   11.1720    0.4010 C.3   458  VAL458      0.0020
    140  CG2      -22.6590   12.9490    1.4220 C.3   458  VAL458      0.0020
    141  N        -18.5370   12.8550   -0.5900 N.am  459  THR459     -0.1939
    142  CA       -17.3950   12.0950   -1.0880 C.3   459  THR459      0.2028
    143  C        -16.1460   12.4200   -0.3500 C.2   459  THR459      0.2642
    144  O        -15.3970   11.5010   -0.0020 O.2   459  THR459     -0.2714
    145  CB       -17.1840   12.2400   -2.6310 C.3   459  THR459      0.1808
    146  OG1      -18.3140   11.6820   -3.3380 O.3   459  THR459     -0.2208
    147  CG2      -15.9200   11.5180   -3.0970 C.3   459  THR459      0.0379
    148  N        -15.9080   13.7050   -0.1110 N.am  460  LEU460     -0.1977
    149  CA       -14.7610   14.1710    0.6870 C.3   460  LEU460      0.1596
    150  C        -14.7480   13.5210    2.0470 C.2   460  LEU460      0.2287
    151  O        -13.7070   13.0030    2.4950 O.2   460  LEU460     -0.2864
    152  CB       -14.8520   15.7050    0.9060 C.3   460  LEU460      0.0297
    153  CG       -13.8590   16.4450    1.8350 C.3   460  LEU460      0.0022
    154  CD1      -12.4410   16.3870    1.2740 C.3   460  LEU460      0.0001
    155  CD2      -14.2760   17.9110    2.0330 C.3   460  LEU460      0.0001
    156  N        -14.2240    9.6250    2.1240 N.3   463  PHE463     -0.1241
    157  CA       -12.8570    9.2840    1.8720 C.3   463  PHE463      0.1605
    158  C        -12.0810    9.5070    3.1320 C.2   463  PHE463      0.2264
    159  O        -11.2840    8.6550    3.5050 O.2   463  PHE463     -0.2867
    160  CB       -12.2510   10.0480    0.6990 C.3   463  PHE463      0.0534
    161  CG       -10.8540    9.5960    0.3900 C.ar  463  PHE463     -0.0203
    162  CD1      -10.6080    8.2610    0.0410 C.ar  463  PHE463     -0.0042
    163  CD2       -9.7810   10.4590    0.4980 C.ar  463  PHE463     -0.0042
    164  CE1       -9.3320    7.8160   -0.2220 C.ar  463  PHE463     -0.0003
    165  CE2       -8.5030   10.0080    0.2240 C.ar  463  PHE463     -0.0003
    166  CZ        -8.2780    8.6850   -0.1260 C.ar  463  PHE463     -0.0000
    167  N        -30.9260   14.3950    0.7780 N.3   512  PHE512     -0.1241
    168  CA       -30.8140   12.9270    0.7400 C.3   512  PHE512      0.1605
    169  C        -31.9560   12.2010    1.4510 C.2   512  PHE512      0.2264
    170  O        -31.8740   10.9970    1.6380 O.2   512  PHE512     -0.2867
    171  CB       -29.4750   12.4990    1.3110 C.3   512  PHE512      0.0534
    172  CG       -28.3250   12.7580    0.3970 C.ar  512  PHE512     -0.0203
    173  CD1      -28.2330   12.1200   -0.8110 C.ar  512  PHE512     -0.0042
    174  CD2      -27.2970   13.6300    0.7680 C.ar  512  PHE512     -0.0042
    175  CE1      -27.1550   12.3340   -1.6570 C.ar  512  PHE512     -0.0003
    176  CE2      -26.2160   13.8590   -0.0750 C.ar  512  PHE512     -0.0003
    177  CZ       -26.1550   13.2160   -1.2920 C.ar  512  PHE512     -0.0000
@<TRIPOS>BOND
     1    61    60    1
     2    60    59    1
     3   118   116   am
     4    23    21   ar
     5    23    24   ar
     6    29    26    1
     7   130   129    1
     8   130   131    2
     9    59    58    1
    10    21    20   ar
    11   129   128    1
    12   133   131    1
    13    24    22   ar
    14    26    25    1
    15    26    27    1
    16   131   132    1
    17   116   115    1
    18   116   117    2
    19   128   127    1
    20    51    52    1
    21    51    50    1
    22    96    95    2
    23    58    57    1
    24    98    97    1
    25   115   112    1
    26    20    22   ar
    27    20    19    1
    28    42    43    1
    29    42    41    1
    30    99    97    1
    31    94    95    1
    32    94    97    1
    33    94    93    1
    34    27    28    2
    35    27    30   am
    36    57    54    1
    37   103   102    2
    38    95   100   am
    39    43    44    2
    40    43    45   am
    41    19    16    1
    42    16    15    1
    43    16    17    1
    44   111   112    1
    45   127   124    1
    46    45    46    1
    47   112   113    1
    48    50    49    1
    49    49    46    1
    50    46    47    1
    51    18    17    2
    52   102   101    1
    53    54    53    1
    54    54    55    1
    55    30    31    1
    56   123   124    1
    57   123   121   am
    58   124   125    1
    59   100   101    1
    60   120   121    1
    61   120   119    1
    62   146   145    1
    63   121   122    2
    64   101   104    1
    65   113   114    2
    66    83    82    1
    67   147   145    1
    68    55    56    2
    69    55    62   am
    70    47    48    2
    71   145   142    1
    72    81    80    2
    73    31    32    1
    74    31    34    1
    75    36    38   ar
    76    36    35   ar
    77    38    40   ar
    78    32    33    2
    79   125   126    2
    80    62    63    1
    81    11    10    2
    82   106   108   ar
    83   106   105   ar
    84   104   105    1
    85    82    79    1
    86    82    84    1
    87    13    12    1
    88   175   177   ar
    89   175   173   ar
    90    80    79    1
    91    80    85   am
    92    79    78    1
    93    14    12    1
    94    69    67    1
    95    34    35    1
    96   108   110   ar
    97    67    68    1
    98    67    66    1
    99    35    37   ar
   100   105   107   ar
   101     9    10    1
   102     9    12    1
   103     9     8    1
   104    40    39   ar
   105    88    87    2
   106   177   176   ar
   107    63    66    1
   108    63    64    1
   109   142   141    1
   110   142   143    1
   111   173   172   ar
   112   110   109   ar
   113   107   109   ar
   114   141   136   am
   115    85    86    1
   116    87    86    1
   117    86    89    1
   118    37    39   ar
   119   143   148   am
   120   143   144    2
   121   164   166   ar
   122   164   162   ar
   123   166   165   ar
   124   148   149    1
   125   176   174   ar
   126    64    65    2
   127   162   161   ar
   128   165   163   ar
   129   161   163   ar
   130   161   160    1
   131   172   174   ar
   132   172   171    1
   133   139   138    1
   134     6     5    1
   135   134   135    1
   136   138   135    1
   137   138   140    1
   138   136   135    1
   139   136   137    2
   140   149   152    1
   141   149   150    1
   142   160   157    1
   143   168   167    1
   144   168   171    1
   145   168   169    1
   146   152   153    1
   147     4     3    2
   148    89    90    1
   149    90    91    1
   150   154   153    1
   151   169   170    2
   152    73    72    2
   153    77    75    1
   154     5     7    1
   155     5     2    1
   156   153   155    1
   157   157   156    1
   158   157   158    1
   159     3     2    1
   160   150   151    2
   161     2     1    1
   162    72    71    1
   163    71    70    1
   164    71    74    1
   165    91    92    1
   166    75    74    1
   167    75    76    1
   168   158   159    2
