@<TRIPOS>MOLECULE
tmp/5logA00.pdb
 194 192 0 0 0
SMALL
GASTEIGER

@<TRIPOS>ATOM
      1  N         -4.6760   -0.5470    5.1860 N.3    41  MET41      -0.1230
      2  CA        -5.4460   -1.7930    5.2210 C.3    41  MET41       0.1702
      3  C         -5.6260   -2.2890    6.6690 C.2    41  MET41       0.2592
      4  O         -6.3870   -3.2210    6.8970 O.2    41  MET41      -0.2718
      5  CB        -4.7800   -2.8930    4.3750 C.3    41  MET41       0.0401
      6  CG        -4.6530   -2.5710    2.9000 C.3    41  MET41       0.0596
      7  SD        -4.2080   -4.0020    1.8790 S.3    41  MET41      -0.1393
      8  CE        -2.8090   -4.5830    2.7310 C.3    41  MET41       0.0692
      9  N         -4.9140   -1.7000    7.6400 N.am   42  GLN42      -0.1966
     10  CA        -5.0590   -2.1300    9.0340 C.3    42  GLN42       0.1733
     11  C         -6.3760   -1.6440    9.6590 C.2    42  GLN42       0.2616
     12  O         -6.8070   -0.5150    9.4350 O.2    42  GLN42      -0.2715
     13  CB        -3.8540   -1.7030    9.9030 C.3    42  GLN42       0.0408
     14  CG        -3.9390   -2.2070   11.3680 C.3    42  GLN42       0.0908
     15  CD        -2.6570   -1.9940   12.1120 C.2    42  GLN42       0.2608
     16  OE1       -1.8600   -2.9150   12.3060 O.2    42  GLN42      -0.2717
     17  NE2       -2.4040   -0.7570   12.4890 N.am   42  GLN42      -0.0878
     18  N         -6.9950   -2.4980   10.4620 N.am   43  ILE43      -0.1977
     19  CA        -8.1950   -2.1060   11.1810 C.3    43  ILE43       0.1596
     20  C         -7.7950   -1.1030   12.3170 C.2    43  ILE43       0.2287
     21  O         -6.7120   -1.2530   12.9080 O.2    43  ILE43      -0.2864
     22  CB        -9.0460   -3.3300   11.6470 C.3    43  ILE43       0.0276
     23  CG1       -8.3360   -4.1610   12.7340 C.3    43  ILE43       0.0022
     24  CG2       -9.4460   -4.1940   10.4280 C.3    43  ILE43       0.0022
     25  CD1       -9.2180   -4.9950   13.5660 C.3    43  ILE43       0.0001
     26  N         -8.0110  -12.5580    4.9410 N.3    67  GLY67      -0.1210
     27  CA        -7.3100  -11.2810    4.8540 C.3    67  GLY67       0.1956
     28  C         -6.6810  -11.0000    6.2050 C.2    67  GLY67       0.2612
     29  O         -7.3520  -10.5160    7.1210 O.2    67  GLY67      -0.2717
     30  N         -5.4070  -11.3860    6.3580 N.am   68  VAL68      -0.1965
     31  CA        -4.6350  -11.3150    7.6110 C.3    68  VAL68       0.1727
     32  C         -3.7410  -10.0620    7.7160 C.2    68  VAL68       0.2616
     33  O         -3.7040   -9.4440    8.7870 O.2    68  VAL68      -0.2715
     34  CB        -3.8130  -12.6290    7.8160 C.3    68  VAL68       0.0290
     35  CG1       -3.0620  -12.6330    9.1430 C.3    68  VAL68       0.0023
     36  CG2       -4.7000  -13.8590    7.6980 C.3    68  VAL68       0.0023
     37  N         -3.0010   -9.7280    6.6250 N.am   69  PHE69      -0.1960
     38  CA        -2.0330   -8.6250    6.5380 C.3    69  PHE69       0.1771
     39  C         -0.9820   -8.8220    7.6470 C.2    69  PHE69       0.2620
     40  O         -0.4730   -9.9390    7.7740 O.2    69  PHE69      -0.2715
     41  CB        -2.7310   -7.2340    6.5670 C.3    69  PHE69       0.0574
     42  CG        -1.8770   -6.0210    6.2510 C.ar   69  PHE69      -0.0200
     43  CD1       -0.8080   -6.1090    5.3570 C.ar   69  PHE69      -0.0042
     44  CD2       -2.1600   -4.7820    6.8190 C.ar   69  PHE69      -0.0042
     45  CE1       -0.0310   -4.9850    5.0500 C.ar   69  PHE69      -0.0003
     46  CE2       -1.4020   -3.6550    6.4880 C.ar   69  PHE69      -0.0003
     47  CZ        -0.3280   -3.7680    5.6210 C.ar   69  PHE69      -0.0000
     48  N         -0.7360   -7.8040    8.4980 N.am   70  THR70      -0.1951
     49  CA         0.2120   -7.9130    9.6130 C.3    70  THR70       0.1897
     50  C         -0.4370   -8.5300   10.8640 C.2    70  THR70       0.2313
     51  O          0.2050   -8.5850   11.9070 O.2    70  THR70      -0.2863
     52  CB         0.9110   -6.5850    9.8930 C.3    70  THR70       0.1794
     53  OG1       -0.0870   -5.5880   10.0890 O.3    70  THR70      -0.2208
     54  CG2        1.9000   -6.1840    8.7770 C.3    70  THR70       0.0378
     55  N         -3.2810   -7.7340   12.9350 N.3    72  TYR72      -0.1227
     56  CA        -3.9050   -7.0100   14.0370 C.3    72  TYR72       0.1736
     57  C         -5.2840   -7.5770   14.3640 C.2    72  TYR72       0.2596
     58  O         -5.5760   -7.8380   15.5430 O.2    72  TYR72      -0.2718
     59  CB        -3.9930   -5.5010   13.7320 C.3    72  TYR72       0.0548
     60  CG        -4.3060   -4.6570   14.9490 C.ar   72  TYR72      -0.0200
     61  CD1       -5.5980   -4.2080   15.1940 C.ar   72  TYR72      -0.0009
     62  CD2       -3.3020   -4.2750   15.8350 C.ar   72  TYR72      -0.0009
     63  CE1       -5.8980   -3.4510   16.3230 C.ar   72  TYR72       0.0417
     64  CE2       -3.5870   -3.5200   16.9650 C.ar   72  TYR72       0.0417
     65  CZ        -4.8860   -3.0990   17.2010 C.ar   72  TYR72       0.1957
     66  OH        -5.1510   -2.3060   18.2850 O.3    72  TYR72      -0.2866
     67  N         -6.1300   -7.7800   13.3270 N.am   73  SER73      -0.1952
     68  CA        -7.4800   -8.3310   13.5280 C.3    73  SER73       0.1924
     69  C         -7.4150   -9.7550   14.1200 C.2    73  SER73       0.2314
     70  O         -8.1980  -10.0870   15.0150 O.2    73  SER73      -0.2863
     71  CB        -8.2650   -8.3270   12.2180 C.3    73  SER73       0.2116
     72  OG        -7.6480   -9.1710   11.2630 O.3    73  SER73      -0.2180
     73  N         -6.6110  -17.0500    6.5620 N.3    90  CYS90      -0.1221
     74  CA        -6.2230  -17.1680    5.1310 C.3    90  CYS90       0.1808
     75  C         -5.5700  -15.9350    4.5770 C.2    90  CYS90       0.2601
     76  O         -6.1650  -14.8680    4.6460 O.2    90  CYS90      -0.2717
     77  CB        -7.4160  -17.5790    4.2780 C.3    90  CYS90       0.0970
     78  SG        -8.2910  -19.0140    4.9170 S.3    90  CYS90      -0.0800
     79  N         -4.3760  -16.0860    3.9610 N.am   91  ASP91      -0.1959
     80  CA        -3.6620  -14.9760    3.3380 C.3    91  ASP91       0.1840
     81  C         -2.6850  -15.3920    2.2440 C.2    91  ASP91       0.2622
     82  O         -2.0030  -16.4040    2.3270 O.2    91  ASP91      -0.2715
     83  CB        -2.9530  -14.0760    4.3570 C.3    91  ASP91       0.1450
     84  CG        -2.8260  -12.6460    3.8650 C.2    91  ASP91       0.3671
     85  OD1       -3.6050  -11.7890    4.3280 O.co2  91  ASP91      -0.2456
     86  OD2       -1.9530  -12.3850    3.0090 O.co2  91  ASP91      -0.2456
     87  N         -2.5720  -14.5190    1.2640 N.am   92  LEU92      -0.1963
     88  CA        -1.7260  -14.6260    0.0920 C.3    92  LEU92       0.1728
     89  C         -0.2570  -14.2960    0.4120 C.2    92  LEU92       0.2616
     90  O          0.6370  -14.9930   -0.0820 O.2    92  LEU92      -0.2715
     91  CB        -2.2940  -13.6380   -0.9290 C.3    92  LEU92       0.0311
     92  CG        -2.0980  -13.9110   -2.3990 C.3    92  LEU92       0.0022
     93  CD1       -2.8350  -15.1700   -2.8380 C.3    92  LEU92       0.0001
     94  CD2       -2.5840  -12.7130   -3.2150 C.3    92  LEU92       0.0001
     95  N         -0.0050  -13.2540    1.2410 N.am   93  SER93      -0.1950
     96  CA         1.3610  -12.8120    1.5540 C.3    93  SER93       0.1924
     97  C          2.0060  -13.5210    2.7240 C.2    93  SER93       0.2314
     98  O          1.4820  -13.4840    3.8400 O.2    93  SER93      -0.2863
     99  CB         1.4200  -11.3020    1.7620 C.3    93  SER93       0.2116
    100  OG         2.6820  -10.8920    2.2660 O.3    93  SER93      -0.2180
    101  N          3.8700  -10.4680    5.0030 N.3    96  TRP96      -0.1241
    102  CA         2.9570   -9.8290    5.9500 C.3    96  TRP96       0.1605
    103  C          2.6080  -10.7490    7.1150 C.2    96  TRP96       0.2264
    104  O          2.5740  -10.2860    8.2500 O.2    96  TRP96      -0.2867
    105  CB         1.7000   -9.2960    5.2380 C.3    96  TRP96       0.0550
    106  CG         1.9700   -8.1460    4.3130 C.ar   96  TRP96       0.0003
    107  CD1        3.0040   -7.2570    4.3850 C.ar   96  TRP96       0.0946
    108  CD2        1.1910   -7.7640    3.1700 C.ar   96  TRP96       0.0152
    109  NE1        2.9290   -6.3580    3.3470 N.ar   96  TRP96      -0.2442
    110  CE2        1.8160   -6.6340    2.5960 C.ar   96  TRP96       0.0810
    111  CE3        0.0050   -8.2490    2.5920 C.ar   96  TRP96       0.0012
    112  CZ2        1.3220   -6.0100    1.4410 C.ar   96  TRP96       0.0191
    113  CZ3       -0.4850   -7.6320    1.4490 C.ar   96  TRP96       0.0001
    114  CH2        0.1630   -6.5190    0.8910 C.ar   96  TRP96       0.0015
    115  N         -1.8030  -18.7820    0.9220 N.3   118  GLY118     -0.1210
    116  CA        -2.1280  -18.8390   -0.4970 C.3   118  GLY118      0.1956
    117  C         -3.4570  -18.1680   -0.7890 C.2   118  GLY118      0.2612
    118  O         -3.9650  -17.4070    0.0410 O.2   118  GLY118     -0.2717
    119  N         -4.0270  -18.4400   -1.9750 N.am  119  ASP119     -0.1959
    120  CA        -5.3050  -17.8890   -2.4390 C.3   119  ASP119      0.1840
    121  C         -6.4500  -18.3790   -1.5760 C.2   119  ASP119      0.2622
    122  O         -6.6760  -19.5850   -1.4730 O.2   119  ASP119     -0.2715
    123  CB        -5.5480  -18.2740   -3.9110 C.3   119  ASP119      0.1450
    124  CG        -6.6480  -17.5220   -4.6460 C.2   119  ASP119      0.3671
    125  OD1       -6.5680  -17.4260   -5.8710 O.co2 119  ASP119     -0.2456
    126  OD2       -7.5930  -17.0300   -3.9860 O.co2 119  ASP119     -0.2456
    127  N         -7.2080  -17.4320   -0.9900 N.am  120  ALA120     -0.1963
    128  CA        -8.3420  -17.7200   -0.1040 C.3   120  ALA120      0.1728
    129  C         -9.4540  -18.5090   -0.7790 C.2   120  ALA120      0.2616
    130  O        -10.0870  -19.3130   -0.1020 O.2   120  ALA120     -0.2715
    131  CB        -8.8890  -16.4490    0.4800 C.3   120  ALA120      0.0334
    132  N         -9.6520  -18.3300   -2.1180 N.am  121  HIS121     -0.1973
    133  CA       -10.6660  -19.0530   -2.8880 C.3   121  HIS121      0.1656
    134  C        -10.5380  -20.5570   -2.7160 C.2   121  HIS121      0.2291
    135  O        -11.5280  -21.2380   -2.4370 O.2   121  HIS121     -0.2864
    136  CB       -10.5900  -18.6950   -4.3880 C.3   121  HIS121      0.0771
    137  CG       -11.0280  -17.2960   -4.6660 C.ar  121  HIS121      0.0820
    138  ND1      -10.1840  -16.2230   -4.4480 N.ar  121  HIS121     -0.2267
    139  CD2      -12.2120  -16.8390   -5.1330 C.ar  121  HIS121      0.1154
    140  CE1      -10.8760  -15.1540   -4.7820 C.ar  121  HIS121      0.1986
    141  NE2      -12.1080  -15.4730   -5.1900 N.ar  121  HIS121     -0.2212
    142  N        -14.4200  -13.4980    9.7420 N.3   140  PHE140     -0.1241
    143  CA       -14.0730  -12.1160    9.4300 C.3   140  PHE140      0.1605
    144  C        -13.5330  -12.0320    7.9970 C.2   140  PHE140      0.2264
    145  O        -12.4710  -12.5880    7.7030 O.2   140  PHE140     -0.2867
    146  CB       -13.1300  -11.4680   10.4740 C.3   140  PHE140      0.0534
    147  CG       -12.7560  -10.0150   10.2070 C.ar  140  PHE140     -0.0203
    148  CD1      -13.7390   -9.0390   10.0460 C.ar  140  PHE140     -0.0042
    149  CD2      -11.4200   -9.6280   10.1030 C.ar  140  PHE140     -0.0042
    150  CE1      -13.3920   -7.6910    9.8090 C.ar  140  PHE140     -0.0003
    151  CE2      -11.0710   -8.2870    9.8750 C.ar  140  PHE140     -0.0003
    152  CZ       -12.0610   -7.3260    9.7310 C.ar  140  PHE140     -0.0000
    153  N        -12.1180   -9.7710    5.0720 N.3   142  ASP142     -0.1225
    154  CA       -11.3950   -8.5170    4.9460 C.3   142  ASP142      0.1805
    155  C        -10.2720   -8.6420    3.9170 C.2   142  ASP142      0.2598
    156  O         -9.1880   -8.1110    4.1250 O.2   142  ASP142     -0.2718
    157  CB       -10.8510   -8.1640    6.3430 C.3   142  ASP142      0.1424
    158  CG       -10.2060   -6.8100    6.4900 C.2   142  ASP142      0.3668
    159  OD1      -10.5720   -5.8890    5.7200 O.co2 142  ASP142     -0.2456
    160  OD2       -9.3130   -6.6730    7.3550 O.co2 142  ASP142     -0.2456
    161  N        -10.5230   -9.3760    2.8240 N.am  143  ALA143     -0.1966
    162  CA        -9.5190   -9.6010    1.7670 C.3   143  ALA143      0.1728
    163  C         -9.8220   -8.7070    0.5470 C.2   143  ALA143      0.2616
    164  O        -10.2780   -7.5780    0.7550 O.2   143  ALA143     -0.2715
    165  CB        -9.4630  -11.0830    1.3990 C.3   143  ALA143      0.0334
    166  N         -9.5500   -9.1650   -0.7100 N.am  144  ASP144     -0.1957
    167  CA        -9.8160   -8.3650   -1.9100 C.3   144  ASP144      0.1840
    168  C        -11.3120   -8.1840   -2.0580 C.2   144  ASP144      0.2621
    169  O        -12.0640   -9.1380   -1.8710 O.2   144  ASP144     -0.2715
    170  CB        -9.1850   -9.0030   -3.1690 C.3   144  ASP144      0.1450
    171  CG        -9.7070  -10.3940   -3.4370 C.2   144  ASP144      0.3671
    172  OD1       -9.5190  -11.2710   -2.5740 O.co2 144  ASP144     -0.2456
    173  OD2      -10.3620  -10.5900   -4.4840 O.co2 144  ASP144     -0.2456
    174  N        -11.7410   -6.9720   -2.3770 N.am  145  LYS145     -0.1977
    175  CA       -13.1590   -6.6100   -2.3730 C.3   145  LYS145      0.1596
    176  C        -13.9610   -7.2170   -3.5150 C.2   145  LYS145      0.2287
    177  O        -15.1660   -7.4460   -3.3450 O.2   145  LYS145     -0.2864
    178  CB       -13.3490   -5.0710   -2.2890 C.3   145  LYS145      0.0298
    179  CG       -12.5030   -4.3780   -1.2050 C.3   145  LYS145      0.0038
    180  CD       -12.6300   -5.0060    0.1800 C.3   145  LYS145      0.0206
    181  CE       -11.5950   -4.5080    1.1500 C.3   145  LYS145      0.1093
    182  NZ       -11.3360   -5.4880    2.2500 N.3   145  LYS145     -0.1314
    183  N        -16.4860  -15.1020   -0.8740 N.3   151  TYR151     -0.1241
    184  CA       -16.1060  -15.2310    0.5350 C.3   151  TYR151      0.1605
    185  C        -17.3230  -15.3650    1.4530 C.2   151  TYR151      0.2264
    186  O        -17.3170  -16.2180    2.3350 O.2   151  TYR151     -0.2867
    187  CB       -15.1990  -14.0660    0.9830 C.3   151  TYR151      0.0534
    188  CG       -13.8820  -13.9920    0.2280 C.ar  151  TYR151     -0.0201
    189  CD1      -13.2670  -15.1460   -0.2630 C.ar  151  TYR151     -0.0009
    190  CD2      -13.2310  -12.7760    0.0390 C.ar  151  TYR151     -0.0009
    191  CE1      -12.0670  -15.0830   -0.9720 C.ar  151  TYR151      0.0417
    192  CE2      -12.0150  -12.7040   -0.6450 C.ar  151  TYR151      0.0417
    193  CZ       -11.4380  -13.8600   -1.1520 C.ar  151  TYR151      0.1957
    194  OH       -10.2610  -13.7970   -1.8530 O.3   151  TYR151     -0.2866
@<TRIPOS>BOND
     1   125   124   ar
     2   141   139   ar
     3   141   140   ar
     4   139   137   ar
     5   140   138   ar
     6   137   138   ar
     7   137   136    1
     8   124   126   ar
     9   124   123    1
    10   173   171   ar
    11   136   133    1
    12   123   120    1
    13   176   177    2
    14   176   175    1
    15   171   170    1
    16   171   172   ar
    17    94    92    1
    18   170   167    1
    19   133   134    1
    20   133   132    1
    21    93    92    1
    22   134   135    2
    23   120   119    1
    24   120   121    1
    25    92    91    1
    26   174   175    1
    27   174   168   am
    28   175   178    1
    29   178   179    1
    30   132   129   am
    31   168   167    1
    32   168   169    2
    33   119   117   am
    34   167   166    1
    35   194   193    1
    36   121   122    2
    37   121   127   am
    38   179   180    1
    39   193   191   ar
    40   193   192   ar
    41   127   128    1
    42   191   189   ar
    43    91    88    1
    44   183   184    1
    45   117   116    1
    46   117   118    2
    47   129   128    1
    48   129   130    2
    49   166   163   am
    50   192   190   ar
    51   116   115    1
    52   189   188   ar
    53   128   131    1
    54    90    89    2
    55   190   188   ar
    56    88    89    1
    57    88    87    1
    58   180   181    1
    59   188   187    1
    60    89    95   am
    61   184   187    1
    62   184   185    1
    63   163   164    2
    64   163   162    1
    65   114   112   ar
    66   114   113   ar
    67   181   182    1
    68    95    96    1
    69    87    81   am
    70   165   162    1
    71   112   110   ar
    72   113   111   ar
    73   185   186    2
    74    96    99    1
    75    96    97    1
    76    99   100    1
    77   162   161    1
    78     7     8    1
    79     7     6    1
    80    81    82    2
    81    81    80    1
    82   111   108   ar
    83   110   108   ar
    84   110   109   ar
    85    97    98    2
    86   161   155   am
    87     6     5    1
    88    86    84   ar
    89   108   106   ar
    90    80    79    1
    91    80    83    1
    92   109   107   ar
    93    84    85   ar
    94    84    83    1
    95   155   156    2
    96   155   154    1
    97    79    75   am
    98    77    78    1
    99    77    74    1
   100   106   107   ar
   101   106   105    1
   102     5     2    1
   103    75    76    2
   104    75    74    1
   105    27    26    1
   106    27    28    1
   107   154   153    1
   108   154   157    1
   109   101   102    1
   110    45    43   ar
   111    45    47   ar
   112    74    73    1
   113     1     2    1
   114     2     3    1
   115   105   102    1
   116    43    42   ar
   117    47    46   ar
   118   159   158   ar
   119   102   103    1
   120    28    30   am
   121    28    29    2
   122    42    41    1
   123    42    44   ar
   124   157   158    1
   125    30    31    1
   126    46    44   ar
   127   158   160   ar
   128    38    41    1
   129    38    37    1
   130    38    39    1
   131    37    32   am
   132     3     4    2
   133     3     9   am
   134   103   104    2
   135    31    32    1
   136    31    34    1
   137     9    10    1
   138    39    40    2
   139    39    48   am
   140    36    34    1
   141   145   144    2
   142    32    33    2
   143    34    35    1
   144   144   143    1
   145    48    49    1
   146    54    52    1
   147    10    11    1
   148    10    13    1
   149   143   142    1
   150   143   146    1
   151    12    11    2
   152    49    52    1
   153    49    50    1
   154    11    18   am
   155   152   150   ar
   156   152   151   ar
   157   150   148   ar
   158   151   149   ar
   159    52    53    1
   160    13    14    1
   161   148   147   ar
   162   149   147   ar
   163   147   146    1
   164    24    22    1
   165    18    19    1
   166    50    51    2
   167    19    22    1
   168    19    20    1
   169    72    71    1
   170    14    15    1
   171    22    23    1
   172    15    16    2
   173    15    17   am
   174    71    68    1
   175    20    21    2
   176    23    25    1
   177    55    56    1
   178    67    68    1
   179    67    57   am
   180    68    69    1
   181    59    56    1
   182    59    60    1
   183    56    57    1
   184    69    70    2
   185    57    58    2
   186    60    61   ar
   187    60    62   ar
   188    61    63   ar
   189    62    64   ar
   190    63    65   ar
   191    64    65   ar
   192    65    66    1
