@<TRIPOS>MOLECULE
tmp/5logA01.pdb
 115 109 0 0 0
SMALL
GASTEIGER

@<TRIPOS>ATOM
      1  N          1.2220   -0.4030    2.3180 N.3    38  LEU38      -0.1245
      2  CA        -0.2340   -0.5720    2.3830 C.3    38  LEU38       0.1561
      3  C         -0.7880   -0.5390    3.8190 C.2    38  LEU38       0.2260
      4  O         -1.6960   -1.3060    4.1630 O.2    38  LEU38      -0.2867
      5  CB        -0.6690   -1.8330    1.6330 C.3    38  LEU38       0.0270
      6  CG        -0.8280   -1.6780    0.1210 C.3    38  LEU38       0.0019
      7  CD1       -0.5770   -2.9930   -0.5810 C.3    38  LEU38       0.0001
      8  CD2       -2.2090   -1.1150   -0.2390 C.3    38  LEU38       0.0001
      9  N         -2.8320    1.5490    5.3300 N.3    40  THR40      -0.1203
     10  CA        -4.2600    1.8950    5.4210 C.3    40  THR40       0.1994
     11  C         -5.2090    0.6690    5.4250 C.2    40  THR40       0.2618
     12  O         -6.4040    0.8330    5.6810 O.2    40  THR40      -0.2717
     13  CB        -4.6430    2.9230    4.3420 C.3    40  THR40       0.1784
     14  OG1       -4.0930    2.5370    3.0800 O.3    40  THR40      -0.2211
     15  CG2       -4.1900    4.3320    4.6980 C.3    40  THR40       0.0376
     16  N         -4.6760   -0.5470    5.1860 N.am   41  MET41      -0.1965
     17  CA        -5.4460   -1.7930    5.2210 C.3    41  MET41       0.1736
     18  C         -5.6260   -2.2890    6.6690 C.2    41  MET41       0.2616
     19  O         -6.3870   -3.2210    6.8970 O.2    41  MET41      -0.2715
     20  CB        -4.7800   -2.8930    4.3750 C.3    41  MET41       0.0427
     21  CG        -4.6530   -2.5710    2.9000 C.3    41  MET41       0.0599
     22  SD        -4.2080   -4.0020    1.8790 S.3    41  MET41      -0.1393
     23  CE        -2.8090   -4.5830    2.7310 C.3    41  MET41       0.0692
     24  N         -4.9140   -1.7000    7.6400 N.am   42  GLN42      -0.1963
     25  CA        -5.0590   -2.1300    9.0340 C.3    42  GLN42       0.1733
     26  C         -6.3760   -1.6440    9.6590 C.2    42  GLN42       0.2616
     27  O         -6.8070   -0.5150    9.4350 O.2    42  GLN42      -0.2715
     28  CB        -3.8540   -1.7030    9.9030 C.3    42  GLN42       0.0408
     29  CG        -3.9390   -2.2070   11.3680 C.3    42  GLN42       0.0908
     30  CD        -2.6570   -1.9940   12.1120 C.2    42  GLN42       0.2608
     31  OE1       -1.8600   -2.9150   12.3060 O.2    42  GLN42      -0.2717
     32  NE2       -2.4040   -0.7570   12.4890 N.am   42  GLN42      -0.0878
     33  N         -6.9950   -2.4980   10.4620 N.am   43  ILE43      -0.1977
     34  CA        -8.1950   -2.1060   11.1810 C.3    43  ILE43       0.1596
     35  C         -7.7950   -1.1030   12.3170 C.2    43  ILE43       0.2287
     36  O         -6.7120   -1.2530   12.9080 O.2    43  ILE43      -0.2864
     37  CB        -9.0460   -3.3300   11.6470 C.3    43  ILE43       0.0276
     38  CG1       -8.3360   -4.1610   12.7340 C.3    43  ILE43       0.0022
     39  CG2       -9.4460   -4.1940   10.4280 C.3    43  ILE43       0.0022
     40  CD1       -9.2180   -4.9950   13.5660 C.3    43  ILE43       0.0001
     41  N        -12.1180   -9.7710    5.0720 N.3   142  ASP142     -0.1225
     42  CA       -11.3950   -8.5170    4.9460 C.3   142  ASP142      0.1805
     43  C        -10.2720   -8.6420    3.9170 C.2   142  ASP142      0.2597
     44  O         -9.1880   -8.1110    4.1250 O.2   142  ASP142     -0.2718
     45  CB       -10.8510   -8.1640    6.3430 C.3   142  ASP142      0.1424
     46  CG       -10.2060   -6.8100    6.4900 C.2   142  ASP142      0.3668
     47  OD1      -10.5720   -5.8890    5.7200 O.co2 142  ASP142     -0.2456
     48  OD2       -9.3130   -6.6730    7.3550 O.co2 142  ASP142     -0.2456
     49  N        -10.5230   -9.3760    2.8240 N.am  143  ALA143     -0.1979
     50  CA        -9.5190   -9.6010    1.7670 C.3   143  ALA143      0.1597
     51  C         -9.8220   -8.7070    0.5470 C.2   143  ALA143      0.2287
     52  O        -10.2780   -7.5780    0.7550 O.2   143  ALA143     -0.2864
     53  CB        -9.4630  -11.0830    1.3990 C.3   143  ALA143      0.0319
     54  N        -11.7410   -6.9720   -2.3770 N.3   145  LYS145     -0.1245
     55  CA       -13.1590   -6.6100   -2.3730 C.3   145  LYS145      0.1561
     56  C        -13.9610   -7.2170   -3.5150 C.2   145  LYS145      0.2260
     57  O        -15.1660   -7.4460   -3.3450 O.2   145  LYS145     -0.2867
     58  CB       -13.3490   -5.0710   -2.2890 C.3   145  LYS145      0.0271
     59  CG       -12.5030   -4.3780   -1.2050 C.3   145  LYS145      0.0035
     60  CD       -12.6300   -5.0060    0.1800 C.3   145  LYS145      0.0206
     61  CE       -11.5950   -4.5080    1.1500 C.3   145  LYS145      0.1093
     62  NZ       -11.3360   -5.4880    2.2500 N.3   145  LYS145     -0.1314
     63  N        -15.6640   -6.3880    6.4070 N.3   168  ASP168     -0.1225
     64  CA       -14.9730   -5.1070    6.5320 C.3   168  ASP168      0.1805
     65  C        -15.0940   -4.2620    5.2660 C.2   168  ASP168      0.2597
     66  O        -15.3870   -4.8120    4.1990 O.2   168  ASP168     -0.2718
     67  CB       -13.4850   -5.3400    6.8520 C.3   168  ASP168      0.1424
     68  CG       -12.8650   -4.1900    7.6330 C.2   168  ASP168      0.3668
     69  OD1      -13.5560   -3.6210    8.4710 O.co2 168  ASP168     -0.2456
     70  OD2      -11.6590   -3.8830    7.4090 O.co2 168  ASP168     -0.2456
     71  N        -14.8610   -2.9150    5.3950 N.am  169  ASN169     -0.1974
     72  CA       -14.8120   -1.9320    4.3110 C.3   169  ASN169      0.1688
     73  C        -16.0900   -1.8230    3.4660 C.2   169  ASN169      0.2292
     74  O        -15.9980   -1.4620    2.2840 O.2   169  ASN169     -0.2864
     75  CB       -13.6050   -2.2330    3.3760 C.3   169  ASN169      0.1181
     76  CG       -12.2750   -2.2830    4.0680 C.2   169  ASN169      0.2629
     77  OD1      -11.7270   -3.3540    4.3160 O.2   169  ASN169     -0.2716
     78  ND2      -11.6910   -1.1280    4.3270 N.am  169  ASN169     -0.0877
     79  N        -16.3790    1.6210    1.8350 N.3   172  TRP172     -0.1227
     80  CA       -15.2860    1.8980    0.9050 C.3   172  TRP172      0.1737
     81  C        -14.9960    3.4040    0.7270 C.2   172  TRP172      0.2596
     82  O        -15.0300    3.9140   -0.3990 O.2   172  TRP172     -0.2718
     83  CB       -15.5660    1.2110   -0.4500 C.3   172  TRP172      0.0564
     84  CG       -14.3530    0.9060   -1.2920 C.ar  172  TRP172      0.0003
     85  CD1      -14.2090    1.1470   -2.6250 C.ar  172  TRP172      0.0946
     86  CD2      -13.1830    0.1600   -0.8920 C.ar  172  TRP172      0.0152
     87  NE1      -13.0090    0.6430   -3.0710 N.ar  172  TRP172     -0.2442
     88  CE2      -12.3520    0.0460   -2.0260 C.ar  172  TRP172      0.0810
     89  CE3      -12.7430   -0.3930    0.3270 C.ar  172  TRP172      0.0012
     90  CZ2      -11.0990   -0.5810   -1.9810 C.ar  172  TRP172      0.0191
     91  CZ3      -11.4960   -0.9990    0.3790 C.ar  172  TRP172      0.0001
     92  CH2      -10.6980   -1.1110   -0.7720 C.ar  172  TRP172      0.0015
     93  N        -14.7400    4.1110    1.8510 N.am  173  SER173     -0.1952
     94  CA       -14.4430    5.5510    1.9160 C.3   173  SER173      0.1924
     95  C        -15.6230    6.4150    1.4250 C.2   173  SER173      0.2314
     96  O        -15.4300    7.5670    1.0170 O.2   173  SER173     -0.2863
     97  CB       -13.1730    5.8870    1.1320 C.3   173  SER173      0.2116
     98  OG       -12.0120    5.3250    1.7210 O.3   173  SER173     -0.2180
     99  N        -13.8570   -2.7610   -7.4000 N.3   186  GLU186     -0.1245
    100  CA       -14.0020   -2.8900   -5.9440 C.3   186  GLU186      0.1567
    101  C        -15.2870   -2.2350   -5.4320 C.2   186  GLU186      0.2260
    102  O        -16.0270   -2.8750   -4.6900 O.2   186  GLU186     -0.2867
    103  CB       -12.7780   -2.3420   -5.2070 C.3   186  GLU186      0.0388
    104  CG       -11.5150   -3.1470   -5.4520 C.3   186  GLU186      0.1160
    105  CD       -10.2470   -2.3640   -5.1790 C.2   186  GLU186      0.3649
    106  OE1      -10.1040   -1.2440   -5.7190 O.co2 186  GLU186     -0.2457
    107  OE2       -9.4260   -2.8420   -4.3660 O.co2 186  GLU186     -0.2457
    108  N        -14.2450    1.7360    8.2000 N.3   212  ASP212     -0.1239
    109  CA       -14.5980    1.8940    6.7870 C.3   212  ASP212      0.1674
    110  C        -15.9560    1.2180    6.4280 C.2   212  ASP212      0.2266
    111  O        -16.2230    0.8880    5.2610 O.2   212  ASP212     -0.2867
    112  CB       -13.4440    1.3990    5.8860 C.3   212  ASP212      0.1410
    113  CG       -13.5120    1.9260    4.4650 C.2   212  ASP212      0.3668
    114  OD1      -13.9090    3.1040    4.2850 O.co2 212  ASP212     -0.2456
    115  OD2      -13.2090    1.1560    3.5380 O.co2 212  ASP212     -0.2456
@<TRIPOS>BOND
     1    99   100    1
     2   100   101    1
     3   100   103    1
     4   106   105   ar
     5   104   103    1
     6   104   105    1
     7   101   102    2
     8   105   107   ar
     9    56    57    2
    10    56    55    1
    11    87    85   ar
    12    87    88   ar
    13    85    84   ar
    14    54    55    1
    15    55    58    1
    16    58    59    1
    17    88    90   ar
    18    88    86   ar
    19    90    92   ar
    20    84    86   ar
    21    84    83    1
    22    59    60    1
    23    86    89   ar
    24    92    91   ar
    25     7     6    1
    26    83    80    1
    27    82    81    2
    28     8     6    1
    29     6     5    1
    30    60    61    1
    31    89    91   ar
    32    51    52    2
    33    51    50    1
    34    81    80    1
    35    81    93   am
    36    80    79    1
    37    96    95    2
    38    97    98    1
    39    97    94    1
    40    61    62    1
    41    53    50    1
    42    95    94    1
    43     5     2    1
    44    50    49    1
    45    93    94    1
    46    22    23    1
    47    22    21    1
    48    74    73    2
    49     1     2    1
    50     2     3    1
    51    49    43   am
    52    21    20    1
    53    14    13    1
    54    75    76    1
    55    75    72    1
    56    73    72    1
    57   115   113   ar
    58     3     4    2
    59    43    44    2
    60    43    42    1
    61    76    77    2
    62    76    78   am
    63    66    65    2
    64   114   113   ar
    65    72    71    1
    66    13    15    1
    67    13    10    1
    68    20    17    1
    69   113   112    1
    70    42    41    1
    71    42    45    1
    72    16    17    1
    73    16    11   am
    74    17    18    1
    75   111   110    2
    76    65    71   am
    77    65    64    1
    78     9    10    1
    79    10    11    1
    80    11    12    2
    81    47    46   ar
    82   112   109    1
    83    45    46    1
    84    63    64    1
    85   110   109    1
    86    46    48   ar
    87    64    67    1
    88    18    19    2
    89    18    24   am
    90   109   108    1
    91    67    68    1
    92    70    68   ar
    93    68    69   ar
    94    24    25    1
    95    25    26    1
    96    25    28    1
    97    27    26    2
    98    26    33   am
    99    28    29    1
   100    39    37    1
   101    33    34    1
   102    34    37    1
   103    34    35    1
   104    29    30    1
   105    37    38    1
   106    30    31    2
   107    30    32   am
   108    35    36    2
   109    38    40    1
