@<TRIPOS>MOLECULE
tmp/5lohB00.pdb
 163 150 0 0 0
SMALL
GASTEIGER

@<TRIPOS>ATOM
      1  N         -4.7010   14.8500  -54.8880 N.3    12  ILE12      -0.1231
      2  CA        -4.5850   15.9040  -53.8820 C.3    12  ILE12       0.1692
      3  C         -3.3340   15.6910  -53.0370 C.2    12  ILE12       0.2592
      4  O         -2.4490   16.5530  -52.9710 O.2    12  ILE12      -0.2718
      5  CB        -5.8520   15.9600  -53.0110 C.3    12  ILE12       0.0266
      6  CG1       -7.0460   16.4590  -53.8280 C.3    12  ILE12       0.0019
      7  CG2       -5.6260   16.8430  -51.8000 C.3    12  ILE12       0.0020
      8  CD1       -6.7670   17.7240  -54.6130 C.3    12  ILE12       0.0001
      9  N         -3.2430   14.5340  -52.3840 N.am   13  SER13      -0.1952
     10  CA        -2.0770   14.2090  -51.5740 C.3    13  SER13       0.1924
     11  C         -1.9970   12.7080  -51.3270 C.2    13  SER13       0.2314
     12  O         -2.2100   12.2440  -50.2020 O.2    13  SER13      -0.2863
     13  CB        -2.1140   14.9640  -50.2440 C.3    13  SER13       0.2116
     14  OG        -2.5880   14.1300  -49.2040 O.3    13  SER13      -0.2180
     15  N         -0.2930    9.9130  -50.2580 N.3    15  GLY15      -0.1225
     16  CA         0.8920    9.6180  -49.4760 C.3    15  GLY15       0.1811
     17  C          0.8770   10.2630  -48.1030 C.2    15  GLY15       0.2280
     18  O          0.2280   11.2900  -47.9000 O.2    15  GLY15      -0.2866
     19  N         -2.5690    7.4020  -46.2020 N.3    18  GLY18      -0.1225
     20  CA        -3.8770    7.5070  -46.8040 C.3    18  GLY18       0.1811
     21  C         -3.8620    8.4500  -47.9890 C.2    18  GLY18       0.2280
     22  O         -3.5330    9.6310  -47.8530 O.2    18  GLY18      -0.2866
     23  N         -5.3810   10.7380  -51.0120 N.3    20  VAL20      -0.1245
     24  CA        -6.5210   11.6070  -51.2800 C.3    20  VAL20       0.1561
     25  C         -6.3520   12.1770  -52.6800 C.2    20  VAL20       0.2260
     26  O         -5.2710   12.6650  -53.0270 O.2    20  VAL20      -0.2867
     27  CB        -6.6440   12.7430  -50.2450 C.3    20  VAL20       0.0252
     28  CG1       -7.7470   13.7070  -50.6460 C.3    20  VAL20       0.0019
     29  CG2       -6.9080   12.1800  -48.8600 C.3    20  VAL20       0.0019
     30  N        -13.5540   15.4510  -53.0780 N.3    31  ALA31      -0.1245
     31  CA       -12.2560   15.0400  -52.5530 C.3    31  ALA31       0.1562
     32  C        -12.4150   13.6490  -51.9560 C.2    31  ALA31       0.2260
     33  O        -13.1150   13.4760  -50.9520 O.2    31  ALA31      -0.2867
     34  CB       -11.7410   16.0340  -51.5150 C.3    31  ALA31       0.0290
     35  N        -10.9230   10.2140  -50.2610 N.3    33  LYS33      -0.1245
     36  CA        -9.8610    9.6200  -49.4590 C.3    33  LYS33       0.1561
     37  C         -9.9930    8.1050  -49.5120 C.2    33  LYS33       0.2260
     38  O        -11.0130    7.5500  -49.0880 O.2    33  LYS33      -0.2867
     39  CB        -9.9110   10.1080  -48.0120 C.3    33  LYS33       0.0271
     40  CG        -8.7840    9.5550  -47.1550 C.3    33  LYS33       0.0035
     41  CD        -8.8100   10.1280  -45.7510 C.3    33  LYS33       0.0206
     42  CE        -7.5390    9.7770  -44.9900 C.3    33  LYS33       0.1093
     43  NZ        -7.4040    8.3100  -44.7710 N.3    33  LYS33      -0.1314
     44  N        -15.7270   19.4190  -42.5870 N.3    52  VAL52      -0.1245
     45  CA       -15.7520   18.9240  -43.9580 C.3    52  VAL52       0.1561
     46  C        -16.8260   17.8560  -44.0810 C.2    52  VAL52       0.2260
     47  O        -16.8350   16.8680  -43.3360 O.2    52  VAL52      -0.2867
     48  CB       -14.3710   18.3850  -44.3600 C.3    52  VAL52       0.0252
     49  CG1      -14.4180   17.7900  -45.7570 C.3    52  VAL52       0.0019
     50  CG2      -13.3300   19.4880  -44.2880 C.3    52  VAL52       0.0019
     51  N        -15.8530   13.3750  -50.0010 N.3    68  MET68      -0.1230
     52  CA       -16.1170   14.6030  -49.2690 C.3    68  MET68       0.1702
     53  C        -16.1560   15.7840  -50.2320 C.2    68  MET68       0.2592
     54  O        -15.9250   15.6470  -51.4360 O.2    68  MET68      -0.2718
     55  CB       -15.0570   14.8340  -48.1890 C.3    68  MET68       0.0401
     56  CG       -15.0220   13.7830  -47.0980 C.3    68  MET68       0.0596
     57  SD       -13.4030   13.6960  -46.3120 S.3    68  MET68      -0.1393
     58  CE       -12.4280   12.9780  -47.6330 C.3    68  MET68       0.0692
     59  N        -16.4540   16.9560  -49.6810 N.am   69  GLU69      -0.1966
     60  CA       -16.3860   18.1830  -50.4540 C.3    69  GLU69       0.1733
     61  C        -14.9320   18.5420  -50.7480 C.2    69  GLU69       0.2616
     62  O        -13.9960   18.0280  -50.1290 O.2    69  GLU69      -0.2715
     63  CB       -17.0680   19.3260  -49.7040 C.3    69  GLU69       0.0429
     64  CG       -16.5940   19.4910  -48.2710 C.3    69  GLU69       0.1163
     65  CD       -17.3240   20.5990  -47.5380 C.2    69  GLU69       0.3649
     66  OE1      -17.7020   20.3890  -46.3660 O.co2  69  GLU69      -0.2457
     67  OE2      -17.5180   21.6800  -48.1310 O.co2  69  GLU69      -0.2457
     68  N        -14.7490   19.4350  -51.7130 N.am   70  TYR70      -0.1960
     69  CA       -13.4280   19.8950  -52.1150 C.3    70  TYR70       0.1771
     70  C        -13.2650   21.3440  -51.6840 C.2    70  TYR70       0.2619
     71  O        -13.9810   22.2250  -52.1700 O.2    70  TYR70      -0.2715
     72  CB       -13.2250   19.7510  -53.6230 C.3    70  TYR70       0.0574
     73  CG       -11.8620   20.2030  -54.0980 C.ar   70  TYR70      -0.0198
     74  CD1      -10.7020   19.6680  -53.5540 C.ar   70  TYR70      -0.0009
     75  CD2      -11.7360   21.1570  -55.0980 C.ar   70  TYR70      -0.0009
     76  CE1       -9.4530   20.0760  -53.9890 C.ar   70  TYR70       0.0417
     77  CE2      -10.4920   21.5700  -55.5400 C.ar   70  TYR70       0.0417
     78  CZ        -9.3540   21.0270  -54.9830 C.ar   70  TYR70       0.1957
     79  OH        -8.1150   21.4390  -55.4210 O.3    70  TYR70      -0.2866
     80  N        -12.3390   21.5820  -50.7650 N.am   71  LEU71      -0.1963
     81  CA       -12.0160   22.9240  -50.2900 C.3    71  LEU71       0.1728
     82  C        -10.7000   23.3220  -50.9450 C.2    71  LEU71       0.2616
     83  O         -9.6250   22.9050  -50.5100 O.2    71  LEU71      -0.2715
     84  CB       -11.9410   22.9580  -48.7680 C.3    71  LEU71       0.0311
     85  CG       -13.1090   22.2660  -48.0560 C.3    71  LEU71       0.0022
     86  CD1      -13.0020   22.4120  -46.5530 C.3    71  LEU71       0.0001
     87  CD2      -14.4370   22.8120  -48.5480 C.3    71  LEU71       0.0001
     88  N        -10.7900   24.1410  -51.9960 N.am   72  ILE72      -0.1977
     89  CA        -9.6220   24.4630  -52.8140 C.3    72  ILE72       0.1596
     90  C         -8.6460   25.4020  -52.1180 C.2    72  ILE72       0.2287
     91  O         -7.5960   25.7170  -52.6900 O.2    72  ILE72      -0.2864
     92  CB       -10.1090   25.0470  -54.1570 C.3    72  ILE72       0.0276
     93  CG1       -9.0700   24.8450  -55.2600 C.3    72  ILE72       0.0022
     94  CG2      -10.4280   26.5110  -54.0000 C.3    72  ILE72       0.0022
     95  CD1       -9.6200   25.0430  -56.6560 C.3    72  ILE72       0.0001
     96  N         -6.8740   24.7550  -49.4030 N.3    74  GLY74      -0.1210
     97  CA        -5.7770   24.0410  -48.7930 C.3    74  GLY74       0.1956
     98  C         -5.8090   24.1340  -47.2800 C.2    74  GLY74       0.2611
     99  O         -6.7560   24.6350  -46.6660 O.2    74  GLY74      -0.2717
    100  N         -4.7360   23.6370  -46.6720 N.am   75  ASP75      -0.1973
    101  CA        -4.6400   23.6220  -45.2230 C.3    75  ASP75       0.1709
    102  C         -4.1500   24.9680  -44.6980 C.2    75  ASP75       0.2293
    103  O         -3.5280   25.7570  -45.4140 O.2    75  ASP75      -0.2864
    104  CB        -3.7080   22.5030  -44.7580 C.3    75  ASP75       0.1436
    105  CG        -2.3900   22.4950  -45.5020 C.2    75  ASP75       0.3671
    106  OD1       -1.4930   23.2800  -45.1300 O.co2  75  ASP75      -0.2456
    107  OD2       -2.2470   21.7000  -46.4550 O.co2  75  ASP75      -0.2456
    108  N         -1.9140   25.1880  -42.4810 N.3    77  LYS77      -0.1245
    109  CA        -0.4640   25.0750  -42.3470 C.3    77  LYS77       0.1561
    110  C          0.2420   25.7760  -43.5020 C.2    77  LYS77       0.2260
    111  O          1.1190   26.6220  -43.2910 O.2    77  LYS77      -0.2867
    112  CB        -0.0600   23.6010  -42.2820 C.3    77  LYS77       0.0271
    113  CG         1.3800   23.3510  -41.8600 C.3    77  LYS77       0.0035
    114  CD         1.5460   23.4660  -40.3510 C.3    77  LYS77       0.0206
    115  CE         2.9780   23.1680  -39.9270 C.3    77  LYS77       0.1093
    116  NZ         3.1260   23.0980  -38.4450 N.3    77  LYS77      -0.1314
    117  N         -2.3380   21.3300  -39.9600 N.3   118  ASP118     -0.1225
    118  CA        -2.3710   20.4310  -41.1060 C.3   118  ASP118      0.1805
    119  C         -3.7680   19.8910  -41.3810 C.2   118  ASP118      0.2597
    120  O         -4.0490   19.4930  -42.5150 O.2   118  ASP118     -0.2718
    121  CB        -1.4030   19.2640  -40.8950 C.3   118  ASP118      0.1424
    122  CG         0.0080   19.7230  -40.5750 C.2   118  ASP118      0.3668
    123  OD1        0.2530   20.1600  -39.4290 O.co2 118  ASP118     -0.2456
    124  OD2        0.8760   19.6410  -41.4710 O.co2 118  ASP118     -0.2456
    125  N         -4.6480   19.8740  -40.3790 N.am  119  ASN119     -0.1974
    126  CA        -5.9800   19.3020  -40.5180 C.3   119  ASN119      0.1688
    127  C         -7.0830   20.3470  -40.6100 C.2   119  ASN119      0.2292
    128  O         -8.2580   19.9790  -40.7150 O.2   119  ASN119     -0.2864
    129  CB        -6.2710   18.3520  -39.3520 C.3   119  ASN119      0.1181
    130  CG        -5.3600   17.1450  -39.3480 C.2   119  ASN119      0.2629
    131  OD1       -5.0750   16.5660  -40.3960 O.2   119  ASN119     -0.2716
    132  ND2       -4.8960   16.7580  -38.1660 N.am  119  ASN119     -0.0877
    133  N         -8.8650   22.9500  -42.9080 N.3   121  LEU121     -0.1245
    134  CA        -8.9790   23.2900  -44.3180 C.3   121  LEU121      0.1561
    135  C         -9.6690   24.6380  -44.4890 C.2   121  LEU121      0.2260
    136  O        -10.3170   25.1540  -43.5750 O.2   121  LEU121     -0.2867
    137  CB        -9.7360   22.2000  -45.0770 C.3   121  LEU121      0.0270
    138  CG        -8.9690   20.8840  -45.1990 C.3   121  LEU121      0.0019
    139  CD1       -9.8420   19.7970  -45.8060 C.3   121  LEU121      0.0001
    140  CD2       -7.7010   21.0910  -46.0170 C.3   121  LEU121      0.0001
    141  N        -11.2560   18.4530  -40.2270 N.3   131  THR131     -0.1203
    142  CA       -11.3600   17.1140  -40.7940 C.3   131  THR131      0.1994
    143  C        -10.4600   16.1980  -39.9730 C.2   131  THR131      0.2617
    144  O         -9.9040   16.6110  -38.9480 O.2   131  THR131     -0.2717
    145  CB       -10.9960   17.1280  -42.2880 C.3   131  THR131      0.1784
    146  OG1      -11.2210   15.8310  -42.8570 O.3   131  THR131     -0.2211
    147  CG2       -9.5350   17.5100  -42.4830 C.3   131  THR131      0.0376
    148  N        -10.3310   14.9460  -40.4170 N.am  132  ASP132     -0.1973
    149  CA        -9.4060   13.9720  -39.8250 C.3   132  ASP132      0.1709
    150  C         -9.8290   13.6140  -38.3940 C.2   132  ASP132      0.2293
    151  O         -9.1780   13.9550  -37.4070 O.2   132  ASP132     -0.2864
    152  CB        -7.9640   14.5000  -39.8710 C.3   132  ASP132      0.1436
    153  CG        -6.9380   13.3900  -39.9940 C.2   132  ASP132      0.3671
    154  OD1       -6.6020   12.9970  -41.1280 O.co2 132  ASP132     -0.2456
    155  OD2       -6.4660   12.9060  -38.9410 O.co2 132  ASP132     -0.2456
    156  N        -11.0290    8.9440  -38.9730 N.3   135  LEU135     -0.1245
    157  CA        -9.8960    8.2690  -39.5960 C.3   135  LEU135      0.1561
    158  C         -8.8210    7.9330  -38.5660 C.2   135  LEU135      0.2260
    159  O         -8.0050    8.7860  -38.2080 O.2   135  LEU135     -0.2867
    160  CB        -9.3050    9.1470  -40.6990 C.3   135  LEU135      0.0270
    161  CG       -10.3240    9.6780  -41.7060 C.3   135  LEU135      0.0019
    162  CD1       -9.9190   11.0520  -42.1880 C.3   135  LEU135      0.0001
    163  CD2      -10.4880    8.7140  -42.8710 C.3   135  LEU135      0.0001
@<TRIPOS>BOND
     1    95    93    1
     2    77    75   ar
     3    77    78   ar
     4    79    78    1
     5    93    92    1
     6    75    73   ar
     7    78    76   ar
     8     1     2    1
     9     8     6    1
    10    92    94    1
    11    92    89    1
    12    73    72    1
    13    73    74   ar
    14    76    74   ar
    15     2     3    1
    16     2     5    1
    17     6     5    1
    18    72    69    1
    19    30    31    1
    20     3     4    2
    21     3     9   am
    22    26    25    2
    23     5     7    1
    24    89    90    1
    25    89    88    1
    26    91    90    2
    27    25    24    1
    28    31    32    1
    29    31    34    1
    30     9    10    1
    31    71    70    2
    32    69    68    1
    33    69    70    1
    34    88    82   am
    35    32    33    2
    36    68    61   am
    37    70    80   am
    38    10    11    1
    39    10    13    1
    40    54    53    2
    41    11    12    2
    42    24    23    1
    43    24    27    1
    44    82    83    2
    45    82    81    1
    46    80    81    1
    47    61    60    1
    48    61    62    2
    49    28    27    1
    50    60    63    1
    51    60    59    1
    52    81    84    1
    53    35    36    1
    54    15    16    1
    55    27    29    1
    56    13    14    1
    57    53    59   am
    58    53    52    1
    59    51    52    1
    60    63    64    1
    61    37    36    1
    62    37    38    2
    63    16    17    1
    64    36    39    1
    65    96    97    1
    66    52    55    1
    67    97    98    1
    68    84    85    1
    69    87    85    1
    70    64    65    1
    71    55    56    1
    72    67    65   ar
    73    17    18    2
    74    85    86    1
    75    39    40    1
    76    21    22    2
    77    21    20    1
    78    58    57    1
    79    65    66   ar
    80    98   100   am
    81    98    99    2
    82    40    41    1
    83    56    57    1
    84    20    19    1
    85   100   101    1
    86   107   105   ar
    87   140   138    1
    88   139   138    1
    89    49    48    1
    90    41    42    1
    91   105   106   ar
    92   105   104    1
    93   103   102    2
    94   101   104    1
    95   101   102    1
    96   138   137    1
    97   137   134    1
    98    42    43    1
    99   135   134    1
   100   135   136    2
   101    48    50    1
   102    48    45    1
   103   134   133    1
   104    46    45    1
   105    46    47    2
   106    45    44    1
   107   110   111    2
   108   110   109    1
   109   163   161    1
   110   146   145    1
   111   120   119    2
   112   147   145    1
   113   108   109    1
   114   109   112    1
   115   145   142    1
   116   112   113    1
   117   162   161    1
   118   113   114    1
   119   161   160    1
   120   124   122   ar
   121   119   118    1
   122   119   125   am
   123   154   153   ar
   124   118   121    1
   125   118   117    1
   126   121   122    1
   127   142   141    1
   128   142   143    1
   129   128   127    2
   130   160   157    1
   131   127   126    1
   132   122   123   ar
   133   126   125    1
   134   126   129    1
   135   148   143   am
   136   148   149    1
   137   131   130    2
   138   114   115    1
   139   153   152    1
   140   153   155   ar
   141   143   144    2
   142   115   116    1
   143   152   149    1
   144   149   150    1
   145   157   156    1
   146   157   158    1
   147   129   130    1
   148   130   132   am
   149   158   159    2
   150   150   151    2
