@<TRIPOS>MOLECULE
tmp/5lopA00.pdb
 168 161 0 0 0
SMALL
GASTEIGER

@<TRIPOS>ATOM
      1  N         45.5240   42.7490   -4.6180 N.3    41  PHE41      -0.1241
      2  CA        46.5080   42.3390   -3.6300 C.3    41  PHE41       0.1605
      3  C         46.6660   43.3980   -2.5800 C.2    41  PHE41       0.2264
      4  O         46.9840   43.0460   -1.4480 O.2    41  PHE41      -0.2867
      5  CB        47.8490   42.0080   -4.2560 C.3    41  PHE41       0.0534
      6  CG        47.8960   40.5850   -4.7400 C.ar   41  PHE41      -0.0203
      7  CD1       47.9310   39.5230   -3.8350 C.ar   41  PHE41      -0.0042
      8  CD2       47.9120   40.2970   -6.0950 C.ar   41  PHE41      -0.0042
      9  CE1       47.9540   38.1940   -4.2850 C.ar   41  PHE41      -0.0003
     10  CE2       47.9220   38.9740   -6.5410 C.ar   41  PHE41      -0.0003
     11  CZ        47.9430   37.9290   -5.6340 C.ar   41  PHE41      -0.0000
     12  N         43.6750   43.3320   -0.3170 N.3    44  GLU44      -0.1245
     13  CA        43.9140   42.2040    0.5870 C.3    44  GLU44       0.1567
     14  C         44.8170   42.6560    1.7530 C.2    44  GLU44       0.2260
     15  O         44.6040   42.2230    2.8880 O.2    44  GLU44      -0.2867
     16  CB        44.5580   41.0630   -0.2250 C.3    44  GLU44       0.0388
     17  CG        44.6710   39.7070    0.4460 C.3    44  GLU44       0.1160
     18  CD        45.7520   38.8410   -0.1810 C.2    44  GLU44       0.3649
     19  OE1       46.7840   39.3920   -0.6330 O.co2  44  GLU44      -0.2457
     20  OE2       45.5840   37.6010   -0.1830 O.co2  44  GLU44      -0.2457
     21  N         43.6200   43.4280    5.6400 N.3    48  TRP48      -0.1241
     22  CA        44.3870   42.8170    6.7340 C.3    48  TRP48       0.1605
     23  C         44.9000   43.8440    7.7210 C.2    48  TRP48       0.2264
     24  O         45.1850   43.4870    8.8510 O.2    48  TRP48      -0.2867
     25  CB        45.5890   42.0310    6.2250 C.3    48  TRP48       0.0550
     26  CG        45.2950   40.7050    5.6090 C.ar   48  TRP48       0.0003
     27  CD1       44.2160   39.8990    5.8320 C.ar   48  TRP48       0.0946
     28  CD2       46.1530   39.9910    4.7280 C.ar   48  TRP48       0.0152
     29  NE1       44.3240   38.7500    5.0810 N.ar   48  TRP48      -0.2442
     30  CE2       45.5080   38.7770    4.4020 C.ar   48  TRP48       0.0810
     31  CE3       47.4020   40.2760    4.1530 C.ar   48  TRP48       0.0012
     32  CZ2       46.0520   37.8640    3.5100 C.ar   48  TRP48       0.0191
     33  CZ3       47.9550   39.3600    3.2760 C.ar   48  TRP48       0.0001
     34  CH2       47.2810   38.1720    2.9570 C.ar   48  TRP48       0.0015
     35  N         41.5310   45.0940    9.7770 N.3    51  THR51      -0.1203
     36  CA        41.2100   44.1340   10.8300 C.3    51  THR51       0.1994
     37  C         42.4010   43.8650   11.7620 C.2    51  THR51       0.2617
     38  O         42.1930   43.3140   12.8410 O.2    51  THR51      -0.2717
     39  CB        40.5380   42.8460   10.3040 C.3    51  THR51       0.1784
     40  OG1       40.6760   42.7400    8.8910 O.3    51  THR51      -0.2211
     41  CG2       39.0370   42.7840   10.6650 C.3    51  THR51       0.0376
     42  N         43.6030   44.3530   11.4350 N.am   52  ASP52      -0.1973
     43  CA        44.7360   44.1940   12.3620 C.3    52  ASP52       0.1709
     44  C         44.8930   45.3920   13.3370 C.2    52  ASP52       0.2293
     45  O         45.2940   45.1700   14.4800 O.2    52  ASP52      -0.2864
     46  CB        46.0800   43.8960   11.6250 C.3    52  ASP52       0.1436
     47  CG        46.4380   42.4270   11.3160 C.2    52  ASP52       0.3671
     48  OD1       45.5290   41.5500   11.4060 O.co2  52  ASP52      -0.2456
     49  OD2       47.6180   42.1650   10.9320 O.co2  52  ASP52      -0.2456
     50  N         45.1950   33.0680   -6.9840 N.3    98  LYS98      -0.1245
     51  CA        46.1550   32.8000   -5.9310 C.3    98  LYS98       0.1561
     52  C         46.6230   31.3480   -5.9740 C.2    98  LYS98       0.2260
     53  O         47.8120   31.0830   -5.8470 O.2    98  LYS98      -0.2867
     54  CB        45.5660   33.1900   -4.5590 C.3    98  LYS98       0.0271
     55  CG        45.4120   34.7200   -4.3300 C.3    98  LYS98       0.0035
     56  CD        45.7330   35.1800   -2.8870 C.3    98  LYS98       0.0206
     57  CE        44.6890   34.7810   -1.8540 C.3    98  LYS98       0.1093
     58  NZ        45.2050   34.8890   -0.4590 N.3    98  LYS98      -0.1314
     59  N         54.5680   28.5440   -4.1810 N.3   103  VAL103     -0.1245
     60  CA        55.0150   28.6350   -2.8170 C.3   103  VAL103      0.1561
     61  C         56.4870   28.2500   -2.7540 C.2   103  VAL103      0.2260
     62  O         56.9020   27.3140   -3.4270 O.2   103  VAL103     -0.2867
     63  CB        54.1340   27.6840   -1.9740 C.3   103  VAL103      0.0252
     64  CG1       54.3560   27.8920   -0.5010 C.3   103  VAL103      0.0019
     65  CG2       52.6540   27.8600   -2.3020 C.3   103  VAL103      0.0019
     66  N         46.2190   29.2000   11.6930 N.3   122  ILE122     -0.1231
     67  CA        44.9760   29.5880   12.3870 C.3   122  ILE122      0.1692
     68  C         43.7260   28.6910   12.1440 C.2   122  ILE122      0.2592
     69  O         43.2330   28.0400   13.0730 O.2   122  ILE122     -0.2718
     70  CB        44.6460   31.0820   12.0700 C.3   122  ILE122      0.0266
     71  CG1       45.1740   31.5250   10.6790 C.3   122  ILE122      0.0019
     72  CG2       45.1720   31.9950   13.1730 C.3   122  ILE122      0.0020
     73  CD1       44.1430   32.0040    9.7500 C.3   122  ILE122      0.0001
     74  N         43.2250   28.6970   10.9030 N.am  123  ASN123     -0.1974
     75  CA        42.0250   28.0110   10.4220 C.3   123  ASN123      0.1688
     76  C         42.1380   26.4810   10.4140 C.2   123  ASN123      0.2292
     77  O         41.1460   25.7830   10.6690 O.2   123  ASN123     -0.2864
     78  CB        41.6820   28.5430    9.0000 C.3   123  ASN123      0.1181
     79  CG        42.7980   28.4510    7.9440 C.2   123  ASN123      0.2629
     80  OD1       42.7130   27.6810    6.9750 O.2   123  ASN123     -0.2716
     81  ND2       43.8490   29.2640    8.0660 N.am  123  ASN123     -0.0877
     82  N         56.3030   28.6830    4.7970 N.3   131  ARG131     -0.1231
     83  CA        56.2650   28.7690    3.3490 C.3   131  ARG131      0.1694
     84  C         55.2670   29.7960    2.8380 C.2   131  ARG131      0.2593
     85  O         54.2440   30.0250    3.4840 O.2   131  ARG131     -0.2718
     86  CB        55.9570   27.3420    2.8140 C.3   131  ARG131      0.0321
     87  CG        54.4920   26.9350    2.6070 C.3   131  ARG131      0.0489
     88  CD        53.6510   26.7230    3.8430 C.3   131  ARG131      0.2205
     89  NE        52.9870   25.4280    3.7830 N.pl3 131  ARG131     -0.0865
     90  CZ        51.9080   25.1840    3.0500 C.cat 131  ARG131      0.5346
     91  NH1       51.3500   26.1530    2.3320 N.pl3 131  ARG131      0.1354
     92  NH2       51.3830   23.9670    3.0180 N.pl3 131  ARG131      0.1354
     93  N         55.5600   30.3880    1.6850 N.am  132  GLY132     -0.1942
     94  CA        54.6730   31.3640    1.0690 C.3   132  GLY132      0.2014
     95  C         54.8480   31.5780   -0.4230 C.2   132  GLY132      0.2638
     96  O         55.8710   31.2070   -1.0050 O.2   132  GLY132     -0.2714
     97  N         53.8440   32.2240   -1.0360 N.am  133  LYS133     -0.1977
     98  CA        53.7470   32.5820   -2.4560 C.3   133  LYS133      0.1596
     99  C         54.8100   33.6080   -2.8530 C.2   133  LYS133      0.2287
    100  O         55.0630   34.5390   -2.0910 O.2   133  LYS133     -0.2864
    101  CB        52.3610   33.1940   -2.7150 C.3   133  LYS133      0.0298
    102  CG        51.1830   32.3070   -2.3130 C.3   133  LYS133      0.0038
    103  CD        50.5700   32.6900   -0.9860 C.3   133  LYS133      0.0206
    104  CE        49.2570   31.9710   -0.7860 C.3   133  LYS133      0.1093
    105  NZ        49.4140   30.5140   -0.5020 N.3   133  LYS133     -0.1314
    106  N         59.4000   35.0600    3.3810 N.3   147  GLU147     -0.1245
    107  CA        58.2920   34.2710    3.9090 C.3   147  GLU147      0.1567
    108  C         58.6030   33.5320    5.2090 C.2   147  GLU147      0.2260
    109  O         57.7320   33.4600    6.0590 O.2   147  GLU147     -0.2867
    110  CB        57.7250   33.3240    2.8630 C.3   147  GLU147      0.0388
    111  CG        56.6790   34.0040    1.9760 C.3   147  GLU147      0.1160
    112  CD        55.3790   34.5110    2.5940 C.2   147  GLU147      0.3649
    113  OE1       54.9080   33.9100    3.5880 O.co2 147  GLU147     -0.2457
    114  OE2       54.8060   35.4860    2.0550 O.co2 147  GLU147     -0.2457
    115  N         58.7860   36.3190    8.0460 N.3   150  GLU150     -0.1231
    116  CA        57.4120   36.7290    8.3080 C.3   150  GLU150      0.1699
    117  C         56.6730   35.6850    9.1440 C.2   150  GLU150      0.2592
    118  O         55.8380   36.0490    9.9610 O.2   150  GLU150     -0.2718
    119  CB        56.7010   36.9220    6.9570 C.3   150  GLU150      0.0402
    120  CG        55.4360   37.7470    6.9210 C.3   150  GLU150      0.1161
    121  CD        54.9680   38.0930    5.5100 C.2   150  GLU150      0.3649
    122  OE1       53.8000   37.7780    5.1780 O.co2 150  GLU150     -0.2457
    123  OE2       55.7690   38.6670    4.7310 O.co2 150  GLU150     -0.2457
    124  N         56.9630   34.3950    8.9360 N.am  151  GLU151     -0.1979
    125  CA        56.2780   33.2900    9.6100 C.3   151  GLU151      0.1602
    126  C         56.9510   32.8140   10.8900 C.2   151  GLU151      0.2287
    127  O         56.2780   32.2220   11.7360 O.2   151  GLU151     -0.2864
    128  CB        56.0290   32.1000    8.6430 C.3   151  GLU151      0.0415
    129  CG        54.9690   32.4450    7.5970 C.3   151  GLU151      0.1163
    130  CD        54.2830   31.3630    6.7920 C.2   151  GLU151      0.3649
    131  OE1       54.4320   30.1690    7.1310 O.co2 151  GLU151     -0.2457
    132  OE2       53.5280   31.7190    5.8610 O.co2 151  GLU151     -0.2457
    133  N         53.3340   38.2210   11.7930 N.3   193  HIS193     -0.1226
    134  CA        52.0500   38.7290   11.3310 C.3   193  HIS193      0.1752
    135  C         50.8600   38.1390   12.0640 C.2   193  HIS193      0.2596
    136  O         50.7730   36.9260   12.2890 O.2   193  HIS193     -0.2718
    137  CB        51.8940   38.5910    9.8080 C.3   193  HIS193      0.0759
    138  CG        52.2270   39.8540    9.0760 C.ar  193  HIS193      0.0818
    139  ND1       51.5200   41.0260    9.3010 N.ar  193  HIS193     -0.2268
    140  CD2       53.1510   40.0830    8.1130 C.ar  193  HIS193      0.1154
    141  CE1       52.0540   41.9300    8.4920 C.ar  193  HIS193      0.1986
    142  NE2       53.0370   41.4090    7.7560 N.ar  193  HIS193     -0.2212
    143  N         49.9200   39.0160   12.3930 N.am  194  LYS194     -0.1966
    144  CA        48.7150   38.6530   13.1150 C.3   194  LYS194      0.1728
    145  C         47.7630   37.8400   12.2390 C.2   194  LYS194      0.2616
    146  O         47.6000   38.1570   11.0650 O.2   194  LYS194     -0.2715
    147  CB        48.0020   39.9210   13.6180 C.3   194  LYS194      0.0311
    148  CG        48.8630   40.9060   14.4380 C.3   194  LYS194      0.0038
    149  CD        47.9920   42.0290   15.0460 C.3   194  LYS194      0.0206
    150  CE        48.6900   42.9110   16.0640 C.3   194  LYS194      0.1093
    151  NZ        47.7290   43.7450   16.8480 N.3   194  LYS194     -0.1314
    152  N         47.1370   36.8060   12.8250 N.am  195  ASN195     -0.1958
    153  CA        46.1070   35.9090   12.2540 C.3   195  ASN195      0.1819
    154  C         46.5370   35.0690   11.0510 C.2   195  ASN195      0.2624
    155  O         45.7470   34.8380   10.1320 O.2   195  ASN195     -0.2715
    156  CB        44.8130   36.6660   11.9080 C.3   195  ASN195      0.1195
    157  CG        44.2810   37.5310   13.0230 C.2   195  ASN195      0.2630
    158  OD1       44.5260   38.7480   13.0700 O.2   195  ASN195     -0.2716
    159  ND2       43.5460   36.9210   13.9450 N.am  195  ASN195     -0.0877
    160  N         47.7490   34.5550   11.0950 N.am  196  GLU196     -0.1932
    161  CA        48.2680   33.7560    9.9990 C.3   196  GLU196      0.1818
    162  C         48.7530   32.3900   10.5320 C.2   196  GLU196      0.2332
    163  O         48.3390   31.3540   10.0160 O.2   196  GLU196     -0.2860
    164  CB        49.3530   34.5830    9.2720 C.2   196  GLU196      0.0097
    165  CG        49.8980   34.0330    7.9590 C.2   196  GLU196      0.0837
    166  CD        50.9970   34.8550    7.2940 C.2   196  GLU196      0.3877
    167  OE1       51.7460   35.5600    8.0120 O.co2 196  GLU196     -0.2406
    168  OE2       51.1170   34.7830    6.0490 O.co2 196  GLU196     -0.2406
@<TRIPOS>BOND
     1    50    51    1
     2    10     8   ar
     3    10    11   ar
     4     8     6   ar
     5    52    51    1
     6    52    53    2
     7    51    54    1
     8    11     9   ar
     9     6     5    1
    10     6     7   ar
    11     1     2    1
    12    54    55    1
    13    55    56    1
    14     9     7   ar
    15     5     2    1
    16    59    60    1
    17     2     3    1
    18    62    61    2
    19    56    57    1
    20    99    98    1
    21    99   100    2
    22    60    61    1
    23    60    63    1
    24   101    98    1
    25   101   102    1
    26     3     4    2
    27    98    97    1
    28   102   103    1
    29    65    63    1
    30    63    64    1
    31    57    58    1
    32    97    95   am
    33    96    95    2
    34   103   104    1
    35   104   105    1
    36    19    18   ar
    37    95    94    1
    38    12    13    1
    39    16    17    1
    40    16    13    1
    41    20    18   ar
    42    18    17    1
    43    13    14    1
    44    94    93    1
    45    93    84   am
    46    14    15    2
    47   111   112    1
    48   111   110    1
    49   114   112   ar
    50    91    90    1
    51   112   113   ar
    52    87    86    1
    53    87    88    1
    54    86    83    1
    55    84    83    1
    56    84    85    2
    57   110   107    1
    58    34    33   ar
    59    34    32   ar
    60    92    90    1
    61    90    89    2
    62    33    31   ar
    63    83    82    1
    64   106   107    1
    65    32    30   ar
    66    89    88    1
    67   107   108    1
    68    31    28   ar
    69    30    28   ar
    70    30    29   ar
    71    28    26   ar
    72   123   121   ar
    73    29    27   ar
    74   122   121   ar
    75   108   109    2
    76   121   120    1
    77    26    27   ar
    78    26    25    1
    79    21    22    1
    80   132   130   ar
    81   168   166   ar
    82    25    22    1
    83    22    23    1
    84   130   131   ar
    85   130   129    1
    86   120   119    1
    87   119   116    1
    88    80    79    2
    89   166   165    1
    90   166   167   ar
    91   129   128    1
    92    23    24    2
    93   142   140   ar
    94   142   141   ar
    95    79    81   am
    96    79    78    1
    97   165   164    2
    98   115   116    1
    99   140   138   ar
   100   116   117    1
   101   141   139   ar
   102   128   125    1
   103    40    39    1
   104   124   117   am
   105   124   125    1
   106    78    75    1
   107   138   139   ar
   108   138   137    1
   109   117   118    2
   110   164   161    1
   111   125   126    1
   112    73    71    1
   113    35    36    1
   114   137   134    1
   115   161   162    1
   116   161   160    1
   117   163   162    2
   118   155   154    2
   119    39    41    1
   120    39    36    1
   121    76    75    1
   122    76    77    2
   123    75    74    1
   124    71    70    1
   125    36    37    1
   126   126   127    2
   127    74    68   am
   128    49    47   ar
   129   154   160   am
   130   154   153    1
   131   146   145    2
   132    47    48   ar
   133    47    46    1
   134   134   133    1
   135   134   135    1
   136    42    37   am
   137    42    43    1
   138    46    43    1
   139    66    67    1
   140    37    38    2
   141   156   153    1
   142   156   157    1
   143   135   136    2
   144   135   143   am
   145    70    67    1
   146    70    72    1
   147    68    67    1
   148    68    69    2
   149   145   152   am
   150   145   144    1
   151   153   152    1
   152    43    44    1
   153   143   144    1
   154   157   158    2
   155   157   159   am
   156   144   147    1
   157    44    45    2
   158   147   148    1
   159   148   149    1
   160   149   150    1
   161   150   151    1
