@<TRIPOS>MOLECULE
tmp/5loqB00.pdb
 251 239 0 0 0
SMALL
GASTEIGER

@<TRIPOS>ATOM
      1  N        -26.7990   36.7940  122.8590 N.3     2  THR2       -0.1218
      2  CA       -27.4180   37.3000  121.6360 C.3     2  THR2        0.1862
      3  C        -28.9160   36.9960  121.6260 C.2     2  THR2        0.2287
      4  O        -29.3690   36.0170  122.2280 O.2     2  THR2       -0.2866
      5  CB       -26.7880   36.6800  120.3620 C.3     2  THR2        0.1770
      6  OG1      -27.3200   35.3620  120.1520 O.3     2  THR2       -0.2211
      7  CG2      -25.2500   36.6030  120.4710 C.3     2  THR2        0.0375
      8  N        -28.9300   37.8230  114.1360 N.3   104  GLU104     -0.1231
      9  CA       -28.3110   37.9190  115.4430 C.3   104  GLU104      0.1699
     10  C        -28.2980   39.3680  115.9020 C.2   104  GLU104      0.2592
     11  O        -28.1040   40.2830  115.1020 O.2   104  GLU104     -0.2718
     12  CB       -26.8900   37.3570  115.3730 C.3   104  GLU104      0.0402
     13  CG       -26.2330   37.1540  116.7000 C.3   104  GLU104      0.1161
     14  CD       -24.8340   36.5860  116.5480 C.2   104  GLU104      0.3649
     15  OE1      -23.8750   37.3710  116.3630 O.co2 104  GLU104     -0.2457
     16  OE2      -24.7100   35.3470  116.5930 O.co2 104  GLU104     -0.2457
     17  N        -28.5060   39.5730  117.1970 N.am  105  LEU105     -0.1966
     18  CA       -28.5160   40.9200  117.7640 C.3   105  LEU105      0.1728
     19  C        -28.0040   40.8000  119.1950 C.2   105  LEU105      0.2616
     20  O        -28.7350   40.3380  120.0730 O.2   105  LEU105     -0.2715
     21  CB       -29.9170   41.5130  117.7040 C.3   105  LEU105      0.0311
     22  CG       -30.1720   42.8710  118.3570 C.3   105  LEU105      0.0022
     23  CD1      -29.8060   44.0010  117.4260 C.3   105  LEU105      0.0001
     24  CD2      -31.6280   42.9700  118.7380 C.3   105  LEU105      0.0001
     25  N        -26.7540   41.1940  119.4170 N.am  106  SER106     -0.1950
     26  CA       -26.1830   41.1570  120.7650 C.3   106  SER106      0.1924
     27  C        -26.1860   42.5310  121.4210 C.2   106  SER106      0.2314
     28  O        -25.6670   42.6900  122.5200 O.2   106  SER106     -0.2863
     29  CB       -24.7530   40.6000  120.7340 C.3   106  SER106      0.2116
     30  OG       -23.9590   41.2320  119.7440 O.3   106  SER106     -0.2180
     31  N        -35.0680   44.4880  113.5570 N.3   115  ARG115     -0.1245
     32  CA       -33.7270   43.9500  113.3400 C.3   115  ARG115      0.1563
     33  C        -33.7600   42.4260  113.2100 C.2   115  ARG115      0.2260
     34  O        -33.1540   41.8680  112.2900 O.2   115  ARG115     -0.2867
     35  CB       -32.7920   44.3880  114.4870 C.3   115  ARG115      0.0307
     36  CG       -32.1130   45.7770  114.3230 C.3   115  ARG115      0.0489
     37  CD       -30.8340   45.7470  113.4600 C.3   115  ARG115      0.2205
     38  NE       -29.6830   45.1090  114.1140 N.pl3 115  ARG115     -0.0865
     39  CZ       -28.5710   44.7180  113.4850 C.cat 115  ARG115      0.5346
     40  NH1      -27.5810   44.1480  114.1650 N.pl3 115  ARG115      0.1354
     41  NH2      -28.4450   44.8820  112.1720 N.pl3 115  ARG115      0.1354
     42  N        -20.4790   37.6830  102.4990 N.3   129  TYR129     -0.1241
     43  CA       -19.2650   36.9500  102.8650 C.3   129  TYR129      0.1605
     44  C        -19.4390   36.3840  104.2760 C.2   129  TYR129      0.2264
     45  O        -20.0380   37.0460  105.1200 O.2   129  TYR129     -0.2867
     46  CB       -18.0280   37.8710  102.8320 C.3   129  TYR129      0.0534
     47  CG       -18.0800   39.0930  103.6980 C.ar  129  TYR129     -0.0201
     48  CD1      -18.6850   40.2670  103.2480 C.ar  129  TYR129     -0.0009
     49  CD2      -17.4760   39.1040  104.9620 C.ar  129  TYR129     -0.0009
     50  CE1      -18.7220   41.3880  104.0290 C.ar  129  TYR129      0.0417
     51  CE2      -17.5150   40.2210  105.7540 C.ar  129  TYR129      0.0417
     52  CZ       -18.1330   41.3620  105.2710 C.ar  129  TYR129      0.1957
     53  OH       -18.1850   42.4940  106.0160 O.3   129  TYR129     -0.2866
     54  N        -17.4810   35.1850  107.9580 N.3   131  MET131     -0.1245
     55  CA       -16.2450   35.4750  108.6630 C.3   131  MET131      0.1570
     56  C        -16.2610   34.8170  110.0210 C.2   131  MET131      0.2261
     57  O        -17.3200   34.4780  110.5570 O.2   131  MET131     -0.2867
     58  CB       -16.0210   36.9700  108.8180 C.3   131  MET131      0.0387
     59  CG       -17.1680   37.6740  109.4640 C.3   131  MET131      0.0595
     60  SD       -16.7230   39.3430  110.0170 S.3   131  MET131     -0.1393
     61  CE       -15.4870   38.9470  111.2700 C.3   131  MET131      0.0692
     62  N        -13.8030   35.0980  113.9720 N.3   133  LYS133     -0.1245
     63  CA       -12.7940   35.8220  114.7270 C.3   133  LYS133      0.1561
     64  C        -11.6570   34.8820  115.0760 C.2   133  LYS133      0.2260
     65  O        -11.8870   33.7450  115.4990 O.2   133  LYS133     -0.2867
     66  CB       -13.3580   36.4290  116.0080 C.3   133  LYS133      0.0271
     67  CG       -14.5030   37.4050  115.7770 C.3   133  LYS133      0.0035
     68  CD       -14.0120   38.8160  115.5320 C.3   133  LYS133      0.0206
     69  CE       -15.1980   39.7990  115.6120 C.3   133  LYS133      0.1093
     70  NZ       -14.7460   41.1950  115.2760 N.3   133  LYS133     -0.1314
     71  N         -9.3070   36.4100  119.8400 N.3   141  TRP141     -0.1241
     72  CA       -10.5090   37.1500  120.2320 C.3   141  TRP141      0.1605
     73  C        -11.1850   36.5350  121.4400 C.2   141  TRP141      0.2264
     74  O        -11.6240   37.2490  122.3530 O.2   141  TRP141     -0.2867
     75  CB       -11.4920   37.1600  119.0630 C.3   141  TRP141      0.0550
     76  CG       -12.8010   37.7730  119.3840 C.ar  141  TRP141      0.0003
     77  CD1      -13.9530   37.1310  119.7620 C.ar  141  TRP141      0.0946
     78  CD2      -13.1030   39.1500  119.3140 C.ar  141  TRP141      0.0152
     79  NE1      -14.9580   38.0500  119.9340 N.ar  141  TRP141     -0.2442
     80  CE2      -14.4570   39.3000  119.6680 C.ar  141  TRP141      0.0810
     81  CE3      -12.3560   40.2870  118.9770 C.ar  141  TRP141      0.0012
     82  CZ2      -15.0810   40.5420  119.7010 C.ar  141  TRP141      0.0191
     83  CZ3      -12.9750   41.5170  119.0150 C.ar  141  TRP141      0.0001
     84  CH2      -14.3270   41.6340  119.3790 C.ar  141  TRP141      0.0015
     85  N        -15.7050   46.2020  119.7450 N.3   153  ILE153     -0.1245
     86  CA       -16.9780   46.1880  119.0310 C.3   153  ILE153      0.1561
     87  C        -17.5910   47.5790  118.9810 C.2   153  ILE153      0.2260
     88  O        -18.2080   47.9580  117.9750 O.2   153  ILE153     -0.2867
     89  CB       -17.9440   45.1720  119.6700 C.3   153  ILE153      0.0252
     90  CG1      -17.4640   43.7460  119.4150 C.3   153  ILE153      0.0019
     91  CG2      -19.3760   45.3400  119.1250 C.3   153  ILE153      0.0019
     92  CD1      -17.4390   43.3250  117.9130 C.3   153  ILE153      0.0001
     93  N        -16.0510   49.5570  116.0070 N.3   156  HIS156     -0.1226
     94  CA       -16.5470   49.0640  114.7400 C.3   156  HIS156      0.1752
     95  C        -17.9630   49.5690  114.4590 C.2   156  HIS156      0.2596
     96  O        -18.3070   49.8440  113.3070 O.2   156  HIS156     -0.2718
     97  CB       -16.4540   47.5390  114.7760 C.3   156  HIS156      0.0759
     98  CG       -17.2930   46.8480  113.7610 C.ar  156  HIS156      0.0818
     99  ND1      -16.7510   46.2380  112.6470 N.ar  156  HIS156     -0.2268
    100  CD2      -18.6300   46.6370  113.7000 C.ar  156  HIS156      0.1154
    101  CE1      -17.7210   45.6940  111.9340 C.ar  156  HIS156      0.1986
    102  NE2      -18.8710   45.9220  112.5510 N.ar  156  HIS156     -0.2212
    103  N        -18.7810   49.7350  115.4990 N.am  157  GLY157     -0.1957
    104  CA       -20.1240   50.2710  115.3190 C.3   157  GLY157      0.1869
    105  C        -20.1700   51.7220  114.8700 C.2   157  GLY157      0.2309
    106  O        -21.0850   52.1210  114.1460 O.2   157  GLY157     -0.2863
    107  N        -19.9280   51.7360  111.0890 N.3   160  GLY160     -0.1210
    108  CA       -21.2110   51.4070  110.5110 C.3   160  GLY160      0.1956
    109  C        -22.1820   52.5810  110.5180 C.2   160  GLY160      0.2611
    110  O        -22.8780   52.8270  109.5250 O.2   160  GLY160     -0.2717
    111  N        -22.2330   53.3350  111.6310 N.am  161  ARG161     -0.1979
    112  CA       -23.1590   54.4660  111.7120 C.3   161  ARG161      0.1597
    113  C        -22.8880   55.4530  110.5960 C.2   161  ARG161      0.2287
    114  O        -23.8210   56.0470  110.0450 O.2   161  ARG161     -0.2864
    115  CB       -23.0490   55.1860  113.0570 C.3   161  ARG161      0.0334
    116  CG       -23.7950   54.5200  114.1700 C.3   161  ARG161      0.0492
    117  CD       -23.4410   55.1090  115.5170 C.3   161  ARG161      0.2205
    118  NE       -24.0140   56.4280  115.7350 N.pl3 161  ARG161     -0.0865
    119  CZ       -25.2380   56.6530  116.1790 C.cat 161  ARG161      0.5346
    120  NH1      -25.6610   57.8880  116.3530 N.pl3 161  ARG161      0.1354
    121  NH2      -26.0540   55.6460  116.4250 N.pl3 161  ARG161      0.1354
    122  N        -22.1040   54.8750  107.6470 N.3   163  TYR163     -0.1227
    123  CA       -22.6460   54.4090  106.3780 C.3   163  TYR163      0.1736
    124  C        -24.1780   54.3010  106.4020 C.2   163  TYR163      0.2595
    125  O        -24.7660   53.6740  105.5130 O.2   163  TYR163     -0.2718
    126  CB       -21.9790   53.0870  105.9860 C.3   163  TYR163      0.0548
    127  CG       -20.5360   53.2980  105.5400 C.ar  163  TYR163     -0.0200
    128  CD1      -19.5050   53.4160  106.4680 C.ar  163  TYR163     -0.0009
    129  CD2      -20.2120   53.4050  104.1700 C.ar  163  TYR163     -0.0009
    130  CE1      -18.1780   53.6380  106.0450 C.ar  163  TYR163      0.0417
    131  CE2      -18.9390   53.6500  103.7590 C.ar  163  TYR163      0.0417
    132  CZ       -17.9160   53.7660  104.6900 C.ar  163  TYR163      0.1957
    133  OH       -16.6320   53.9710  104.2270 O.3   163  TYR163     -0.2866
    134  N        -24.8450   54.9550  107.3580 N.am  164  ALA164     -0.1980
    135  CA       -26.3060   54.9630  107.3340 C.3   164  ALA164      0.1597
    136  C        -26.7800   55.6130  106.0480 C.2   164  ALA164      0.2287
    137  O        -26.3110   56.6890  105.6700 O.2   164  ALA164     -0.2864
    138  CB       -26.8790   55.7180  108.5360 C.3   164  ALA164      0.0319
    139  N        -25.2940   51.8660  103.1700 N.3   167  VAL167     -0.1231
    140  CA       -25.2040   50.4140  103.2840 C.3   167  VAL167      0.1692
    141  C        -26.1360   49.9650  104.3940 C.2   167  VAL167      0.2592
    142  O        -26.1910   50.6000  105.4500 O.2   167  VAL167     -0.2718
    143  CB       -23.7740   49.9570  103.6170 C.3   167  VAL167      0.0266
    144  CG1      -23.7050   48.3990  103.6720 C.3   167  VAL167      0.0020
    145  CG2      -22.7750   50.5240  102.6400 C.3   167  VAL167      0.0020
    146  N        -26.8880   48.8900  104.1400 N.am  168  GLN168     -0.1966
    147  CA       -27.6900   48.2060  105.1490 C.3   168  GLN168      0.1733
    148  C        -27.1380   46.8000  105.3160 C.2   168  GLN168      0.2616
    149  O        -26.8270   46.1310  104.3160 O.2   168  GLN168     -0.2715
    150  CB       -29.1740   48.1350  104.7500 C.3   168  GLN168      0.0408
    151  CG       -29.7460   49.4570  104.3320 C.3   168  GLN168      0.0908
    152  CD       -31.2430   49.3890  104.0720 C.2   168  GLN168      0.2608
    153  OE1      -31.9640   48.6130  104.7100 O.2   168  GLN168     -0.2717
    154  NE2      -31.7190   50.2040  103.1270 N.am  168  GLN168     -0.0878
    155  N        -26.9850   46.3710  106.5730 N.am  169  GLN169     -0.1977
    156  CA       -26.3130   45.1250  106.9130 C.3   169  GLN169      0.1601
    157  C        -27.3020   44.1940  107.6000 C.2   169  GLN169      0.2287
    158  O        -28.1240   44.6400  108.4090 O.2   169  GLN169     -0.2864
    159  CB       -25.0900   45.3910  107.8280 C.3   169  GLN169      0.0394
    160  CG       -25.3170   45.3790  109.3520 C.3   169  GLN169      0.0908
    161  CD       -26.0240   46.6320  109.8980 C.2   169  GLN169      0.2608
    162  OE1      -26.5430   47.4590  109.1380 O.2   169  GLN169     -0.2717
    163  NE2      -26.0320   46.7760  111.2300 N.am  169  GLN169     -0.0878
    164  N        -26.5990   40.8000  109.8560 N.3   171  ILE171     -0.1245
    165  CA       -25.5960   39.9150  110.4530 C.3   171  ILE171      0.1561
    166  C        -26.2730   38.6350  110.9130 C.2   171  ILE171      0.2260
    167  O        -27.1160   38.6590  111.8090 O.2   171  ILE171     -0.2867
    168  CB       -24.8870   40.5810  111.6420 C.3   171  ILE171      0.0252
    169  CG1      -24.4200   41.9790  111.2640 C.3   171  ILE171      0.0019
    170  CG2      -23.6960   39.6970  112.0970 C.3   171  ILE171      0.0019
    171  CD1      -23.6180   42.0240  110.0120 C.3   171  ILE171      0.0001
    172  N        -20.0440   34.0060  111.4280 N.3   182  TRP182     -0.1241
    173  CA       -21.0710   34.9480  111.0030 C.3   182  TRP182      0.1605
    174  C        -21.1830   34.9200  109.4870 C.2   182  TRP182      0.2264
    175  O        -20.1870   34.7240  108.7790 O.2   182  TRP182     -0.2867
    176  CB       -20.7970   36.4020  111.4380 C.3   182  TRP182      0.0550
    177  CG       -20.8650   36.5620  112.9040 C.ar  182  TRP182      0.0003
    178  CD1      -21.9750   36.8100  113.6870 C.ar  182  TRP182      0.0946
    179  CD2      -19.7680   36.4440  113.7900 C.ar  182  TRP182      0.0152
    180  NE1      -21.6150   36.8420  115.0050 N.ar  182  TRP182     -0.2442
    181  CE2      -20.2590   36.6200  115.0940 C.ar  182  TRP182      0.0810
    182  CE3      -18.4110   36.2010  113.6020 C.ar  182  TRP182      0.0012
    183  CZ2      -19.4310   36.5650  116.2140 C.ar  182  TRP182      0.0191
    184  CZ3      -17.5840   36.1560  114.7200 C.ar  182  TRP182      0.0001
    185  CH2      -18.0990   36.3300  116.0080 C.ar  182  TRP182      0.0015
    186  N        -22.3730   37.6520  106.7180 N.3   184  VAL184     -0.1245
    187  CA       -22.5890   39.0990  106.5900 C.3   184  VAL184      0.1561
    188  C        -23.2210   39.3610  105.2340 C.2   184  VAL184      0.2260
    189  O        -22.6150   39.0550  104.2050 O.2   184  VAL184     -0.2867
    190  CB       -21.2590   39.8600  106.7200 C.3   184  VAL184      0.0252
    191  CG1      -21.4490   41.3690  106.5390 C.3   184  VAL184      0.0019
    192  CG2      -20.5850   39.5320  108.0840 C.3   184  VAL184      0.0019
    193  N        -24.6620   42.5510  102.9330 N.3   186  LEU186     -0.1245
    194  CA       -24.7820   43.9900  102.7620 C.3   186  LEU186      0.1561
    195  C        -25.5890   44.3110  101.5180 C.2   186  LEU186      0.2260
    196  O        -25.5130   43.5960  100.5150 O.2   186  LEU186     -0.2867
    197  CB       -23.4000   44.6530  102.6370 C.3   186  LEU186      0.0270
    198  CG       -22.3620   44.2130  103.6470 C.3   186  LEU186      0.0019
    199  CD1      -21.0490   44.8670  103.3330 C.3   186  LEU186      0.0001
    200  CD2      -22.8500   44.5880  105.0250 C.3   186  LEU186      0.0001
    201  N        -16.9090   50.4990  102.8720 N.3   197  ILE197     -0.1231
    202  CA       -17.1700   50.1560  104.2730 C.3   197  ILE197      0.1692
    203  C        -16.2880   48.9870  104.7030 C.2   197  ILE197      0.2591
    204  O        -15.7760   48.9670  105.8290 O.2   197  ILE197     -0.2718
    205  CB       -18.6640   49.8650  104.5470 C.3   197  ILE197      0.0266
    206  CG1      -18.9190   49.7820  106.0640 C.3   197  ILE197      0.0019
    207  CG2      -19.1330   48.5390  103.8890 C.3   197  ILE197      0.0020
    208  CD1      -20.4160   49.7400  106.4310 C.3   197  ILE197      0.0001
    209  N        -16.0910   48.0010  103.8250 N.am  198  VAL198     -0.1980
    210  CA       -15.3480   46.8210  104.2320 C.3   198  VAL198      0.1595
    211  C        -13.8620   47.1600  104.3550 C.2   198  VAL198      0.2287
    212  O        -13.1770   46.6420  105.2510 O.2   198  VAL198     -0.2864
    213  CB       -15.6110   45.6440  103.2800 C.3   198  VAL198      0.0276
    214  CG1      -14.7140   44.4600  103.6340 C.3   198  VAL198      0.0022
    215  CG2      -17.1090   45.2190  103.2920 C.3   198  VAL198      0.0022
    216  N        -13.5500   49.2320  107.7100 N.3   201  MET201     -0.1230
    217  CA       -13.5680   48.3320  108.8550 C.3   201  MET201      0.1702
    218  C        -12.2620   47.5580  108.9660 C.2   201  MET201      0.2592
    219  O        -11.8000   47.2930  110.0740 O.2   201  MET201     -0.2718
    220  CB       -14.7430   47.3680  108.7700 C.3   201  MET201      0.0401
    221  CG       -16.0260   47.9920  109.3020 C.3   201  MET201      0.0596
    222  SD       -17.3970   47.0080  108.7450 S.3   201  MET201     -0.1393
    223  CE       -18.6990   48.1420  109.3520 C.3   201  MET201      0.0692
    224  N        -11.6460   47.1920  107.8390 N.am  202  ARG202     -0.1980
    225  CA       -10.4260   46.3860  107.9140 C.3   202  ARG202      0.1597
    226  C         -9.2760   47.1200  108.6020 C.2   202  ARG202      0.2287
    227  O         -8.3620   46.4600  109.1290 O.2   202  ARG202     -0.2864
    228  CB        -9.9700   45.9230  106.5230 C.3   202  ARG202      0.0334
    229  CG        -9.1630   44.6550  106.5800 C.3   202  ARG202      0.0492
    230  CD        -9.1720   43.9000  105.2880 C.3   202  ARG202      0.2205
    231  NE       -10.5070   43.3730  105.0420 N.pl3 202  ARG202     -0.0865
    232  CZ       -10.8290   42.4790  104.1200 C.cat 202  ARG202      0.5346
    233  NH1       -9.9360   41.9660  103.2860 N.pl3 202  ARG202      0.1354
    234  NH2      -12.0920   42.0960  104.0320 N.pl3 202  ARG202      0.1354
    235  N        -11.3580   44.2300  113.2620 N.3   207  SER207     -0.1217
    236  CA       -11.1900   43.4310  112.0490 C.3   207  SER207      0.1889
    237  C         -9.7240   43.2630  111.6680 C.2   207  SER207      0.2288
    238  O         -9.3220   42.1520  111.2740 O.2   207  SER207     -0.2866
    239  CB       -11.9700   44.0520  110.8800 C.3   207  SER207      0.2089
    240  OG       -13.3610   43.8570  111.0670 O.3   207  SER207     -0.2183
    241  N        -11.7590   35.9720  106.8840 N.3   213  PHE213     -0.1241
    242  CA       -12.8210   36.1390  105.8930 C.3   213  PHE213      0.1605
    243  C        -12.9170   34.9300  104.9750 C.2   213  PHE213      0.2264
    244  O        -11.9150   34.2960  104.6490 O.2   213  PHE213     -0.2867
    245  CB       -12.6080   37.3860  105.0300 C.3   213  PHE213      0.0534
    246  CG       -12.5940   38.6560  105.8090 C.ar  213  PHE213     -0.0203
    247  CD1      -13.7890   39.2330  106.2680 C.ar  213  PHE213     -0.0042
    248  CD2      -11.3820   39.2610  106.1200 C.ar  213  PHE213     -0.0042
    249  CE1      -13.7820   40.4200  106.9990 C.ar  213  PHE213     -0.0003
    250  CE2      -11.3630   40.4540  106.8630 C.ar  213  PHE213     -0.0003
    251  CZ       -12.5760   41.0280  107.3150 C.ar  213  PHE213     -0.0000
@<TRIPOS>BOND
     1   196   195    2
     2   195   194    1
     3    42    43    1
     4   197   194    1
     5   197   198    1
     6   145   143    1
     7   194   193    1
     8    46    43    1
     9    46    47    1
    10    43    44    1
    11   201   202    1
    12   154   152   am
    13   139   140    1
    14    48    47   ar
    15    48    50   ar
    16   213   215    1
    17   213   214    1
    18   213   210    1
    19   140   143    1
    20   140   141    1
    21   233   232    1
    22   199   198    1
    23   143   144    1
    24   198   200    1
    25    47    49   ar
    26   131   129   ar
    27   131   132   ar
    28   209   210    1
    29   209   203   am
    30   207   205    1
    31    50    52   ar
    32   234   232    1
    33   152   151    1
    34   152   153    2
    35   232   231    2
    36   146   141   am
    37   146   147    1
    38   129   127   ar
    39   189   188    2
    40   133   132    1
    41   210   211    1
    42   202   205    1
    43   202   203    1
    44    44    45    2
    45   149   148    2
    46   151   150    1
    47   211   212    2
    48   141   142    2
    49   205   206    1
    50   244   243    2
    51   132   130   ar
    52   203   204    2
    53   150   147    1
    54    49    51   ar
    55   243   242    1
    56   245   246    1
    57   245   242    1
    58   231   230    1
    59   147   148    1
    60   188   187    1
    61    52    51   ar
    62    52    53    1
    63   230   229    1
    64   148   155   am
    65   125   124    2
    66   127   126    1
    67   127   128   ar
    68   137   136    2
    69   246   248   ar
    70   246   247   ar
    71   242   241    1
    72   126   123    1
    73   130   128   ar
    74   136   135    1
    75   206   208    1
    76   248   250   ar
    77   247   249   ar
    78   123   124    1
    79   123   122    1
    80   124   134   am
    81   228   229    1
    82   228   225    1
    83   191   190    1
    84   155   156    1
    85   187   186    1
    86   187   190    1
    87   190   192    1
    88   250   251   ar
    89   156   157    1
    90   156   159    1
    91   249   251   ar
    92   135   134    1
    93   135   138    1
    94   157   158    2
    95   216   217    1
    96   159   160    1
    97   224   225    1
    98   224   218   am
    99   225   226    1
   100    54    55    1
   101   226   227    2
   102    55    58    1
   103    55    56    1
   104   222   221    1
   105   222   223    1
   106   220   217    1
   107   220   221    1
   108   175   174    2
   109    58    59    1
   110   217   218    1
   111   218   219    2
   112   162   161    2
   113   160   161    1
   114    59    60    1
   115   174   173    1
   116   110   109    2
   117   164   165    1
   118   161   163   am
   119   171   169    1
   120    60    61    1
   121    56    57    2
   122   114   113    2
   123   165   166    1
   124   165   168    1
   125   108   109    1
   126   108   107    1
   127   109   111   am
   128   113   112    1
   129   239   240    1
   130   239   236    1
   131   166   167    2
   132   173   172    1
   133   173   176    1
   134   169   168    1
   135   238   237    2
   136   176   177    1
   137   111   112    1
   138   168   170    1
   139   237   236    1
   140   112   115    1
   141   101   102   ar
   142   101    99   ar
   143   236   235    1
   144    41    39    1
   145    34    33    2
   146   102   100   ar
   147    99    98   ar
   148   177   178   ar
   149   177   179   ar
   150   115   116    1
   151    33    32    1
   152    96    95    2
   153    32    31    1
   154    32    35    1
   155    37    38    1
   156    37    36    1
   157    39    38    2
   158    39    40    1
   159   182   179   ar
   160   182   184   ar
   161   178   180   ar
   162   100    98   ar
   163    98    97    1
   164   179   181   ar
   165    62    63    1
   166     8     9    1
   167   106   105    2
   168   116   117    1
   169    36    35    1
   170    95    94    1
   171    95   103   am
   172   184   185   ar
   173    63    64    1
   174    63    66    1
   175    94    97    1
   176    94    93    1
   177   105   104    1
   178   180   181   ar
   179    64    65    2
   180   181   183   ar
   181    11    10    2
   182    70    69    1
   183   104   103    1
   184    12     9    1
   185    12    13    1
   186     9    10    1
   187   117   118    1
   188    68    69    1
   189    68    67    1
   190   118   119    2
   191    67    66    1
   192    10    17   am
   193   185   183   ar
   194   119   120    1
   195   119   121    1
   196    15    14   ar
   197    14    16   ar
   198    14    13    1
   199    17    18    1
   200    23    22    1
   201    21    18    1
   202    21    22    1
   203    18    19    1
   204    92    90    1
   205    88    87    2
   206    22    24    1
   207    81    83   ar
   208    81    78   ar
   209    87    86    1
   210    83    84   ar
   211    86    89    1
   212    86    85    1
   213    75    76    1
   214    75    72    1
   215    91    89    1
   216    19    25   am
   217    19    20    2
   218    78    76   ar
   219    78    80   ar
   220    84    82   ar
   221    76    77   ar
   222    90    89    1
   223    25    26    1
   224    80    82   ar
   225    80    79   ar
   226    30    29    1
   227    77    79   ar
   228    71    72    1
   229     6     5    1
   230    72    73    1
   231     5     7    1
   232     5     2    1
   233    29    26    1
   234    26    27    1
   235    27    28    2
   236    73    74    2
   237     3     2    1
   238     3     4    2
   239     2     1    1
