@<TRIPOS>MOLECULE
tmp/5lorA00.pdb
 195 185 0 0 0
SMALL
GASTEIGER

@<TRIPOS>ATOM
      1  N         56.4640   -3.3170  148.7300 N.3    57  TRP57      -0.1227
      2  CA        56.9880   -2.3850  147.7190 C.3    57  TRP57       0.1737
      3  C         57.5780   -3.0640  146.4720 C.2    57  TRP57       0.2595
      4  O         57.9170   -2.3960  145.4840 O.2    57  TRP57      -0.2718
      5  CB        58.0620   -1.4860  148.3420 C.3    57  TRP57       0.0564
      6  CG        59.0450   -2.2150  149.1900 C.ar   57  TRP57       0.0003
      7  CD1       60.2150   -2.7840  148.7880 C.ar   57  TRP57       0.0946
      8  CD2       58.9460   -2.4500  150.6020 C.ar   57  TRP57       0.0152
      9  NE1       60.8560   -3.3600  149.8620 N.ar   57  TRP57      -0.2442
     10  CE2       60.0900   -3.1760  150.9850 C.ar   57  TRP57       0.0810
     11  CE3       57.9980   -2.1210  151.5720 C.ar   57  TRP57       0.0012
     12  CZ2       60.3150   -3.5710  152.2960 C.ar   57  TRP57       0.0191
     13  CZ3       58.2170   -2.5190  152.8700 C.ar   57  TRP57       0.0001
     14  CH2       59.3700   -3.2400  153.2230 C.ar   57  TRP57       0.0015
     15  N         57.7390   -4.3800  146.5370 N.am   58  LEU58      -0.1966
     16  CA        58.1580   -5.1610  145.3900 C.3    58  LEU58       0.1728
     17  C         57.2100   -4.9430  144.2220 C.2    58  LEU58       0.2616
     18  O         56.0030   -4.8630  144.4150 O.2    58  LEU58      -0.2715
     19  CB        58.1970   -6.6450  145.7470 C.3    58  LEU58       0.0311
     20  CG        59.2840   -7.0660  146.7250 C.3    58  LEU58       0.0022
     21  CD1       59.1110   -8.5500  147.0840 C.3    58  LEU58       0.0001
     22  CD2       60.6730   -6.7630  146.1540 C.3    58  LEU58       0.0001
     23  N         57.7600   -4.8560  143.0160 N.am   59  PHE59      -0.1974
     24  CA        56.9480   -4.7330  141.8120 C.3    59  PHE59       0.1639
     25  C         57.3900   -5.7470  140.7590 C.2    59  PHE59       0.2290
     26  O         58.5860   -6.0590  140.6340 O.2    59  PHE59      -0.2864
     27  CB        57.0300   -3.3110  141.2490 C.3    59  PHE59       0.0560
     28  CG        58.4190   -2.8670  140.9440 C.ar   59  PHE59      -0.0200
     29  CD1       59.2220   -2.3410  141.9460 C.ar   59  PHE59      -0.0042
     30  CD2       58.9340   -2.9850  139.6640 C.ar   59  PHE59      -0.0042
     31  CE1       60.5280   -1.9290  141.6720 C.ar   59  PHE59      -0.0003
     32  CE2       60.2400   -2.5760  139.3780 C.ar   59  PHE59      -0.0003
     33  CZ        61.0390   -2.0480  140.3920 C.ar   59  PHE59      -0.0000
     34  N         58.1640   -6.6050  137.0150 N.3    61  ALA61      -0.1245
     35  CA        58.5350   -5.9680  135.7670 C.3    61  ALA61       0.1562
     36  C         59.2020   -6.9870  134.8490 C.2    61  ALA61       0.2260
     37  O         59.8730   -7.9090  135.3260 O.2    61  ALA61      -0.2867
     38  CB        59.4560   -4.8000  136.0150 C.3    61  ALA61       0.0290
     39  N         61.7940   -8.7110  132.1790 N.3    63  LYS63      -0.1245
     40  CA        63.2400   -8.8050  132.1110 C.3    63  LYS63       0.1561
     41  C         63.6570   -9.5690  130.8640 C.2    63  LYS63       0.2260
     42  O         62.8940  -10.3900  130.3650 O.2    63  LYS63      -0.2867
     43  CB        63.7980   -9.5290  133.3480 C.3    63  LYS63       0.0271
     44  CG        63.4700   -8.8890  134.6950 C.3    63  LYS63       0.0035
     45  CD        64.0660   -7.4830  134.8450 C.3    63  LYS63       0.0206
     46  CE        63.4520   -6.7400  136.0430 C.3    63  LYS63       0.1093
     47  NZ        63.8920   -5.3170  136.1070 N.3    63  LYS63      -0.1314
     48  N         60.3710  -10.3160  137.0840 N.3    90  TYR90      -0.1241
     49  CA        60.9330  -10.3420  138.4380 C.3    90  TYR90       0.1605
     50  C         60.1430  -11.3110  139.2900 C.2    90  TYR90       0.2264
     51  O         60.6690  -11.9180  140.2180 O.2    90  TYR90      -0.2867
     52  CB        60.9300   -8.9490  139.0900 C.3    90  TYR90       0.0534
     53  CG        62.0010   -8.8090  140.1680 C.ar   90  TYR90      -0.0201
     54  CD1       63.3470   -8.7320  139.8200 C.ar   90  TYR90      -0.0009
     55  CD2       61.6710   -8.7920  141.5190 C.ar   90  TYR90      -0.0009
     56  CE1       64.3370   -8.6330  140.7790 C.ar   90  TYR90       0.0417
     57  CE2       62.6590   -8.6780  142.5030 C.ar   90  TYR90       0.0417
     58  CZ        63.9970   -8.6030  142.1160 C.ar   90  TYR90       0.1957
     59  OH        65.0070   -8.4920  143.0570 O.3    90  TYR90      -0.2866
     60  N         71.1830   -9.7400  134.4580 N.3   125  GLY125     -0.1210
     61  CA        71.5660   -8.5000  135.0990 C.3   125  GLY125      0.1956
     62  C         72.7860   -7.9210  134.4100 C.2   125  GLY125      0.2611
     63  O         73.4140   -8.5970  133.5820 O.2   125  GLY125     -0.2717
     64  N         73.0980   -6.6660  134.7250 N.am  126  VAL126     -0.1979
     65  CA        74.3610   -6.0530  134.3210 C.3   126  VAL126      0.1595
     66  C         75.0830   -5.4710  135.5490 C.2   126  VAL126      0.2287
     67  O         74.4470   -5.0370  136.5070 O.2   126  VAL126     -0.2864
     68  CB        74.1540   -4.9350  133.2580 C.3   126  VAL126      0.0276
     69  CG1       73.5310   -5.5020  131.9890 C.3   126  VAL126      0.0022
     70  CG2       73.3090   -3.8020  133.8060 C.3   126  VAL126      0.0022
     71  N         74.8730   -2.1290  149.5310 N.3   142  ARG142     -0.1245
     72  CA        73.4410   -2.2840  149.2810 C.3   142  ARG142      0.1563
     73  C         72.5990   -1.9580  150.5240 C.2   142  ARG142      0.2260
     74  O         73.0400   -2.1260  151.6670 O.2   142  ARG142     -0.2867
     75  CB        73.1220   -3.7080  148.7980 C.3   142  ARG142      0.0307
     76  CG        73.6020   -3.9870  147.3710 C.3   142  ARG142      0.0489
     77  CD        73.5430   -5.4750  146.9840 C.3   142  ARG142      0.2205
     78  NE        72.1700   -5.9420  146.8910 N.pl3 142  ARG142     -0.0865
     79  CZ        71.3380   -5.6140  145.9110 C.cat 142  ARG142      0.5346
     80  NH1       71.7370   -4.8160  144.9330 N.pl3 142  ARG142      0.1354
     81  NH2       70.1020   -6.0790  145.9190 N.pl3 142  ARG142      0.1354
     82  N         66.7800   -3.0420  152.4600 N.3   145  GLN145     -0.1231
     83  CA        65.3980   -3.1590  151.9840 C.3   145  GLN145      0.1698
     84  C         65.2910   -3.7900  150.5910 C.2   145  GLN145      0.2592
     85  O         64.2120   -3.8290  150.0040 O.2   145  GLN145     -0.2718
     86  CB        64.7320   -1.7830  151.9680 C.3   145  GLN145      0.0381
     87  CG        64.8940   -0.9920  153.2750 C.3   145  GLN145      0.0905
     88  CD        64.3890   -1.7330  154.5040 C.2   145  GLN145      0.2608
     89  OE1       63.3180   -2.3500  154.4870 O.2   145  GLN145     -0.2717
     90  NE2       65.1590   -1.6670  155.5840 N.am  145  GLN145     -0.0878
     91  N         66.4080   -4.2840  150.0690 N.am  146  VAL146     -0.1966
     92  CA        66.4120   -4.9950  148.7940 C.3   146  VAL146      0.1727
     93  C         65.8630   -6.4230  148.9440 C.2   146  VAL146      0.2616
     94  O         65.8170   -6.9670  150.0510 O.2   146  VAL146     -0.2715
     95  CB        67.8390   -5.0500  148.1950 C.3   146  VAL146      0.0290
     96  CG1       68.2960   -3.6490  147.8020 C.3   146  VAL146      0.0023
     97  CG2       68.8290   -5.6880  149.1860 C.3   146  VAL146      0.0023
     98  N         65.4730   -7.0270  147.8210 N.am  147  ALA147     -0.1963
     99  CA        64.9310   -8.3910  147.8040 C.3   147  ALA147      0.1728
    100  C         66.0140   -9.4680  147.9180 C.2   147  ALA147      0.2616
    101  O         65.7130  -10.6250  148.2270 O.2   147  ALA147     -0.2715
    102  CB        64.1070   -8.6160  146.5270 C.3   147  ALA147      0.0334
    103  N         67.2690   -9.1070  147.6610 N.am  148  GLU148     -0.1963
    104  CA        68.3520  -10.0680  147.8240 C.3   148  GLU148      0.1733
    105  C         69.6820   -9.3950  148.1570 C.2   148  GLU148      0.2616
    106  O         69.8840   -8.2140  147.8690 O.2   148  GLU148     -0.2715
    107  CB        68.4770  -10.9230  146.5610 C.3   148  GLU148      0.0429
    108  CG        69.2820  -10.3020  145.4410 C.3   148  GLU148      0.1163
    109  CD        69.2640  -11.1620  144.1900 C.2   148  GLU148      0.3649
    110  OE1       70.2690  -11.8490  143.9110 O.co2 148  GLU148     -0.2457
    111  OE2       68.2350  -11.1590  143.4900 O.co2 148  GLU148     -0.2457
    112  N         70.5760  -10.1670  148.7720 N.am  149  ALA149     -0.1977
    113  CA        71.9000   -9.6930  149.1850 C.3   149  ALA149      0.1597
    114  C         71.8370   -8.3570  149.9410 C.2   149  ALA149      0.2287
    115  O         72.5850   -7.4180  149.6320 O.2   149  ALA149     -0.2864
    116  CB        72.8230   -9.5760  147.9530 C.3   149  ALA149      0.0319
    117  N         78.5330   -4.1000  146.7350 N.3   154  ASP154     -0.1225
    118  CA        78.2190   -4.4520  145.3610 C.3   154  ASP154      0.1805
    119  C         78.9500   -3.4850  144.4270 C.2   154  ASP154      0.2597
    120  O         79.4820   -2.4580  144.8830 O.2   154  ASP154     -0.2718
    121  CB        76.6920   -4.4080  145.1560 C.3   154  ASP154      0.1424
    122  CG        76.2250   -5.1870  143.9380 C.2   154  ASP154      0.3668
    123  OD1       77.0460   -5.8980  143.3180 O.co2 154  ASP154     -0.2456
    124  OD2       75.0140   -5.0990  143.6060 O.co2 154  ASP154     -0.2456
    125  N         79.0190   -3.8240  143.1370 N.am  155  VAL155     -0.1980
    126  CA        79.4940   -2.8800  142.1240 C.3   155  VAL155      0.1595
    127  C         78.2920   -2.2000  141.5380 C.2   155  VAL155      0.2287
    128  O         77.1700   -2.6320  141.7720 O.2   155  VAL155     -0.2864
    129  CB        80.3270   -3.5590  141.0030 C.3   155  VAL155      0.0276
    130  CG1       81.5930   -4.1110  141.5850 C.3   155  VAL155      0.0022
    131  CG2       79.5390   -4.6590  140.2630 C.3   155  VAL155      0.0022
    132  N         75.3360   -1.5890  139.1830 N.3   157  GLY157     -0.1210
    133  CA        74.6330   -2.4780  138.2760 C.3   157  GLY157      0.1956
    134  C         73.1200   -2.3680  138.3790 C.2   157  GLY157      0.2612
    135  O         72.5980   -1.6600  139.2300 O.2   157  GLY157     -0.2717
    136  N         72.4150   -3.0630  137.4950 N.am  158  GLY158     -0.1942
    137  CA        70.9680   -3.1340  137.5510 C.3   158  GLY158      0.2014
    138  C         70.4160   -4.0530  136.4720 C.2   158  GLY158      0.2638
    139  O         71.1690   -4.7750  135.8270 O.2   158  GLY158     -0.2714
    140  N         69.1030   -4.0200  136.2780 N.am  159  HIS159     -0.1973
    141  CA        68.4410   -4.8270  135.2560 C.3   159  HIS159      0.1656
    142  C         68.1270   -3.9770  134.0130 C.2   159  HIS159      0.2291
    143  O         67.4620   -2.9430  134.1120 O.2   159  HIS159     -0.2864
    144  CB        67.1500   -5.4440  135.8060 C.3   159  HIS159      0.0771
    145  CG        67.3470   -6.2540  137.0520 C.ar  159  HIS159      0.0820
    146  ND1       67.5060   -7.6240  137.0310 N.ar  159  HIS159     -0.2267
    147  CD2       67.4010   -5.8860  138.3560 C.ar  159  HIS159      0.1154
    148  CE1       67.6500   -8.0650  138.2700 C.ar  159  HIS159      0.1986
    149  NE2       67.5950   -7.0300  139.0910 N.ar  159  HIS159     -0.2212
    150  N         65.9320   -3.0040  130.8560 N.3   161  GLU161     -0.1245
    151  CA        64.4720   -2.9940  130.7680 C.3   161  GLU161      0.1567
    152  C         63.9770   -3.1810  129.3290 C.2   161  GLU161      0.2260
    153  O         64.1330   -2.2840  128.5020 O.2   161  GLU161     -0.2867
    154  CB        63.9200   -1.6810  131.3330 C.3   161  GLU161      0.0388
    155  CG        64.1110   -1.5020  132.8460 C.3   161  GLU161      0.1160
    156  CD        63.2830   -2.4740  133.6810 C.2   161  GLU161      0.3649
    157  OE1       62.3870   -3.1450  133.1200 O.co2 161  GLU161     -0.2457
    158  OE2       63.5310   -2.5650  134.9050 O.co2 161  GLU161     -0.2457
    159  N         75.6270  -16.5340  139.3510 N.3   215  ASN215     -0.1240
    160  CA        75.5080  -16.3850  140.7900 C.3   215  ASN215      0.1653
    161  C         74.9050  -17.6880  141.3180 C.2   215  ASN215      0.2266
    162  O         73.7220  -17.9610  141.1010 O.2   215  ASN215     -0.2867
    163  CB        74.6490  -15.1560  141.1240 C.3   215  ASN215      0.1155
    164  CG        74.4240  -14.9670  142.6110 C.2   215  ASN215      0.2627
    165  OD1       74.6440  -15.8760  143.4100 O.2   215  ASN215     -0.2716
    166  ND2       73.9580  -13.7750  142.9880 N.am  215  ASN215     -0.0877
    167  N         71.8500  -17.7850  138.1910 N.3   221  ARG221     -0.1245
    168  CA        71.4420  -16.6020  137.4500 C.3   221  ARG221      0.1563
    169  C         72.6670  -15.8490  136.9740 C.2   221  ARG221      0.2260
    170  O         73.6380  -15.7020  137.7140 O.2   221  ARG221     -0.2867
    171  CB        70.5770  -15.6930  138.3010 C.3   221  ARG221      0.0307
    172  CG        70.1550  -14.4330  137.5740 C.3   221  ARG221      0.0489
    173  CD        70.1820  -13.2470  138.4970 C.3   221  ARG221      0.2205
    174  NE        70.1500  -12.0000  137.7610 N.pl3 221  ARG221     -0.0865
    175  CZ        70.0000  -10.8130  138.3250 C.cat 221  ARG221      0.5346
    176  NH1       69.8670  -10.7220  139.6370 N.pl3 221  ARG221      0.1354
    177  NH2       69.9860   -9.7240  137.5700 N.pl3 221  ARG221      0.1354
    178  N         74.8920  -12.6490  135.0570 N.3   223  SER223     -0.1217
    179  CA        75.0140  -11.2080  134.8700 C.3   223  SER223      0.1889
    180  C         76.1370  -10.9040  133.9030 C.2   223  SER223      0.2288
    181  O         77.1970  -11.5530  133.9090 O.2   223  SER223     -0.2866
    182  CB        75.2700  -10.4810  136.1960 C.3   223  SER223      0.2089
    183  OG        74.2200  -10.6930  137.1320 O.3   223  SER223     -0.2183
    184  N         78.8190   -9.2100  147.6960 N.3   275  CYS275     -0.1235
    185  CA        77.8010  -10.1090  147.1890 C.3   275  CYS275      0.1677
    186  C         78.3770  -10.8940  146.0130 C.2   275  CYS275      0.2270
    187  O         79.4160  -10.5090  145.4380 O.2   275  CYS275     -0.2867
    188  CB        76.5340   -9.3510  146.7780 C.3   275  CYS275      0.0956
    189  SG        76.7300   -8.1930  145.3990 S.3   275  CYS275     -0.0801
    190  N         77.4450  -11.2200  142.8740 N.3   277  SER277     -0.1217
    191  CA        77.5340  -10.5800  141.5710 C.3   277  SER277      0.1889
    192  C         78.7590   -9.6590  141.5120 C.2   277  SER277      0.2288
    193  O         79.3980   -9.5430  140.4760 O.2   277  SER277     -0.2866
    194  CB        76.2510   -9.8110  141.2510 C.3   277  SER277      0.2089
    195  OG        76.2570   -8.5250  141.8480 O.3   277  SER277     -0.2183
@<TRIPOS>BOND
     1   153   152    2
     2   152   151    1
     3    42    41    2
     4   151   150    1
     5   151   154    1
     6    41    40    1
     7   154   155    1
     8    69    68    1
     9    40    39    1
    10    40    43    1
    11   155   156    1
    12   157   156   ar
    13    68    70    1
    14    68    65    1
    15    43    44    1
    16    63    62    2
    17   156   158   ar
    18   180   181    2
    19   180   179    1
    20   142   143    2
    21   142   141    1
    22    65    64    1
    23    65    66    1
    24    62    64   am
    25    62    61    1
    26    60    61    1
    27    44    45    1
    28    45    46    1
    29    36    37    2
    30    36    35    1
    31   179   178    1
    32   179   182    1
    33   141   144    1
    34   141   140    1
    35    66    67    2
    36    35    38    1
    37    35    34    1
    38   144   145    1
    39   139   138    2
    40    46    47    1
    41   182   183    1
    42   140   138   am
    43   138   137    1
    44   169   168    1
    45   169   170    2
    46   146   145   ar
    47   146   148   ar
    48   145   147   ar
    49    48    49    1
    50   168   167    1
    51   168   171    1
    52   136   137    1
    53   136   134   am
    54   177   175    1
    55   172   171    1
    56   172   173    1
    57   174   175    2
    58   174   173    1
    59   148   149   ar
    60   133   134    1
    61   133   132    1
    62   175   176    1
    63   147   149   ar
    64   134   135    2
    65    49    52    1
    66    49    50    1
    67    52    53    1
    68    50    51    2
    69   159   160    1
    70    32    30   ar
    71    32    33   ar
    72    30    28   ar
    73    54    53   ar
    74    54    56   ar
    75    53    55   ar
    76   131   129    1
    77    33    31   ar
    78   193   192    2
    79    26    25    2
    80    25    24    1
    81    56    58   ar
    82   160   163    1
    83   160   161    1
    84    28    27    1
    85    28    29   ar
    86   129   130    1
    87   129   126    1
    88   162   161    2
    89   163   164    1
    90    27    24    1
    91   194   191    1
    92   194   195    1
    93   192   191    1
    94    55    57   ar
    95   127   128    2
    96   127   126    1
    97   191   190    1
    98    31    29   ar
    99    24    23    1
   100    58    57   ar
   101    58    59    1
   102   126   125    1
   103   164   166   am
   104   164   165    2
   105    23    17   am
   106   125   119   am
   107   123   122   ar
   108   111   109   ar
   109   124   122   ar
   110   110   109   ar
   111   122   121    1
   112   109   108    1
   113    17    18    2
   114    17    16    1
   115   119   120    2
   116   119   118    1
   117    80    79    1
   118   121   118    1
   119   118   117    1
   120    16    19    1
   121    16    15    1
   122   189   188    1
   123   187   186    2
   124   108   107    1
   125     4     3    2
   126    19    20    1
   127    79    81    1
   128    79    78    2
   129   186   185    1
   130    22    20    1
   131     3    15   am
   132     3     2    1
   133   102    99    1
   134   107   104    1
   135    20    21    1
   136   188   185    1
   137    78    77    1
   138    77    76    1
   139   185   184    1
   140    76    75    1
   141   103   104    1
   142   103   100   am
   143     2     5    1
   144     2     1    1
   145    96    95    1
   146    99    98    1
   147    99   100    1
   148    98    93   am
   149   104   105    1
   150   106   105    2
   151   100   101    2
   152   116   113    1
   153   105   112   am
   154    95    92    1
   155    95    97    1
   156     5     6    1
   157   112   113    1
   158     7     6   ar
   159     7     9   ar
   160    92    93    1
   161    92    91    1
   162    75    72    1
   163    93    94    2
   164   113   114    1
   165     6     8   ar
   166    72    71    1
   167    72    73    1
   168   115   114    2
   169     9    10   ar
   170    85    84    2
   171    91    84   am
   172    73    74    2
   173    84    83    1
   174     8    10   ar
   175     8    11   ar
   176    10    12   ar
   177    11    13   ar
   178    86    83    1
   179    86    87    1
   180    83    82    1
   181    12    14   ar
   182    13    14   ar
   183    87    88    1
   184    89    88    2
   185    88    90   am
