@<TRIPOS>MOLECULE
tmp/5lovC01.pdb
 94 88 0 0 0
SMALL
GASTEIGER

@<TRIPOS>ATOM
      1  N          7.8680   47.6660    7.6820 N.3   248  LEU248     -0.1245
      2  CA         7.6550   46.3040    8.1530 C.3   248  LEU248      0.1561
      3  C          8.2630   45.3000    7.1860 C.2   248  LEU248      0.2260
      4  O          7.7820   44.1800    7.0340 O.2   248  LEU248     -0.2867
      5  CB         6.1650   46.0430    8.3330 C.3   248  LEU248      0.0270
      6  CG         5.4850   47.1300    9.1650 C.3   248  LEU248      0.0019
      7  CD1        3.9860   46.8980    9.2680 C.3   248  LEU248      0.0001
      8  CD2        6.1250   47.1970   10.5440 C.3   248  LEU248      0.0001
      9  N         11.1960   43.4250    7.0260 N.3   250  VAL250     -0.1245
     10  CA        12.3820   42.8790    7.6710 C.3   250  VAL250      0.1561
     11  C         13.2250   42.1080    6.6640 C.2   250  VAL250      0.2260
     12  O         12.7440   41.1700    6.0320 O.2   250  VAL250     -0.2867
     13  CB        12.0210   41.9660    8.8630 C.3   250  VAL250      0.0252
     14  CG1       13.2800   41.3800    9.4900 C.3   250  VAL250      0.0019
     15  CG2       11.2330   42.7430    9.9080 C.3   250  VAL250      0.0019
     16  N         -0.3770   44.8510   11.5250 N.3   325  PRO325     -0.2116
     17  CA         0.3170   44.2730   12.6820 C.3   325  PRO325      0.1372
     18  C         -0.6140   43.6890   13.7560 C.2   325  PRO325      0.2244
     19  O         -0.3550   42.5810   14.2480 O.2   325  PRO325     -0.2868
     20  CB         1.1010   45.4630   13.2290 C.3   325  PRO325      0.0268
     21  CG         1.4010   46.2750   12.0110 C.3   325  PRO325      0.0207
     22  CD         0.1880   46.1580   11.1430 C.3   325  PRO325      0.0892
     23  N         -1.7600   40.3580   12.7120 N.3   328  VAL328     -0.1231
     24  CA        -0.6230   39.4540   12.7800 C.3   328  VAL328      0.1692
     25  C         -0.3490   39.0590   14.2240 C.2   328  VAL328      0.2592
     26  O         -0.2070   37.8730   14.5320 O.2   328  VAL328     -0.2718
     27  CB         0.6430   40.0790   12.1720 C.3   328  VAL328      0.0266
     28  CG1        1.8480   39.1710   12.4140 C.3   328  VAL328      0.0020
     29  CG2        0.4530   40.3340   10.6760 C.3   328  VAL328      0.0020
     30  N         -0.2830   40.0530   15.1090 N.am  329  ASN329     -0.1974
     31  CA        -0.0510   39.7880   16.5260 C.3   329  ASN329      0.1688
     32  C         -1.1050   38.8560   17.1140 C.2   329  ASN329      0.2292
     33  O         -0.7770   37.9400   17.8770 O.2   329  ASN329     -0.2864
     34  CB        -0.0060   41.0950   17.3080 C.3   329  ASN329      0.1181
     35  CG         1.1420   41.9790   16.8760 C.2   329  ASN329      0.2629
     36  OD1        1.9140   41.6210   15.9750 O.2   329  ASN329     -0.2716
     37  ND2        1.2580   43.1440   17.4980 N.am  329  ASN329     -0.0877
     38  N         -0.4830   35.1830   15.6720 N.3   332  ILE332     -0.1231
     39  CA         0.6480   34.5060   16.3080 C.3   332  ILE332      0.1692
     40  C          0.3460   34.1430   17.7640 C.2   332  ILE332      0.2591
     41  O          0.8310   33.1360   18.2720 O.2   332  ILE332     -0.2718
     42  CB         1.9300   35.3600   16.2590 C.3   332  ILE332      0.0266
     43  CG1        2.4400   35.5000   14.8210 C.3   332  ILE332      0.0019
     44  CG2        3.0300   34.7430   17.1370 C.3   332  ILE332      0.0020
     45  CD1        3.5460   36.5410   14.6810 C.3   332  ILE332      0.0001
     46  N         -0.4510   34.9650   18.4370 N.am  333  ALA333     -0.1980
     47  CA        -0.8740   34.6450   19.7930 C.3   333  ALA333      0.1597
     48  C         -1.6350   33.3190   19.8140 C.2   333  ALA333      0.2287
     49  O         -1.4270   32.4870   20.6940 O.2   333  ALA333     -0.2864
     50  CB        -1.7270   35.7580   20.3530 C.3   333  ALA333      0.0319
     51  N          0.7990   30.3590   19.2690 N.3   336  LYS336     -0.1245
     52  CA         1.6390   30.1100   20.4390 C.3   336  LYS336      0.1561
     53  C          0.8650   29.4170   21.5540 C.2   336  LYS336      0.2260
     54  O          1.4500   28.8810   22.4890 O.2   336  LYS336     -0.2867
     55  CB         2.2560   31.4170   20.9480 C.3   336  LYS336      0.0271
     56  CG         3.4670   31.8670   20.1320 C.3   336  LYS336      0.0035
     57  CD         4.0740   33.1460   20.6730 C.3   336  LYS336      0.0206
     58  CE         4.5980   32.9730   22.0950 C.3   336  LYS336      0.1093
     59  NZ         5.1290   34.2500   22.6550 N.3   336  LYS336     -0.1314
     60  N         10.1740   34.3580   16.6800 N.3   348  PHE348     -0.1227
     61  CA         9.2490   34.8100   15.6420 C.3   348  PHE348      0.1736
     62  C          9.7510   36.0820   14.9660 C.2   348  PHE348      0.2595
     63  O         10.0820   37.0550   15.6360 O.2   348  PHE348     -0.2718
     64  CB         7.8560   35.0540   16.2220 C.3   348  PHE348      0.0547
     65  CG         6.9340   33.8630   16.1320 C.ar  348  PHE348     -0.0202
     66  CD1        6.1930   33.6260   14.9790 C.ar  348  PHE348     -0.0042
     67  CD2        6.7900   32.9960   17.2030 C.ar  348  PHE348     -0.0042
     68  CE1        5.3350   32.5410   14.8920 C.ar  348  PHE348     -0.0003
     69  CE2        5.9330   31.9040   17.1230 C.ar  348  PHE348     -0.0003
     70  CZ         5.2050   31.6780   15.9620 C.ar  348  PHE348     -0.0000
     71  N          9.8250   36.0590   13.6380 N.am  349  LYS349     -0.1966
     72  CA        10.1210   37.2490   12.8470 C.3   349  LYS349      0.1728
     73  C          8.9680   37.4910   11.8730 C.2   349  LYS349      0.2616
     74  O          8.3090   36.5510   11.4440 O.2   349  LYS349     -0.2715
     75  CB        11.4400   37.0970   12.0820 C.3   349  LYS349      0.0311
     76  CG        12.6710   36.9380   12.9540 C.3   349  LYS349      0.0038
     77  CD        12.9700   38.2000   13.7650 C.3   349  LYS349      0.0206
     78  CE        13.3440   39.3520   12.8570 C.3   349  LYS349      0.1093
     79  NZ        13.6370   40.6010   13.5990 N.3   349  LYS349     -0.1314
     80  N          8.7250   38.7480   11.5250 N.am  350  VAL350     -0.1977
     81  CA         7.5880   39.0940   10.6830 C.3   350  VAL350      0.1596
     82  C          7.9110   40.2260    9.7120 C.2   350  VAL350      0.2287
     83  O          8.4550   41.2500   10.0940 O.2   350  VAL350     -0.2864
     84  CB         6.3690   39.5110   11.5300 C.3   350  VAL350      0.0276
     85  CG1        5.1740   39.8100   10.6330 C.3   350  VAL350      0.0022
     86  CG2        6.0220   38.4290   12.5400 C.3   350  VAL350      0.0022
     87  N          5.9630   42.5520    6.4680 N.3   352  ILE352     -0.1245
     88  CA         4.7720   42.8320    5.6800 C.3   352  ILE352      0.1561
     89  C          5.1390   43.6940    4.4900 C.2   352  ILE352      0.2260
     90  O          5.6070   44.8190    4.6380 O.2   352  ILE352     -0.2867
     91  CB         3.6770   43.5490    6.4790 C.3   352  ILE352      0.0252
     92  CG1        3.1690   42.6590    7.6120 C.3   352  ILE352      0.0019
     93  CG2        2.5200   43.9240    5.5600 C.3   352  ILE352      0.0019
     94  CD1        2.1660   43.3460    8.5230 C.3   352  ILE352      0.0001
@<TRIPOS>BOND
     1    89    90    2
     2    89    88    1
     3    93    91    1
     4    88    87    1
     5    88    91    1
     6    12    11    2
     7    91    92    1
     8    11    10    1
     9     9    10    1
    10     4     3    2
    11     3     2    1
    12    92    94    1
    13    10    13    1
    14     1     2    1
    15     2     5    1
    16     5     6    1
    17    13    14    1
    18    13    15    1
    19     6     7    1
    20     6     8    1
    21    82    83    2
    22    82    81    1
    23    85    84    1
    24    29    27    1
    25    81    80    1
    26    81    84    1
    27    22    16    1
    28    22    21    1
    29    74    73    2
    30    16    17    1
    31    80    73   am
    32    84    86    1
    33    73    72    1
    34    21    20    1
    35    75    72    1
    36    75    76    1
    37    27    28    1
    38    27    24    1
    39    17    20    1
    40    17    18    1
    41    23    24    1
    42    24    25    1
    43    72    71    1
    44    78    79    1
    45    78    77    1
    46    76    77    1
    47    71    62   am
    48    18    19    2
    49    25    26    2
    50    25    30   am
    51    45    43    1
    52    43    42    1
    53    68    66   ar
    54    68    70   ar
    55    62    63    2
    56    62    61    1
    57    66    65   ar
    58    30    31    1
    59    61    64    1
    60    61    60    1
    61    38    39    1
    62    70    69   ar
    63    36    35    2
    64    65    64    1
    65    65    67   ar
    66    42    39    1
    67    42    44    1
    68    39    40    1
    69    31    32    1
    70    31    34    1
    71    35    34    1
    72    35    37   am
    73    32    33    2
    74    69    67   ar
    75    40    41    2
    76    40    46   am
    77    46    47    1
    78    51    52    1
    79    47    48    1
    80    47    50    1
    81    48    49    2
    82    56    57    1
    83    56    55    1
    84    52    55    1
    85    52    53    1
    86    57    58    1
    87    53    54    2
    88    58    59    1
