@<TRIPOS>MOLECULE
tmp/5lovB02.pdb
 106 102 0 0 0
SMALL
GASTEIGER

@<TRIPOS>ATOM
      1  N         16.6710   49.7880   15.6920 N.3    11  GLN11      -0.1245
      2  CA        15.2460   49.9660   15.4360 C.3    11  GLN11       0.1566
      3  C         14.4910   50.4660   16.6690 C.2    11  GLN11       0.2260
      4  O         13.8980   51.5440   16.6450 O.2    11  GLN11      -0.2867
      5  CB        14.6320   48.6560   14.9480 C.3    11  GLN11       0.0367
      6  CG        13.1160   48.6350   14.9700 C.3    11  GLN11       0.0905
      7  CD        12.5500   47.3570   14.3770 C.2    11  GLN11       0.2608
      8  OE1       13.1500   46.7540   13.4850 O.2    11  GLN11      -0.2717
      9  NE2       11.3940   46.9350   14.8740 N.am   11  GLN11      -0.0878
     10  N         12.7820   54.1540   17.2280 N.3    15  GLN15      -0.1245
     11  CA        11.3290   54.2430   17.2970 C.3    15  GLN15       0.1566
     12  C         10.8900   54.7850   18.6580 C.2    15  GLN15       0.2260
     13  O         10.0570   55.6850   18.7370 O.2    15  GLN15      -0.2867
     14  CB        10.6890   52.8830   17.0050 C.3    15  GLN15       0.0367
     15  CG        10.5660   52.6000   15.5090 C.3    15  GLN15       0.0905
     16  CD         9.9950   51.2250   15.1920 C.2    15  GLN15       0.2608
     17  OE1       10.1370   50.7290   14.0750 O.2    15  GLN15      -0.2717
     18  NE2        9.3470   50.6060   16.1710 N.am   15  GLN15      -0.0878
     19  N          8.2990   35.9010   27.4290 N.3   174  LYS174     -0.1231
     20  CA         6.8720   35.9960   27.1290 C.3   174  LYS174      0.1693
     21  C          6.6510   36.5630   25.7230 C.2   174  LYS174      0.2592
     22  O          5.7010   36.1930   25.0360 O.2   174  LYS174     -0.2718
     23  CB         6.1550   36.8710   28.1660 C.3   174  LYS174      0.0285
     24  CG         4.6300   36.7600   28.1290 C.3   174  LYS174      0.0035
     25  CD         3.9470   38.0820   28.4730 C.3   174  LYS174      0.0206
     26  CE         2.4640   37.8930   28.7460 C.3   174  LYS174      0.1093
     27  NZ         1.8270   37.0120   27.7290 N.3   174  LYS174     -0.1314
     28  N          7.5390   37.4590   25.3050 N.am  175  VAL175     -0.1966
     29  CA         7.4080   38.1440   24.0260 C.3   175  VAL175      0.1727
     30  C          8.4270   37.5990   23.0320 C.2   175  VAL175      0.2617
     31  O          9.6400   37.7350   23.2190 O.2   175  VAL175     -0.2715
     32  CB         7.5910   39.6590   24.1830 C.3   175  VAL175      0.0290
     33  CG1        7.2390   40.3700   22.8880 C.3   175  VAL175      0.0023
     34  CG2        6.7260   40.1700   25.3310 C.3   175  VAL175      0.0023
     35  N          7.9300   36.9670   21.9770 N.am  176  SER176     -0.1936
     36  CA         8.8110   36.2850   21.0460 C.3   176  SER176      0.2055
     37  C          9.3110   37.2340   19.9690 C.2   176  SER176      0.2643
     38  O          8.5350   37.9450   19.3350 O.2   176  SER176     -0.2714
     39  CB         8.1100   35.0730   20.4240 C.3   176  SER176      0.2130
     40  OG         6.9770   35.4580   19.6830 O.3   176  SER176     -0.2179
     41  N         10.6280   37.2430   19.8000 N.am  177  ASP177     -0.1971
     42  CA        11.2980   38.0380   18.7860 C.3   177  ASP177      0.1709
     43  C         12.4210   37.1740   18.1920 C.2   177  ASP177      0.2293
     44  O         12.2140   35.9910   17.9170 O.2   177  ASP177     -0.2864
     45  CB        11.8330   39.3300   19.4010 C.3   177  ASP177      0.1436
     46  CG        12.1750   40.3770   18.3640 C.2   177  ASP177      0.3671
     47  OD1       11.2560   41.0980   17.9100 O.co2 177  ASP177     -0.2456
     48  OD2       13.3690   40.4920   18.0180 O.co2 177  ASP177     -0.2456
     49  N          9.1120   44.5420   27.3120 N.3   204  ASN204     -0.1240
     50  CA         7.8520   44.5410   26.5880 C.3   204  ASN204      0.1653
     51  C          6.8050   43.6370   27.2190 C.2   204  ASN204      0.2266
     52  O          5.6110   43.8110   26.9860 O.2   204  ASN204     -0.2867
     53  CB         8.0990   44.1470   25.1330 C.3   204  ASN204      0.1155
     54  CG         8.7380   45.2700   24.3390 C.2   204  ASN204      0.2627
     55  OD1        8.6830   46.4270   24.7440 O.2   204  ASN204     -0.2716
     56  ND2        9.3370   44.9390   23.2020 N.am  204  ASN204     -0.0877
     57  N          3.3960   45.0920   27.8740 N.3   208  TYR208     -0.1241
     58  CA         2.2910   44.3450   27.2940 C.3   208  TYR208      0.1605
     59  C          1.1860   44.1730   28.3260 C.2   208  TYR208      0.2264
     60  O          0.0180   44.4270   28.0420 O.2   208  TYR208     -0.2867
     61  CB         2.7490   42.9770   26.7760 C.3   208  TYR208      0.0534
     62  CG         1.6280   42.1550   26.1790 C.ar  208  TYR208     -0.0201
     63  CD1        0.7740   41.4110   26.9860 C.ar  208  TYR208     -0.0009
     64  CD2        1.4170   42.1300   24.8070 C.ar  208  TYR208     -0.0009
     65  CE1       -0.2550   40.6660   26.4430 C.ar  208  TYR208      0.0417
     66  CE2        0.3890   41.3850   24.2530 C.ar  208  TYR208      0.0417
     67  CZ        -0.4400   40.6510   25.0730 C.ar  208  TYR208      0.1957
     68  OH        -1.4620   39.9090   24.5200 O.3   208  TYR208     -0.2866
     69  N         -1.9250   44.4010   21.6890 N.3   220  PRO220     -0.2102
     70  CA        -1.0090   45.5450   21.6380 C.3   220  PRO220      0.1504
     71  C         -0.0830   45.5260   20.4270 C.2   220  PRO220      0.2576
     72  O          0.2130   44.4600   19.8810 O.2   220  PRO220     -0.2718
     73  CB        -0.1950   45.3990   22.9310 C.3   220  PRO220      0.0282
     74  CG        -1.0460   44.5500   23.8220 C.3   220  PRO220      0.0208
     75  CD        -1.7410   43.5990   22.9080 C.3   220  PRO220      0.0893
     76  N          0.3680   46.7130   20.0290 N.am  221  THR221     -0.1939
     77  CA         1.3410   46.8790   18.9550 C.3   221  THR221      0.2028
     78  C          2.5250   47.6760   19.4740 C.2   221  THR221      0.2642
     79  O          2.4970   48.1470   20.6160 O.2   221  THR221     -0.2714
     80  CB         0.7370   47.6100   17.7500 C.3   221  THR221      0.1808
     81  OG1        0.4100   48.9580   18.1260 O.3   221  THR221     -0.2208
     82  CG2       -0.5190   46.8900   17.2630 C.3   221  THR221      0.0379
     83  N          3.5600   47.8330   18.6510 N.am  222  TYR222     -0.1959
     84  CA         4.6930   48.6810   19.0190 C.3   222  TYR222      0.1771
     85  C          4.1910   50.0940   19.3140 C.2   222  TYR222      0.2620
     86  O          4.6650   50.7610   20.2360 O.2   222  TYR222     -0.2715
     87  CB         5.7470   48.7260   17.9140 C.3   222  TYR222      0.0574
     88  CG         6.7020   47.5510   17.8480 C.ar  222  TYR222     -0.0198
     89  CD1        7.1450   46.9050   19.0020 C.ar  222  TYR222     -0.0009
     90  CD2        7.1920   47.1070   16.6230 C.ar  222  TYR222     -0.0009
     91  CE1        8.0360   45.8360   18.9310 C.ar  222  TYR222      0.0417
     92  CE2        8.0760   46.0430   16.5390 C.ar  222  TYR222      0.0417
     93  CZ         8.5000   45.4080   17.6910 C.ar  222  TYR222      0.1957
     94  OH         9.3860   44.3420   17.5930 O.3   222  TYR222     -0.2866
     95  N          3.2170   50.5370   18.5230 N.am  223  GLY223     -0.1954
     96  CA         2.6160   51.8440   18.7100 C.3   223  GLY223      0.1869
     97  C          2.0760   52.0740   20.1140 C.2   223  GLY223      0.2309
     98  O          2.2640   53.1450   20.6930 O.2   223  GLY223     -0.2863
     99  N          2.8150   50.2420   23.0170 N.3   225  LEU225     -0.1245
    100  CA         3.9140   50.1850   23.9610 C.3   225  LEU225      0.1561
    101  C          4.7300   51.4740   23.9720 C.2   225  LEU225      0.2260
    102  O          4.9790   52.0490   25.0370 O.2   225  LEU225     -0.2867
    103  CB         4.8230   49.0010   23.6450 C.3   225  LEU225      0.0270
    104  CG         4.4770   47.6940   24.3560 C.3   225  LEU225      0.0019
    105  CD1        3.0660   47.2660   24.0230 C.3   225  LEU225      0.0001
    106  CD2        5.4760   46.6000   23.9940 C.3   225  LEU225      0.0001
@<TRIPOS>BOND
     1     8     7    2
     2    17    16    2
     3     7     9   am
     4     7     6    1
     5     5     6    1
     6     5     2    1
     7    16    15    1
     8    16    18   am
     9     2     1    1
    10     2     3    1
    11    15    14    1
    12    92    90   ar
    13    92    93   ar
    14    90    88   ar
    15     4     3    2
    16    14    11    1
    17    10    11    1
    18    82    80    1
    19    11    12    1
    20    94    93    1
    21    93    91   ar
    22    80    81    1
    23    80    77    1
    24    88    87    1
    25    88    89   ar
    26    47    46   ar
    27    87    84    1
    28    44    43    2
    29    48    46   ar
    30    43    42    1
    31    46    45    1
    32    95    96    1
    33    95    85   am
    34    83    84    1
    35    83    78   am
    36    12    13    2
    37    96    97    1
    38    42    45    1
    39    42    41    1
    40    91    89   ar
    41    77    78    1
    42    77    76    1
    43    84    85    1
    44    85    86    2
    45    38    37    2
    46    78    79    2
    47    40    39    1
    48    41    37   am
    49    72    71    2
    50    37    36    1
    51    76    71   am
    52    97    98    2
    53    39    36    1
    54    71    70    1
    55    36    35    1
    56    70    69    1
    57    70    73    1
    58    69    75    1
    59    35    30   am
    60    33    32    1
    61    75    74    1
    62    73    74    1
    63    99   100    1
    64    30    31    2
    65    30    29    1
    66    56    54   am
    67   103   100    1
    68   103   104    1
    69   100   101    1
    70   101   102    2
    71   106   104    1
    72   105   104    1
    73    29    32    1
    74    29    28    1
    75    32    34    1
    76    66    64   ar
    77    66    67   ar
    78    54    55    2
    79    54    53    1
    80    68    67    1
    81    64    62   ar
    82    22    21    2
    83    67    65   ar
    84    53    50    1
    85    28    21   am
    86    21    20    1
    87    62    61    1
    88    62    63   ar
    89    65    63   ar
    90    50    51    1
    91    50    49    1
    92    61    58    1
    93    52    51    2
    94    20    19    1
    95    20    23    1
    96    58    57    1
    97    58    59    1
    98    27    26    1
    99    60    59    2
   100    24    23    1
   101    24    25    1
   102    25    26    1
