@<TRIPOS>MOLECULE
tmp/5lp1A00.pdb
 215 210 0 0 0
SMALL
GASTEIGER

@<TRIPOS>ATOM
      1  N         28.2330  -24.9990   12.9240 N.3    53  LEU53      -0.1245
      2  CA        28.9410  -25.6800   11.8260 C.3    53  LEU53       0.1561
      3  C         29.7560  -26.8880   12.3070 C.2    53  LEU53       0.2260
      4  O         29.7940  -27.9180   11.6250 O.2    53  LEU53      -0.2867
      5  CB        29.8370  -24.7080   11.0430 C.3    53  LEU53       0.0270
      6  CG        29.1290  -23.7530   10.0700 C.3    53  LEU53       0.0019
      7  CD1       30.0460  -22.6070    9.6640 C.3    53  LEU53       0.0001
      8  CD2       28.6330  -24.4920    8.8360 C.3    53  LEU53       0.0001
      9  N         27.3810  -29.7290   12.8420 N.3    56  PHE56      -0.1227
     10  CA        26.9740  -30.1980   11.5020 C.3    56  PHE56       0.1736
     11  C         28.0450  -31.0720   10.8400 C.2    56  PHE56       0.2595
     12  O         27.7220  -32.0990   10.2480 O.2    56  PHE56      -0.2718
     13  CB        26.6140  -28.9870   10.6200 C.3    56  PHE56       0.0547
     14  CG        26.3590  -29.3110    9.1710 C.ar   56  PHE56      -0.0202
     15  CD1       25.2860  -30.1090    8.7940 C.ar   56  PHE56      -0.0042
     16  CD2       27.1690  -28.7730    8.1740 C.ar   56  PHE56      -0.0042
     17  CE1       25.0450  -30.3900    7.4540 C.ar   56  PHE56      -0.0003
     18  CE2       26.9310  -29.0470    6.8360 C.ar   56  PHE56      -0.0003
     19  CZ        25.8650  -29.8550    6.4740 C.ar   56  PHE56      -0.0000
     20  N         29.3070  -30.6630   10.9490 N.am   57  LEU57      -0.1980
     21  CA        30.4320  -31.4340   10.3980 C.3    57  LEU57       0.1596
     22  C         30.7920  -32.6920   11.2200 C.2    57  LEU57       0.2287
     23  O         31.5420  -33.5400   10.7390 O.2    57  LEU57      -0.2864
     24  CB        31.6700  -30.5440   10.2510 C.3    57  LEU57       0.0297
     25  CG        31.5560  -29.3230    9.3250 C.3    57  LEU57       0.0022
     26  CD1       32.7740  -28.4250    9.4690 C.3    57  LEU57       0.0001
     27  CD2       31.3770  -29.7430    7.8800 C.3    57  LEU57       0.0001
     28  N         36.4160  -27.2680   17.6180 N.3    63  MET63      -0.1245
     29  CA        36.6690  -27.0730   16.1810 C.3    63  MET63       0.1570
     30  C         35.9220  -25.8290   15.6740 C.2    63  MET63       0.2261
     31  O         36.3680  -25.1800   14.7270 O.2    63  MET63      -0.2867
     32  CB        36.2550  -28.3200   15.3830 C.3    63  MET63       0.0387
     33  CG        36.3920  -28.2300   13.8640 C.3    63  MET63       0.0595
     34  SD        38.0550  -27.8740   13.2630 S.3    63  MET63      -0.1393
     35  CE        37.7900  -27.9210   11.4910 C.3    63  MET63       0.0692
     36  N         37.3850  -22.8280   13.3750 N.3    67  LEU67      -0.1245
     37  CA        36.7180  -22.2690   12.1900 C.3    67  LEU67       0.1561
     38  C         36.5350  -20.7560   12.3440 C.2    67  LEU67       0.2260
     39  O         36.7330  -20.0110   11.3910 O.2    67  LEU67      -0.2867
     40  CB        35.3650  -22.9450   11.9350 C.3    67  LEU67       0.0270
     41  CG        35.3950  -24.4030   11.4700 C.3    67  LEU67       0.0019
     42  CD1       33.9840  -24.9700   11.4350 C.3    67  LEU67       0.0001
     43  CD2       36.0580  -24.5330   10.1080 C.3    67  LEU67       0.0001
     44  N         37.9220  -18.0550    9.7020 N.3    71  PHE71      -0.1241
     45  CA        36.9110  -17.3780    8.8670 C.3    71  PHE71       0.1605
     46  C         36.1020  -16.2510    9.5280 C.2    71  PHE71       0.2264
     47  O         35.3300  -15.5820    8.8420 O.2    71  PHE71      -0.2867
     48  CB        35.9340  -18.4310    8.3440 C.3    71  PHE71       0.0534
     49  CG        36.5930  -19.5550    7.5910 C.ar   71  PHE71      -0.0203
     50  CD1       37.1940  -19.3220    6.3580 C.ar   71  PHE71      -0.0042
     51  CD2       36.5980  -20.8490    8.0990 C.ar   71  PHE71      -0.0042
     52  CE1       37.7980  -20.3550    5.6560 C.ar   71  PHE71      -0.0003
     53  CE2       37.2020  -21.8860    7.4020 C.ar   71  PHE71      -0.0003
     54  CZ        37.8000  -21.6400    6.1770 C.ar   71  PHE71      -0.0000
     55  N         20.7640  -24.4700    2.0880 N.3    98  GLY98      -0.1210
     56  CA        20.8650  -25.9160    2.2890 C.3    98  GLY98       0.1956
     57  C         20.9130  -26.3380    3.7560 C.2    98  GLY98       0.2612
     58  O         20.9690  -25.4990    4.6700 O.2    98  GLY98      -0.2717
     59  N         20.8580  -27.6530    3.9560 N.am   99  LEU99      -0.1965
     60  CA        21.0410  -28.3060    5.2560 C.3    99  LEU99       0.1728
     61  C         22.3900  -27.9060    5.8450 C.2    99  LEU99       0.2617
     62  O         23.4040  -28.0040    5.1690 O.2    99  LEU99      -0.2715
     63  CB        21.0150  -29.8370    5.0820 C.3    99  LEU99       0.0311
     64  CG        21.1300  -30.7040    6.3380 C.3    99  LEU99       0.0022
     65  CD1       19.9160  -30.4880    7.2170 C.3    99  LEU99       0.0001
     66  CD2       21.2940  -32.1750    5.9640 C.3    99  LEU99       0.0001
     67  N         22.4020  -27.4510    7.0940 N.am  100  GLY100     -0.1940
     68  CA        23.6440  -27.0370    7.7550 C.3   100  GLY100      0.2014
     69  C         24.1590  -25.6490    7.3900 C.2   100  GLY100      0.2638
     70  O         25.1780  -25.2040    7.9310 O.2   100  GLY100     -0.2714
     71  N         23.4710  -24.9560    6.4830 N.am  101  ALA101     -0.1977
     72  CA        23.8510  -23.6030    6.1100 C.3   101  ALA101      0.1597
     73  C         23.0170  -22.6350    6.9500 C.2   101  ALA101      0.2287
     74  O         22.4370  -23.0260    7.9730 O.2   101  ALA101     -0.2864
     75  CB        23.6440  -23.4010    4.6160 C.3   101  ALA101      0.0319
     76  N         25.4700  -17.5970    3.6660 N.3   105  LEU105     -0.1231
     77  CA        26.4340  -18.4350    2.9440 C.3   105  LEU105      0.1693
     78  C         26.2190  -18.5510    1.4330 C.2   105  LEU105      0.2592
     79  O         26.8680  -19.3800    0.7810 O.2   105  LEU105     -0.2718
     80  CB        26.4860  -19.8300    3.5860 C.3   105  LEU105      0.0284
     81  CG        26.8960  -19.8910    5.0630 C.3   105  LEU105      0.0019
     82  CD1       26.9890  -21.3470    5.5060 C.3   105  LEU105      0.0001
     83  CD2       28.2220  -19.1870    5.3060 C.3   105  LEU105      0.0001
     84  N         25.3260  -17.7390    0.8670 N.am  106  TYR106     -0.1976
     85  CA        25.1060  -17.7410   -0.5810 C.3   106  TYR106      0.1639
     86  C         25.1620  -16.3080   -1.1240 C.2   106  TYR106      0.2290
     87  O         24.3690  -15.9180   -1.9880 O.2   106  TYR106     -0.2864
     88  CB        23.7810  -18.4320   -0.9100 C.3   106  TYR106      0.0560
     89  CG        23.7140  -19.8940   -0.5010 C.ar  106  TYR106     -0.0198
     90  CD1       23.3340  -20.2620    0.7930 C.ar  106  TYR106     -0.0009
     91  CD2       24.0080  -20.9100   -1.4090 C.ar  106  TYR106     -0.0009
     92  CE1       23.2630  -21.5990    1.1660 C.ar  106  TYR106      0.0417
     93  CE2       23.9370  -22.2480   -1.0450 C.ar  106  TYR106      0.0417
     94  CZ        23.5590  -22.5880    0.2460 C.ar  106  TYR106      0.1957
     95  OH        23.4770  -23.9110    0.6220 O.3   106  TYR106     -0.2866
     96  N         21.1660  -27.1170   14.7620 N.3   152  LEU152     -0.1245
     97  CA        20.8270  -28.2330   13.8790 C.3   152  LEU152      0.1561
     98  C         20.3780  -29.4740   14.6400 C.2   152  LEU152      0.2260
     99  O         21.0130  -29.8670   15.6210 O.2   152  LEU152     -0.2867
    100  CB        22.0490  -28.6270   13.0390 C.3   152  LEU152      0.0270
    101  CG        21.9300  -29.8260   12.0830 C.3   152  LEU152      0.0019
    102  CD1       21.4370  -29.3880   10.7130 C.3   152  LEU152      0.0001
    103  CD2       23.2700  -30.5320   11.9490 C.3   152  LEU152      0.0001
    104  N         19.3600  -23.8920   -2.8790 N.3   218  HIS218     -0.1226
    105  CA        20.3810  -24.9180   -3.0360 C.3   218  HIS218      0.1752
    106  C         20.0900  -26.1630   -2.2020 C.2   218  HIS218      0.2597
    107  O         19.8510  -26.0620   -0.9970 O.2   218  HIS218     -0.2718
    108  CB        21.7440  -24.3370   -2.6440 C.3   218  HIS218      0.0759
    109  CG        22.8590  -25.3360   -2.6600 C.ar  218  HIS218      0.0818
    110  ND1       23.6060  -25.6300   -1.5400 N.ar  218  HIS218     -0.2268
    111  CD2       23.3470  -26.1150   -3.6530 C.ar  218  HIS218      0.1154
    112  CE1       24.5120  -26.5400   -1.8440 C.ar  218  HIS218      0.1986
    113  NE2       24.3750  -26.8540   -3.1200 N.ar  218  HIS218     -0.2212
    114  N         20.1100  -27.3280   -2.8590 N.am  219  SER219     -0.1938
    115  CA        20.0260  -28.6270   -2.1950 C.3   219  SER219      0.2055
    116  C         18.7160  -28.8130   -1.4090 C.2   219  SER219      0.2643
    117  O         17.6720  -28.9780   -2.0530 O.2   219  SER219     -0.2714
    118  CB        21.2980  -28.8550   -1.3790 C.3   219  SER219      0.2130
    119  OG        21.4490  -30.2290   -1.0810 O.3   219  SER219     -0.2179
    120  N         18.7310  -28.7870   -0.0710 N.am  220  PHE220     -0.1973
    121  CA        17.4800  -28.7920    0.7180 C.3   220  PHE220      0.1639
    122  C         16.6340  -27.5790    0.2740 C.2   220  PHE220      0.2290
    123  O         15.3980  -27.6430    0.2250 O.2   220  PHE220     -0.2864
    124  CB        17.7700  -28.6900    2.2290 C.3   220  PHE220      0.0560
    125  CG        16.7110  -29.2950    3.1390 C.ar  220  PHE220     -0.0200
    126  CD1       15.3860  -29.5070    2.7410 C.ar  220  PHE220     -0.0042
    127  CD2       17.0580  -29.6230    4.4470 C.ar  220  PHE220     -0.0042
    128  CE1       14.4560  -30.0580    3.6190 C.ar  220  PHE220     -0.0003
    129  CE2       16.1300  -30.1690    5.3250 C.ar  220  PHE220     -0.0003
    130  CZ        14.8260  -30.3840    4.9090 C.ar  220  PHE220     -0.0000
    131  N         18.0060  -31.4440   -3.6490 N.3   244  TRP244     -0.1241
    132  CA        17.9610  -32.7010   -2.9200 C.3   244  TRP244      0.1605
    133  C         16.4770  -32.9940   -2.7680 C.2   244  TRP244      0.2264
    134  O         15.7960  -32.3660   -1.9630 O.2   244  TRP244     -0.2867
    135  CB        18.6450  -32.5500   -1.5690 C.3   244  TRP244      0.0550
    136  CG        18.6340  -33.7880   -0.7300 C.ar  244  TRP244      0.0003
    137  CD1       19.0250  -35.0400   -1.1070 C.ar  244  TRP244      0.0946
    138  CD2       18.2460  -33.8820    0.6410 C.ar  244  TRP244      0.0152
    139  NE1       18.8880  -35.9140   -0.0580 N.ar  244  TRP244     -0.2442
    140  CE2       18.4180  -35.2310    1.0310 C.ar  244  TRP244      0.0810
    141  CE3       17.7700  -32.9610    1.5810 C.ar  244  TRP244      0.0012
    142  CZ2       18.1230  -35.6830    2.3230 C.ar  244  TRP244      0.0191
    143  CZ3       17.4790  -33.4090    2.8690 C.ar  244  TRP244      0.0001
    144  CH2       17.6600  -34.7640    3.2260 C.ar  244  TRP244      0.0015
    145  N         27.4310  -34.4740   -7.7120 N.3   268  PHE268     -0.1241
    146  CA        26.4460  -34.7190   -6.6400 C.3   268  PHE268      0.1605
    147  C         25.3310  -35.6820   -7.0340 C.2   268  PHE268      0.2264
    148  O         24.9490  -36.5350   -6.2420 O.2   268  PHE268     -0.2867
    149  CB        25.7990  -33.4140   -6.1670 C.3   268  PHE268      0.0534
    150  CG        24.7110  -33.6040   -5.1280 C.ar  268  PHE268     -0.0203
    151  CD1       25.0310  -33.9470   -3.8210 C.ar  268  PHE268     -0.0042
    152  CD2       23.3670  -33.4280   -5.4590 C.ar  268  PHE268     -0.0042
    153  CE1       24.0340  -34.1150   -2.8650 C.ar  268  PHE268     -0.0003
    154  CE2       22.3680  -33.5950   -4.5100 C.ar  268  PHE268     -0.0003
    155  CZ        22.7010  -33.9380   -3.2100 C.ar  268  PHE268     -0.0000
    156  N         28.8940  -30.3130   -5.4530 N.3   297  HIS297     -0.1226
    157  CA        27.7500  -29.7780   -4.6930 C.3   297  HIS297      0.1752
    158  C         28.0270  -28.4050   -4.0640 C.2   297  HIS297      0.2595
    159  O         27.1450  -27.5400   -4.0410 O.2   297  HIS297     -0.2718
    160  CB        27.3610  -30.7850   -3.6030 C.3   297  HIS297      0.0759
    161  CG        25.9690  -30.6250   -3.0750 C.ar  297  HIS297      0.0818
    162  ND1       24.8590  -30.6300   -3.8890 N.ar  297  HIS297     -0.2268
    163  CD2       25.5040  -30.5210   -1.8060 C.ar  297  HIS297      0.1154
    164  CE1       23.7720  -30.5080   -3.1480 C.ar  297  HIS297      0.1986
    165  NE2       24.1360  -30.4410   -1.8810 N.ar  297  HIS297     -0.2212
    166  N         29.2520  -28.2150   -3.5720 N.am  298  GLN298     -0.1979
    167  CA        29.6440  -26.9690   -2.9070 C.3   298  GLN298      0.1601
    168  C         29.9510  -25.7810   -3.8200 C.2   298  GLN298      0.2287
    169  O         30.1290  -24.6730   -3.3170 O.2   298  GLN298     -0.2864
    170  CB        30.8210  -27.2260   -1.9440 C.3   298  GLN298      0.0394
    171  CG        30.4520  -28.1100   -0.7650 C.3   298  GLN298      0.0908
    172  CD        29.2570  -27.5790    0.0030 C.2   298  GLN298      0.2608
    173  OE1       29.2340  -26.4120    0.3980 O.2   298  GLN298     -0.2717
    174  NE2       28.2510  -28.4250    0.2020 N.am  298  GLN298     -0.0878
    175  N         27.6260  -22.7470   -3.0600 N.3   301  ALA301     -0.1245
    176  CA        27.7430  -22.0410   -1.7780 C.3   301  ALA301      0.1562
    177  C         29.0780  -21.2870   -1.6570 C.2   301  ALA301      0.2260
    178  O         30.0300  -21.5650   -2.3860 O.2   301  ALA301     -0.2867
    179  CB        27.5540  -23.0160   -0.6230 C.3   301  ALA301      0.0290
    180  N         31.5770  -21.1930    0.5610 N.3   303  PHE303     -0.1241
    181  CA        32.8150  -21.8260    1.0420 C.3   303  PHE303      0.1605
    182  C         33.7320  -22.2890   -0.0990 C.2   303  PHE303      0.2264
    183  O         34.9160  -22.5190    0.1380 O.2   303  PHE303     -0.2867
    184  CB        32.5400  -22.9760    2.0260 C.3   303  PHE303      0.0534
    185  CG        32.4800  -22.5480    3.4650 C.ar  303  PHE303     -0.0203
    186  CD1       33.6520  -22.4340    4.2160 C.ar  303  PHE303     -0.0042
    187  CD2       31.2680  -22.2700    4.0770 C.ar  303  PHE303     -0.0042
    188  CE1       33.6120  -22.0490    5.5440 C.ar  303  PHE303     -0.0003
    189  CE2       31.2180  -21.8850    5.4050 C.ar  303  PHE303     -0.0003
    190  CZ        32.3920  -21.7800    6.1450 C.ar  303  PHE303     -0.0000
    191  N         38.8190  -30.6350    0.9250 N.3   315  LEU315     -0.1231
    192  CA        37.5940  -30.5000    1.7410 C.3   315  LEU315      0.1693
    193  C         36.2630  -30.6630    0.9680 C.2   315  LEU315      0.2592
    194  O         35.1940  -30.5100    1.5650 O.2   315  LEU315     -0.2718
    195  CB        37.5930  -29.1410    2.4690 C.3   315  LEU315      0.0284
    196  CG        38.6700  -28.9060    3.5330 C.3   315  LEU315      0.0019
    197  CD1       38.6810  -27.4480    3.9670 C.3   315  LEU315      0.0001
    198  CD2       38.4610  -29.8160    4.7360 C.3   315  LEU315      0.0001
    199  N         36.3310  -30.9730   -0.3320 N.am  316  LYS316     -0.1966
    200  CA        35.1580  -31.1000   -1.2220 C.3   316  LYS316      0.1728
    201  C         34.4550  -29.7560   -1.5000 C.2   316  LYS316      0.2616
    202  O         33.2890  -29.7410   -1.8950 O.2   316  LYS316     -0.2715
    203  CB        34.1350  -32.1300   -0.7040 C.3   316  LYS316      0.0311
    204  CG        34.6990  -33.4830   -0.3000 C.3   316  LYS316      0.0038
    205  CD        35.3990  -34.1800   -1.4530 C.3   316  LYS316      0.0206
    206  CE        35.5880  -35.6640   -1.1680 C.3   316  LYS316      0.1093
    207  NZ        36.2610  -35.9340    0.1350 N.3   316  LYS316     -0.1314
    208  N         35.1720  -28.6440   -1.3140 N.am  317  LEU317     -0.1977
    209  CA        34.6190  -27.3020   -1.5140 C.3   317  LEU317      0.1596
    210  C         34.7600  -26.8300   -2.9600 C.2   317  LEU317      0.2287
    211  O         34.0080  -25.9560   -3.3940 O.2   317  LEU317     -0.2864
    212  CB        35.2760  -26.3030   -0.5540 C.3   317  LEU317      0.0297
    213  CG        35.1050  -26.6240    0.9360 C.3   317  LEU317      0.0022
    214  CD1       35.9340  -25.6760    1.7930 C.3   317  LEU317      0.0001
    215  CD2       33.6390  -26.5900    1.3450 C.3   317  LEU317      0.0001
@<TRIPOS>BOND
     1   145   146    1
     2   147   146    1
     3   147   148    2
     4   146   149    1
     5   149   150    1
     6   152   150   ar
     7   152   154   ar
     8   156   157    1
     9   150   151   ar
    10   157   158    1
    11   157   160    1
    12   154   155   ar
    13   158   159    2
    14   158   166   am
    15   162   164   ar
    16   162   161   ar
    17   151   153   ar
    18   168   169    2
    19   168   167    1
    20   111   113   ar
    21   111   109   ar
    22   131   132    1
    23   160   161    1
    24   166   167    1
    25   211   210    2
    26   155   153   ar
    27   164   165   ar
    28   113   112   ar
    29   161   163   ar
    30   175   176    1
    31   105   104    1
    32   105   108    1
    33   105   106    1
    34   210   209    1
    35   132   133    1
    36   132   135    1
    37   167   170    1
    38   114   106   am
    39   114   115    1
    40   133   134    2
    41   109   108    1
    42   109   110   ar
    43   178   177    2
    44   106   107    2
    45   115   116    1
    46   115   118    1
    47   117   116    2
    48    87    86    2
    49   170   171    1
    50   202   201    2
    51   165   163   ar
    52   112   110   ar
    53   176   177    1
    54   176   179    1
    55   135   136    1
    56   209   208    1
    57   209   212    1
    58   201   208   am
    59   201   200    1
    60   205   206    1
    61   205   204    1
    62    91    93   ar
    63    91    89   ar
    64   116   120   am
    65   118   119    1
    66   200   203    1
    67   200   199    1
    68   206   207    1
    69    86    85    1
    70   137   136   ar
    71   137   139   ar
    72    93    94   ar
    73    88    85    1
    74    88    89    1
    75   171   172    1
    76   136   138   ar
    77   203   204    1
    78    85    84    1
    79   212   213    1
    80    89    90   ar
    81   199   193   am
    82   182   183    2
    83   182   181    1
    84   120   121    1
    85   139   140   ar
    86   172   174   am
    87   172   173    2
    88   123   122    2
    89    94    95    1
    90    94    92   ar
    91   122   121    1
    92   180   181    1
    93   138   140   ar
    94   138   141   ar
    95   121   124    1
    96    79    78    2
    97    90    92   ar
    98    84    78   am
    99   191   192    1
   100   213   215    1
   101   213   214    1
   102   193   194    2
   103   193   192    1
   104   140   142   ar
   105   181   184    1
   106    78    77    1
   107   141   143   ar
   108   192   195    1
   109   184   185    1
   110    55    56    1
   111   124   125    1
   112    56    57    1
   113   142   144   ar
   114   195   196    1
   115   126   125   ar
   116   126   128   ar
   117   143   144   ar
   118    77    80    1
   119    77    76    1
   120   125   127   ar
   121   185   187   ar
   122   185   186   ar
   123   196   197    1
   124   196   198    1
   125    80    81    1
   126   128   130   ar
   127    57    59   am
   128    57    58    2
   129    59    60    1
   130   187   189   ar
   131   186   188   ar
   132   127   129   ar
   133    75    72    1
   134   130   129   ar
   135    81    83    1
   136    81    82    1
   137    63    60    1
   138    63    64    1
   139    62    61    2
   140    60    61    1
   141   189   190   ar
   142   188   190   ar
   143    52    54   ar
   144    52    50   ar
   145    61    67   am
   146    66    64    1
   147    72    71    1
   148    72    73    1
   149    54    53   ar
   150    64    65    1
   151    50    49   ar
   152    19    18   ar
   153    19    17   ar
   154    71    69   am
   155    18    16   ar
   156    73    74    2
   157    67    68    1
   158    69    68    1
   159    69    70    2
   160    53    51   ar
   161    17    15   ar
   162    49    51   ar
   163    49    48    1
   164    27    25    1
   165    16    14   ar
   166    48    45    1
   167    15    14   ar
   168     8     6    1
   169    47    46    2
   170    45    46    1
   171    45    44    1
   172    14    13    1
   173    25    26    1
   174    25    24    1
   175     7     6    1
   176     6     5    1
   177    43    41    1
   178    12    11    2
   179    24    21    1
   180    21    20    1
   181    21    22    1
   182    13    10    1
   183   102   101    1
   184    23    22    2
   185    11    20   am
   186    11    10    1
   187     5     2    1
   188    39    38    2
   189    42    41    1
   190    41    40    1
   191    35    34    1
   192    10     9    1
   193     4     3    2
   194     2     3    1
   195     2     1    1
   196    40    37    1
   197   103   101    1
   198   101   100    1
   199    37    38    1
   200    37    36    1
   201   100    97    1
   202    34    33    1
   203    33    32    1
   204    97    98    1
   205    97    96    1
   206    98    99    2
   207    31    30    2
   208    32    29    1
   209    30    29    1
   210    29    28    1
