@<TRIPOS>MOLECULE
tmp/5lp6B02.pdb
 177 167 0 0 0
SMALL
GASTEIGER

@<TRIPOS>ATOM
      1  N         11.1970   62.9200   33.7170 N.3   236  VAL236     -0.1245
      2  CA        12.4540   62.7160   34.4640 C.3   236  VAL236      0.1561
      3  C         13.5070   63.8050   34.2190 C.2   236  VAL236      0.2260
      4  O         14.3410   64.0630   35.0890 O.2   236  VAL236     -0.2867
      5  CB        13.0830   61.3210   34.2080 C.3   236  VAL236      0.0252
      6  CG1       12.0980   60.2140   34.5640 C.3   236  VAL236      0.0019
      7  CG2       13.5770   61.1680   32.7730 C.3   236  VAL236      0.0019
      8  N         13.4840   68.5710   35.9830 N.3   239  CYS239     -0.1221
      9  CA        14.3520   69.3360   36.8830 C.3   239  CYS239      0.1808
     10  C         15.6370   69.8300   36.2040 C.2   239  CYS239      0.2601
     11  O         16.1620   70.8790   36.5760 O.2   239  CYS239     -0.2717
     12  CB        14.6710   68.5280   38.1380 C.3   239  CYS239      0.0970
     13  SG        13.2510   68.3870   39.2500 S.3   239  CYS239     -0.0800
     14  N         16.1230   69.0900   35.2070 N.am  240  LEU240     -0.1979
     15  CA        17.2610   69.5320   34.3900 C.3   240  LEU240      0.1596
     16  C         16.8850   70.7030   33.4730 C.2   240  LEU240      0.2287
     17  O         17.6880   71.6100   33.2580 O.2   240  LEU240     -0.2864
     18  CB        17.7950   68.3830   33.5230 C.3   240  LEU240      0.0297
     19  CG        18.2560   67.0860   34.1950 C.3   240  LEU240      0.0022
     20  CD1       18.5340   66.0180   33.1470 C.3   240  LEU240      0.0001
     21  CD2       19.4910   67.3190   35.0510 C.3   240  LEU240      0.0001
     22  N         12.7210   74.8670   42.0030 N.3   245  GLN245     -0.1231
     23  CA        13.3570   75.2370   43.2780 C.3   245  GLN245      0.1698
     24  C         14.5130   74.3020   43.6300 C.2   245  GLN245      0.2592
     25  O         15.5140   74.7310   44.2110 O.2   245  GLN245     -0.2718
     26  CB        12.3300   75.2840   44.4200 C.3   245  GLN245      0.0381
     27  CG        11.5950   73.9770   44.7320 C.3   245  GLN245      0.0905
     28  CD        12.3620   72.9800   45.6040 C.2   245  GLN245      0.2608
     29  OE1       12.2380   71.7720   45.4020 O.2   245  GLN245     -0.2717
     30  NE2       13.1510   73.4680   46.5670 N.am  245  GLN245     -0.0878
     31  N         14.3600   73.0290   43.2660 N.am  246  LEU246     -0.1966
     32  CA        15.4230   72.0540   43.4030 C.3   246  LEU246      0.1728
     33  C         16.5640   72.3310   42.4260 C.2   246  LEU246      0.2616
     34  O         16.3620   72.3740   41.2100 O.2   246  LEU246     -0.2715
     35  CB        14.8900   70.6300   43.1880 C.3   246  LEU246      0.0311
     36  CG        15.9060   69.4870   43.3240 C.3   246  LEU246      0.0022
     37  CD1       16.8160   69.7390   44.5130 C.3   246  LEU246      0.0001
     38  CD2       15.1920   68.1450   43.4490 C.3   246  LEU246      0.0001
     39  N         17.7540   72.5290   42.9880 N.am  247  ASN247     -0.1958
     40  CA        18.9970   72.5640   42.2310 C.3   247  ASN247      0.1819
     41  C         19.2300   71.2010   41.5920 C.2   247  ASN247      0.2621
     42  O         19.1310   70.1690   42.2660 O.2   247  ASN247     -0.2715
     43  CB        20.1470   72.9110   43.1690 C.3   247  ASN247      0.1195
     44  CG        21.4350   73.2370   42.4390 C.2   247  ASN247      0.2630
     45  OD1       21.5330   73.1440   41.2130 O.2   247  ASN247     -0.2716
     46  ND2       22.4410   73.6180   43.2060 N.am  247  ASN247     -0.0877
     47  N         19.5530   71.2060   40.3010 N.am  248  ALA248     -0.1963
     48  CA        19.3970   70.0080   39.4840 C.3   248  ALA248      0.1728
     49  C         20.3800   69.8740   38.3210 C.2   248  ALA248      0.2616
     50  O         20.3060   70.6150   37.3400 O.2   248  ALA248     -0.2715
     51  CB        17.9720   69.9610   38.9710 C.3   248  ALA248      0.0334
     52  N         21.2950   68.9140   38.4580 N.am  249  ASP249     -0.1971
     53  CA        22.1390   68.4390   37.3560 C.3   249  ASP249      0.1709
     54  C         22.2600   66.9110   37.4250 C.2   249  ASP249      0.2293
     55  O         21.7930   66.2880   38.3830 O.2   249  ASP249     -0.2864
     56  CB        23.5170   69.1230   37.3780 C.3   249  ASP249      0.1436
     57  CG        24.2460   68.9560   38.7050 C.2   249  ASP249      0.3671
     58  OD1       24.6760   67.8270   39.0220 O.co2 249  ASP249     -0.2456
     59  OD2       24.4090   69.9660   39.4230 O.co2 249  ASP249     -0.2456
     60  N         24.3120   65.3680   40.6260 N.3   252  LYS252     -0.1231
     61  CA        23.5110   65.3900   41.8650 C.3   252  LYS252      0.1693
     62  C         22.4470   64.3000   41.9160 C.2   252  LYS252      0.2591
     63  O         22.2070   63.7160   42.9740 O.2   252  LYS252     -0.2718
     64  CB        22.8530   66.7630   42.0770 C.3   252  LYS252      0.0285
     65  CG        23.5270   67.5820   43.1590 C.3   252  LYS252      0.0035
     66  CD        23.3620   69.0740   42.9610 C.3   252  LYS252      0.0206
     67  CE        23.9650   69.8200   44.1360 C.3   252  LYS252      0.1093
     68  NZ        24.2350   71.2350   43.7970 N.3   252  LYS252     -0.1314
     69  N         21.8060   64.0490   40.7780 N.am  253  LEU253     -0.1980
     70  CA        20.8680   62.9350   40.6390 C.3   253  LEU253      0.1596
     71  C         21.5680   61.5990   40.8920 C.2   253  LEU253      0.2287
     72  O         21.0320   60.7420   41.5900 O.2   253  LEU253     -0.2864
     73  CB        20.2270   62.9470   39.2480 C.3   253  LEU253      0.0297
     74  CG        19.2230   61.8450   38.8870 C.3   253  LEU253      0.0022
     75  CD1       17.9760   61.9030   39.7540 C.3   253  LEU253      0.0001
     76  CD2       18.8510   61.9560   37.4180 C.3   253  LEU253      0.0001
     77  N         22.6740   61.0530   44.6910 N.3   256  ASN256     -0.1225
     78  CA        21.5580   60.7590   45.5980 C.3   256  ASN256      0.1785
     79  C         20.7770   59.4860   45.3020 C.2   256  ASN256      0.2597
     80  O         20.2800   58.8470   46.2290 O.2   256  ASN256     -0.2718
     81  CB        20.6000   61.9420   45.6240 C.3   256  ASN256      0.1169
     82  CG        21.1360   63.0880   46.4450 C.2   256  ASN256      0.2627
     83  OD1       21.1390   63.0200   47.6700 O.2   256  ASN256     -0.2716
     84  ND2       21.6020   64.1350   45.7850 N.am  256  ASN256     -0.0877
     85  N         20.6450   59.1390   44.0250 N.am  257  MET257     -0.1979
     86  CA        19.8900   57.9470   43.6130 C.3   257  MET257      0.1605
     87  C         20.6930   56.6470   43.6140 C.2   257  MET257      0.2287
     88  O         20.1000   55.5690   43.6710 O.2   257  MET257     -0.2864
     89  CB        19.2790   58.1580   42.2250 C.3   257  MET257      0.0413
     90  CG        18.1680   59.1940   42.1950 C.3   257  MET257      0.0598
     91  SD        16.7320   58.7030   43.1720 S.3   257  MET257     -0.1393
     92  CE        16.1090   57.3210   42.2210 C.3   257  MET257      0.0692
     93  N         16.2490   54.1350   46.9280 N.3   306  THR306     -0.1203
     94  CA        16.0180   55.5740   46.7540 C.3   306  THR306      0.1994
     95  C         14.8510   55.8140   45.7930 C.2   306  THR306      0.2618
     96  O         14.6210   55.0200   44.8790 O.2   306  THR306     -0.2717
     97  CB        17.2690   56.2900   46.2040 C.3   306  THR306      0.1784
     98  OG1       17.6210   55.7480   44.9260 O.3   306  THR306     -0.2211
     99  CG2       18.4560   56.1360   47.1550 C.3   306  THR306      0.0376
    100  N         14.1200   56.9080   46.0130 N.am  307  VAL307     -0.1965
    101  CA        12.9600   57.2830   45.1870 C.3   307  VAL307      0.1727
    102  C         13.0040   58.7820   44.8810 C.2   307  VAL307      0.2616
    103  O         13.4350   59.5820   45.7110 O.2   307  VAL307     -0.2715
    104  CB        11.6230   56.9230   45.8800 C.3   307  VAL307      0.0290
    105  CG1       10.4210   57.2780   45.0100 C.3   307  VAL307      0.0023
    106  CG2       11.5800   55.4400   46.2210 C.3   307  VAL307      0.0023
    107  N         12.5350   59.1420   43.6880 N.am  308  ALA308     -0.1963
    108  CA        12.5780   60.5130   43.1880 C.3   308  ALA308      0.1728
    109  C         11.2810   60.8520   42.4510 C.2   308  ALA308      0.2616
    110  O         11.0450   60.3570   41.3470 O.2   308  ALA308     -0.2715
    111  CB        13.7690   60.6650   42.2620 C.3   308  ALA308      0.0334
    112  N         10.4500   61.6930   43.0710 N.am  309  ALA309     -0.1963
    113  CA         9.1590   62.1090   42.5060 C.3   309  ALA309      0.1728
    114  C          9.2470   63.5180   41.9220 C.2   309  ALA309      0.2616
    115  O          9.9220   64.3840   42.4810 O.2   309  ALA309     -0.2715
    116  CB         8.0770   62.0540   43.5710 C.3   309  ALA309      0.0334
    117  N          8.5690   63.7310   40.7940 N.am  310  ILE310     -0.1977
    118  CA         8.4990   65.0430   40.1380 C.3   310  ILE310      0.1596
    119  C          7.0470   65.3360   39.7700 C.2   310  ILE310      0.2287
    120  O          6.5260   64.7870   38.7960 O.2   310  ILE310     -0.2864
    121  CB         9.3860   65.1230   38.8690 C.3   310  ILE310      0.0276
    122  CG1       10.8450   64.7680   39.1980 C.3   310  ILE310      0.0022
    123  CG2        9.3020   66.5110   38.2320 C.3   310  ILE310      0.0022
    124  CD1       11.1710   63.2930   39.0480 C.3   310  ILE310      0.0001
    125  N         18.7300   53.8640   54.8400 N.3   339  ILE339     -0.1245
    126  CA        18.9540   55.1350   54.1340 C.3   339  ILE339      0.1561
    127  C         17.8280   56.0810   54.5670 C.2   339  ILE339      0.2260
    128  O         16.7390   56.0470   53.9880 O.2   339  ILE339     -0.2867
    129  CB        18.9810   54.9850   52.5890 C.3   339  ILE339      0.0252
    130  CG1       20.0050   53.9190   52.1710 C.3   339  ILE339      0.0019
    131  CG2       19.3070   56.3300   51.9360 C.3   339  ILE339      0.0019
    132  CD1       20.1230   53.6820   50.6770 C.3   339  ILE339      0.0001
    133  N         15.4490   59.2800   54.8990 N.3   341  ASN341     -0.1225
    134  CA        14.9780   60.3290   53.9860 C.3   341  ASN341      0.1785
    135  C         15.3350   60.0300   52.5290 C.2   341  ASN341      0.2597
    136  O         15.9060   60.8650   51.8240 O.2   341  ASN341     -0.2718
    137  CB        15.5180   61.6970   54.4230 C.3   341  ASN341      0.1169
    138  CG        15.2790   61.9760   55.8960 C.2   341  ASN341      0.2627
    139  OD1       16.2210   62.1920   56.6560 O.2   341  ASN341     -0.2716
    140  ND2       14.0150   61.9660   56.3060 N.am  341  ASN341     -0.0877
    141  N         14.9830   58.8200   52.0980 N.am  342  ASN342     -0.1974
    142  CA        15.3280   58.3150   50.7580 C.3   342  ASN342      0.1688
    143  C         14.2720   58.5680   49.6680 C.2   342  ASN342      0.2292
    144  O         14.4250   58.0940   48.5400 O.2   342  ASN342     -0.2864
    145  CB        15.6860   56.8220   50.8190 C.3   342  ASN342      0.1181
    146  CG        14.5260   55.9450   51.2630 C.2   342  ASN342      0.2629
    147  OD1       13.6150   56.4020   51.9540 O.2   342  ASN342     -0.2716
    148  ND2       14.5630   54.6760   50.8810 N.am  342  ASN342     -0.0877
    149  N         12.5370   61.8290   47.8580 N.3   344  LYS344     -0.1231
    150  CA        12.4680   63.2780   47.6590 C.3   344  LYS344      0.1693
    151  C         11.4710   63.6540   46.5770 C.2   344  LYS344      0.2593
    152  O         11.1470   62.8540   45.6960 O.2   344  LYS344     -0.2718
    153  CB        13.8410   63.8610   47.3230 C.3   344  LYS344      0.0285
    154  CG        14.8300   63.8690   48.4790 C.3   344  LYS344      0.0035
    155  CD        14.3290   64.6040   49.7120 C.3   344  LYS344      0.0206
    156  CE        15.4300   64.7600   50.7440 C.3   344  LYS344      0.1093
    157  NZ        15.8910   63.4780   51.3350 N.3   344  LYS344     -0.1314
    158  N         11.0070   64.8960   46.6650 N.am  345  THR345     -0.1939
    159  CA         9.9440   65.4170   45.8190 C.3   345  THR345      0.2028
    160  C         10.3310   66.7950   45.2930 C.2   345  THR345      0.2642
    161  O         10.8510   67.6300   46.0370 O.2   345  THR345     -0.2714
    162  CB         8.6260   65.5230   46.6080 C.3   345  THR345      0.1808
    163  OG1        8.3440   64.2660   47.2380 O.3   345  THR345     -0.2208
    164  CG2        7.4620   65.9000   45.6930 C.3   345  THR345      0.0379
    165  N         10.0760   67.0100   44.0050 N.am  346  ALA346     -0.1977
    166  CA        10.2740   68.3040   43.3550 C.3   346  ALA346      0.1597
    167  C          8.9780   68.7230   42.6720 C.2   346  ALA346      0.2287
    168  O          8.2020   67.8750   42.2230 O.2   346  ALA346     -0.2864
    169  CB        11.4050   68.2230   42.3450 C.3   346  ALA346      0.0319
    170  N         10.7110   58.0860   39.6810 N.3   362  ILE362     -0.1245
    171  CA        12.0330   57.5020   39.4200 C.3   362  ILE362      0.1561
    172  C         12.4430   56.7420   40.6800 C.2   362  ILE362      0.2260
    173  O         12.6630   57.3530   41.7260 O.2   362  ILE362     -0.2867
    174  CB        13.1100   58.5640   39.0760 C.3   362  ILE362      0.0252
    175  CG1       12.6140   59.5300   37.9930 C.3   362  ILE362      0.0019
    176  CG2       14.4000   57.8820   38.6280 C.3   362  ILE362      0.0019
    177  CD1       13.5340   60.7070   37.7240 C.3   362  ILE362      0.0001
@<TRIPOS>BOND
     1     7     5    1
     2    20    19    1
     3    17    16    2
     4    16    15    1
     5    18    19    1
     6    18    15    1
     7     1     2    1
     8    19    21    1
     9     5     2    1
    10     5     6    1
    11     3     2    1
    12     3     4    2
    13    15    14    1
    14    14    10   am
    15     8     9    1
    16    10    11    2
    17    10     9    1
    18     9    12    1
    19    50    49    2
    20    53    56    1
    21    53    54    1
    22    53    52    1
    23    56    57    1
    24    76    74    1
    25    54    55    2
    26   177   175    1
    27   175   174    1
    28    12    13    1
    29   123   121    1
    30    49    52   am
    31    49    48    1
    32   176   174    1
    33    57    58   ar
    34    57    59   ar
    35   120   119    2
    36   121   122    1
    37   121   118    1
    38    74    73    1
    39    74    75    1
    40    51    48    1
    41   124   122    1
    42   174   171    1
    43    73    70    1
    44   171   170    1
    45   171   172    1
    46    48    47    1
    47   119   118    1
    48   118   117    1
    49    47    41   am
    50    60    61    1
    51    70    69    1
    52    70    71    1
    53   172   173    2
    54    69    62   am
    55   117   114   am
    56    71    72    2
    57    34    33    2
    58    45    44    2
    59   110   109    2
    60    41    40    1
    61    41    42    2
    62    61    62    1
    63    61    64    1
    64    62    63    2
    65   114   115    2
    66   114   113    1
    67    22    23    1
    68    64    65    1
    69    90    89    1
    70    90    91    1
    71    92    91    1
    72   168   167    2
    73    89    86    1
    74    40    39    1
    75    40    43    1
    76   111   108    1
    77   169   166    1
    78    33    39   am
    79    33    32    1
    80    44    43    1
    81    44    46   am
    82   109   112   am
    83   109   108    1
    84   113   112    1
    85   113   116    1
    86   167   166    1
    87    66    65    1
    88    66    67    1
    89   108   107    1
    90    35    36    1
    91    35    32    1
    92    31    32    1
    93    31    24   am
    94    23    24    1
    95    23    26    1
    96    36    38    1
    97    36    37    1
    98   166   165    1
    99    86    87    1
   100    86    85    1
   101    87    88    2
   102    24    25    2
   103   107   102   am
   104    68    67    1
   105   165   160   am
   106    85    79   am
   107    26    27    1
   108    77    78    1
   109    27    28    1
   110    96    95    2
   111   102   101    1
   112   102   103    2
   113    98    97    1
   114   105   104    1
   115   101   104    1
   116   101   100    1
   117   160   159    1
   118   160   161    2
   119    79    78    1
   120    79    80    2
   121    29    28    2
   122    78    81    1
   123    28    30   am
   124    81    82    1
   125   164   162    1
   126   152   151    2
   127    84    82   am
   128    95   100   am
   129    95    94    1
   130   159   162    1
   131   159   158    1
   132   104   106    1
   133    97    94    1
   134    97    99    1
   135    82    83    2
   136   151   158   am
   137   151   150    1
   138   162   163    1
   139    94    93    1
   140   153   150    1
   141   153   154    1
   142   150   149    1
   143   154   155    1
   144   144   143    2
   145   143   142    1
   146   155   156    1
   147   132   130    1
   148   156   157    1
   149   142   145    1
   150   142   141    1
   151   145   146    1
   152   148   146   am
   153   146   147    2
   154   136   135    2
   155   131   129    1
   156   141   135   am
   157   130   129    1
   158   135   134    1
   159   129   126    1
   160   134   137    1
   161   134   133    1
   162   128   127    2
   163   126   127    1
   164   126   125    1
   165   137   138    1
   166   138   140   am
   167   138   139    2
