@<TRIPOS>MOLECULE
tmp/5lpaA00.pdb
 193 182 0 0 0
SMALL
GASTEIGER

@<TRIPOS>ATOM
      1  N        -37.9930    4.0540   24.2550 N.3    31  TYR31      -0.1227
      2  CA       -37.4440    5.3770   23.8830 C.3    31  TYR31       0.1736
      3  C        -38.3340    5.9280   22.7580 C.2    31  TYR31       0.2596
      4  O        -39.4000    5.3720   22.4740 O.2    31  TYR31      -0.2718
      5  CB       -35.9620    5.2120   23.4720 C.3    31  TYR31       0.0548
      6  CG       -35.7610    4.5080   22.1300 C.ar   31  TYR31      -0.0200
      7  CD1      -35.5560    5.2430   20.9440 C.ar   31  TYR31      -0.0009
      8  CD2      -35.8540    3.1110   22.0270 C.ar   31  TYR31      -0.0009
      9  CE1      -35.4240    4.5910   19.7250 C.ar   31  TYR31       0.0417
     10  CE2      -35.7420    2.4540   20.7880 C.ar   31  TYR31       0.0417
     11  CZ       -35.5580    3.2160   19.6340 C.ar   31  TYR31       0.1957
     12  OH       -35.4720    2.6210   18.3990 O.3    31  TYR31      -0.2866
     13  N        -37.9140    7.0370   22.1400 N.am   32  GLY32      -0.1942
     14  CA       -38.6820    7.6010   21.0300 C.3    32  GLY32       0.2014
     15  C        -39.8570    8.4270   21.5070 C.2    32  GLY32       0.2639
     16  O        -39.9050    8.8420   22.6820 O.2    32  GLY32      -0.2714
     17  N        -40.8120    8.6910   20.6080 N.am   33  SER33      -0.1949
     18  CA       -41.7990    9.7270   20.9260 C.3    33  SER33       0.1924
     19  C        -42.7210    9.3640   22.0970 C.2    33  SER33       0.2314
     20  O        -43.2610   10.2730   22.7420 O.2    33  SER33      -0.2863
     21  CB       -42.6270   10.1160   19.7080 C.3    33  SER33       0.2116
     22  OG       -43.4740    9.0350   19.3400 O.3    33  SER33      -0.2180
     23  N        -44.4180   13.8080   21.4960 N.3    38  GLY38      -0.1225
     24  CA       -44.9550   13.7500   20.1490 C.3    38  GLY38       0.1811
     25  C        -45.5840   12.4210   19.7750 C.2    38  GLY38       0.2280
     26  O        -45.4680   11.9590   18.6410 O.2    38  GLY38      -0.2866
     27  N        -48.1620    6.7810   15.5450 N.3    43  SER43      -0.1202
     28  CA       -46.8220    6.5290   16.0620 C.3    43  SER43       0.2020
     29  C        -46.6600    5.0890   16.5150 C.2    43  SER43       0.2618
     30  O        -47.5870    4.4920   17.0980 O.2    43  SER43      -0.2717
     31  CB       -46.5220    7.4390   17.2440 C.3    43  SER43       0.2103
     32  OG       -46.5250    8.7920   16.8290 O.3    43  SER43      -0.2182
     33  N        -45.4540    4.5580   16.3190 N.am   44  ASP44      -0.1973
     34  CA       -45.1250    3.2330   16.8430 C.3    44  ASP44       0.1709
     35  C        -44.6840    3.3320   18.3030 C.2    44  ASP44       0.2293
     36  O        -44.6280    4.4480   18.8800 O.2    44  ASP44      -0.2864
     37  CB       -44.1390    2.5230   15.9160 C.3    44  ASP44       0.1436
     38  CG       -42.8530    3.3270   15.6800 C.2    44  ASP44       0.3671
     39  OD1      -42.6880    4.4580   16.1840 O.co2  44  ASP44      -0.2456
     40  OD2      -42.0170    2.8200   14.9200 O.co2  44  ASP44      -0.2456
     41  N        -41.2830    2.3940   20.3730 N.3    46  ASP46      -0.1239
     42  CA       -39.8830    2.0840   20.0380 C.3    46  ASP46       0.1674
     43  C        -39.2160    1.3740   21.2030 C.2    46  ASP46       0.2266
     44  O        -39.1310    1.9390   22.3110 O.2    46  ASP46      -0.2867
     45  CB       -39.1510    3.3990   19.7670 C.3    46  ASP46       0.1410
     46  CG       -39.7670    4.1990   18.6100 C.2    46  ASP46       0.3668
     47  OD1      -40.1260    3.6660   17.5780 O.co2  46  ASP46      -0.2456
     48  OD2      -39.7800    5.4080   18.6850 O.co2  46  ASP46      -0.2456
     49  N        -41.8160   -1.2420   17.1070 N.3    83  GLN83      -0.1245
     50  CA       -40.5110   -1.3150   16.4570 C.3    83  GLN83       0.1566
     51  C        -39.5380   -1.8680   17.4840 C.2    83  GLN83       0.2260
     52  O        -39.3850   -1.2960   18.5670 O.2    83  GLN83      -0.2867
     53  CB       -40.0800    0.0610   15.9970 C.3    83  GLN83       0.0367
     54  CG       -38.6390   -0.0230   15.4400 C.3    83  GLN83       0.0905
     55  CD       -38.1690    1.2560   14.8120 C.2    83  GLN83       0.2608
     56  OE1      -38.7700    2.3070   14.9990 O.2    83  GLN83      -0.2717
     57  NE2      -37.0190    1.2020   14.1590 N.am   83  GLN83      -0.0878
     58  N        -27.4590    4.3650   12.0920 N.3   126  ASP126     -0.1239
     59  CA       -28.5400    4.8900   12.9270 C.3   126  ASP126      0.1674
     60  C        -28.4360    4.3780   14.3570 C.2   126  ASP126      0.2266
     61  O        -28.9800    5.0330   15.2610 O.2   126  ASP126     -0.2867
     62  CB       -29.9280    4.5620   12.3580 C.3   126  ASP126      0.1410
     63  CG       -31.0390    5.3370   13.0600 C.2   126  ASP126      0.3668
     64  OD1      -30.9950    6.5970   13.0470 O.co2 126  ASP126     -0.2456
     65  OD2      -31.9270    4.6800   13.6630 O.co2 126  ASP126     -0.2456
     66  N        -27.2430    7.0450   16.5890 N.3   129  LEU129     -0.1231
     67  CA       -28.2780    8.0230   16.9350 C.3   129  LEU129      0.1693
     68  C        -29.2450    7.4380   17.9530 C.2   129  LEU129      0.2591
     69  O        -29.7030    8.1440   18.8500 O.2   129  LEU129     -0.2718
     70  CB       -29.0530    8.4270   15.6720 C.3   129  LEU129      0.0284
     71  CG       -28.1950    9.0600   14.5820 C.3   129  LEU129      0.0019
     72  CD1      -29.1120    9.6390   13.5300 C.3   129  LEU129      0.0001
     73  CD2      -27.2450   10.0940   15.1020 C.3   129  LEU129      0.0001
     74  N        -29.5740    6.1500   17.8160 N.am  130  LEU130     -0.1980
     75  CA       -30.5150    5.4970   18.7270 C.3   130  LEU130      0.1596
     76  C        -29.9690    5.5010   20.1580 C.2   130  LEU130      0.2287
     77  O        -30.6520    5.9550   21.0910 O.2   130  LEU130     -0.2864
     78  CB       -30.7460    4.0680   18.2370 C.3   130  LEU130      0.0297
     79  CG       -31.9350    3.2540   18.6220 C.3   130  LEU130      0.0022
     80  CD1      -32.1220    2.1300   17.5440 C.3   130  LEU130      0.0001
     81  CD2      -31.7080    2.7270   19.9830 C.3   130  LEU130      0.0001
     82  N        -29.8830    9.0020   21.6510 N.3   133  GLN133     -0.1245
     83  CA       -31.1970    9.4610   22.1310 C.3   133  GLN133      0.1566
     84  C        -31.6110    8.7440   23.4090 C.2   133  GLN133      0.2260
     85  O        -32.1870    9.3510   24.3190 O.2   133  GLN133     -0.2867
     86  CB       -32.2520    9.2840   21.0320 C.3   133  GLN133      0.0367
     87  CG       -32.0680   10.3270   19.9550 C.3   133  GLN133      0.0905
     88  CD       -32.8250    9.9630   18.6820 C.2   133  GLN133      0.2608
     89  OE1      -32.2390    9.4050   17.7320 O.2   133  GLN133     -0.2717
     90  NE2      -34.0840   10.3020   18.6260 N.am  133  GLN133     -0.0878
     91  N        -25.0750   11.4130   11.8370 N.3   162  LEU162     -0.1245
     92  CA       -26.1040   12.3800   11.4220 C.3   162  LEU162      0.1561
     93  C        -25.9930   12.6970    9.9340 C.2   162  LEU162      0.2260
     94  O        -27.0070   12.9060    9.2620 O.2   162  LEU162     -0.2867
     95  CB       -25.9150   13.6780   12.2110 C.3   162  LEU162      0.0270
     96  CG       -26.3600   13.6100   13.6690 C.3   162  LEU162      0.0019
     97  CD1      -25.7310   14.7210   14.5250 C.3   162  LEU162      0.0001
     98  CD2      -27.9030   13.6570   13.7550 C.3   162  LEU162      0.0001
     99  N        -27.2660    9.6730    6.4520 N.3   165  PRO165     -0.2116
    100  CA       -28.4870    9.6040    5.6550 C.3   165  PRO165      0.1372
    101  C        -28.5920   10.7720    4.7130 C.2   165  PRO165      0.2244
    102  O        -29.1880   10.6100    3.6430 O.2   165  PRO165     -0.2868
    103  CB       -29.6200    9.5780    6.7020 C.3   165  PRO165      0.0268
    104  CG       -29.0130    9.9390    8.0140 C.3   165  PRO165      0.0207
    105  CD       -27.5250    9.7720    7.9070 C.3   165  PRO165      0.0892
    106  N        -41.7290   11.9770    5.6790 N.3   181  HIS181     -0.1241
    107  CA       -40.7970   11.4680    6.6700 C.3   181  HIS181      0.1621
    108  C        -39.3930   12.0110    6.4270 C.2   181  HIS181      0.2264
    109  O        -38.7110   12.4350    7.3750 O.2   181  HIS181     -0.2867
    110  CB       -40.7640    9.9390    6.6320 C.3   181  HIS181      0.0745
    111  CG       -39.8160    9.3220    7.6650 C.ar  181  HIS181      0.0817
    112  ND1      -40.0150    9.4030    9.0380 N.ar  181  HIS181     -0.2268
    113  CD2      -38.6530    8.6420    7.5060 C.ar  181  HIS181      0.1154
    114  CE1      -39.0290    8.7920    9.6710 C.ar  181  HIS181      0.1986
    115  NE2      -38.1880    8.3170    8.7670 N.ar  181  HIS181     -0.2212
    116  N        -37.2950   14.4200    8.8200 N.3   185  THR185     -0.1218
    117  CA       -36.0240   13.9640    9.3840 C.3   185  THR185      0.1862
    118  C        -34.8680   14.8830    9.0170 C.2   185  THR185      0.2287
    119  O        -34.0020   15.1040    9.8550 O.2   185  THR185     -0.2866
    120  CB       -35.7420   12.5430    8.9280 C.3   185  THR185      0.1770
    121  OG1      -36.8090   11.7040    9.4360 O.3   185  THR185     -0.2211
    122  CG2      -34.4350   11.9710    9.4890 C.3   185  THR185      0.0375
    123  N        -34.9200   17.5260   11.5220 N.3   188  ARG188     -0.1231
    124  CA       -34.3220   17.0630   12.7860 C.3   188  ARG188      0.1694
    125  C        -32.7890   17.0390   12.7090 C.2   188  ARG188      0.2591
    126  O        -32.1160   17.4560   13.6690 O.2   188  ARG188     -0.2718
    127  CB       -34.8470   15.6820   13.1660 C.3   188  ARG188      0.0321
    128  CG       -36.3320   15.7070   13.4630 C.3   188  ARG188      0.0489
    129  CD       -36.8200   14.3180   13.8500 C.3   188  ARG188      0.2205
    130  NE       -36.7610   14.0890   15.3000 N.pl3 188  ARG188     -0.0865
    131  CZ       -37.1870   12.9590   15.8790 C.cat 188  ARG188      0.5346
    132  NH1      -37.5560   11.9200   15.1100 N.pl3 188  ARG188      0.1354
    133  NH2      -37.2410   12.8760   17.2190 N.pl3 188  ARG188      0.1354
    134  N        -32.2230   16.5460   11.5810 N.am  189  ILE189     -0.1980
    135  CA       -30.7570   16.5200   11.4190 C.3   189  ILE189      0.1595
    136  C        -30.1960   17.9340   11.4770 C.2   189  ILE189      0.2287
    137  O        -29.1700   18.1900   12.1230 O.2   189  ILE189     -0.2864
    138  CB       -30.3980   15.7860   10.1260 C.3   189  ILE189      0.0276
    139  CG1      -30.7430   14.3040   10.2700 C.3   189  ILE189      0.0022
    140  CG2      -28.9060   16.0160    9.7780 C.3   189  ILE189      0.0022
    141  CD1      -30.6710   13.5930    8.9310 C.3   189  ILE189      0.0001
    142  N        -30.2140   19.1810   15.0550 N.3   192  THR192     -0.1218
    143  CA       -29.1690   18.5740   15.9000 C.3   192  THR192      0.1862
    144  C        -27.7760   19.0920   15.5480 C.2   192  THR192      0.2287
    145  O        -26.9610   19.3750   16.4480 O.2   192  THR192     -0.2866
    146  CB       -29.2520   17.0470   15.8290 C.3   192  THR192      0.1770
    147  OG1      -30.5580   16.6500   16.2430 O.3   192  THR192     -0.2211
    148  CG2      -28.2320   16.3420   16.7250 C.3   192  THR192      0.0375
    149  N        -31.6100   17.1210   20.5160 N.3   198  PHE198     -0.1227
    150  CA       -32.6070   16.3330   19.8060 C.3   198  PHE198      0.1736
    151  C        -33.9990   16.8610   20.1300 C.2   198  PHE198      0.2596
    152  O        -34.2720   17.2430   21.2740 O.2   198  PHE198     -0.2718
    153  CB       -32.5280   14.8530   20.1980 C.3   198  PHE198      0.0547
    154  CG       -31.2620   14.2030   19.7330 C.ar  198  PHE198     -0.0202
    155  CD1      -31.2320   13.5780   18.4990 C.ar  198  PHE198     -0.0042
    156  CD2      -30.0850   14.2810   20.4880 C.ar  198  PHE198     -0.0042
    157  CE1      -30.0490   13.0260   17.9720 C.ar  198  PHE198     -0.0003
    158  CE2      -28.9140   13.7030   19.9850 C.ar  198  PHE198     -0.0003
    159  CZ       -28.8980   13.0780   18.7320 C.ar  198  PHE198     -0.0000
    160  N        -34.8800   16.8470   19.1350 N.am  199  THR199     -0.1939
    161  CA       -36.2370   17.3790   19.3480 C.3   199  THR199      0.2028
    162  C        -37.2060   16.5790   18.4830 C.2   199  THR199      0.2643
    163  O        -36.7770   15.8030   17.6350 O.2   199  THR199     -0.2714
    164  CB       -36.2980   18.8860   19.0290 C.3   199  THR199      0.1808
    165  OG1      -37.4610   19.4670   19.5990 O.3   199  THR199     -0.2208
    166  CG2      -36.2830   19.2090   17.5170 C.3   199  THR199      0.0379
    167  N        -38.5150   16.7930   18.6670 N.am  200  SER200     -0.1935
    168  CA       -39.5290   16.0110   17.9660 C.3   200  SER200      0.2055
    169  C        -39.6340   16.4590   16.4850 C.2   200  SER200      0.2642
    170  O        -39.1640   17.5330   16.0930 O.2   200  SER200     -0.2714
    171  CB       -40.9030   16.2390   18.6210 C.3   200  SER200      0.2130
    172  OG       -41.3380   17.6070   18.5400 O.3   200  SER200     -0.2179
    173  N        -40.2710   15.6180   15.6590 N.am  201  LYS201     -0.1977
    174  CA       -40.4670   15.9660   14.2580 C.3   201  LYS201      0.1596
    175  C        -41.1480   17.3350   14.1360 C.2   201  LYS201      0.2287
    176  O        -40.7450   18.1830   13.3160 O.2   201  LYS201     -0.2864
    177  CB       -41.2930   14.8520   13.5920 C.3   201  LYS201      0.0298
    178  CG       -40.4980   13.5500   13.3890 C.3   201  LYS201      0.0038
    179  CD       -41.4170   12.3710   12.9970 C.3   201  LYS201      0.0206
    180  CE       -40.5560   11.1220   12.9080 C.3   201  LYS201      0.1093
    181  NZ       -41.3920    9.9140   12.4980 N.3   201  LYS201     -0.1314
    182  N        -48.0800   15.0940    8.5640 N.3   227  TYR227     -0.1241
    183  CA       -47.6760   14.3290    9.7410 C.3   227  TYR227      0.1605
    184  C        -48.6060   14.6020   10.9240 C.2   227  TYR227      0.2264
    185  O        -48.9030   13.6930   11.7060 O.2   227  TYR227     -0.2867
    186  CB       -46.2150   14.6990   10.0780 C.3   227  TYR227      0.0534
    187  CG       -45.7310   13.9360   11.3000 C.ar  227  TYR227     -0.0201
    188  CD1      -45.3880   12.6080   11.2150 C.ar  227  TYR227     -0.0009
    189  CD2      -45.6590   14.5600   12.5420 C.ar  227  TYR227     -0.0009
    190  CE1      -45.0020   11.9000   12.3420 C.ar  227  TYR227      0.0417
    191  CE2      -45.2950   13.8500   13.6830 C.ar  227  TYR227      0.0417
    192  CZ       -44.9820   12.5200   13.5450 C.ar  227  TYR227      0.1957
    193  OH       -44.5870   11.7910   14.6420 O.3   227  TYR227     -0.2866
@<TRIPOS>BOND
     1   102   101    2
     2   101   100    1
     3   100    99    1
     4   100   103    1
     5   106   107    1
     6   108   107    1
     7   108   109    2
     8    99   105    1
     9   110   107    1
    10   110   111    1
    11   103   104    1
    12   113   111   ar
    13   113   115   ar
    14   111   112   ar
    15   105   104    1
    16   182   183    1
    17   115   114   ar
    18   116   117    1
    19   120   117    1
    20   120   121    1
    21   120   122    1
    22   141   139    1
    23   118   117    1
    24   118   119    2
    25   112   114   ar
    26    94    93    2
    27   183   186    1
    28   183   184    1
    29   140   138    1
    30    93    92    1
    31   186   187    1
    32   138   139    1
    33   138   135    1
    34   184   185    2
    35   188   187   ar
    36   188   190   ar
    37   187   189   ar
    38   135   136    1
    39   135   134    1
    40    92    91    1
    41    92    95    1
    42   136   137    2
    43   123   124    1
    44   134   125   am
    45    58    59    1
    46    95    96    1
    47   190   192   ar
    48    62    59    1
    49    62    63    1
    50   181   180    1
    51   189   191   ar
    52   125   124    1
    53   125   126    2
    54   124   127    1
    55   180   179    1
    56    59    60    1
    57   179   178    1
    58    64    63   ar
    59    63    65   ar
    60   127   128    1
    61   176   175    2
    62   178   177    1
    63   128   129    1
    64    72    71    1
    65   192   191   ar
    66   192   193    1
    67   177   174    1
    68    96    98    1
    69    96    97    1
    70   129   130    1
    71   175   174    1
    72    57    55   am
    73   174   173    1
    74    60    61    2
    75    71    73    1
    76    71    70    1
    77    55    56    2
    78    55    54    1
    79    40    38   ar
    80   142   143    1
    81   132   131    1
    82   130   131    2
    83    54    53    1
    84    27    28    1
    85   144   143    1
    86   144   145    2
    87   173   169   am
    88    70    67    1
    89    38    37    1
    90    38    39   ar
    91   146   143    1
    92   146   147    1
    93   146   148    1
    94   131   133    1
    95    37    34    1
    96    53    50    1
    97    28    29    1
    98    28    31    1
    99   170   169    2
   100    33    29   am
   101    33    34    1
   102    50    49    1
   103    50    51    1
   104   169   168    1
   105    29    30    2
   106    66    67    1
   107    32    31    1
   108    34    35    1
   109    67    68    1
   110    51    52    2
   111   166   164    1
   112    80    79    1
   113    47    46   ar
   114   163   162    2
   115    89    88    2
   116    74    68   am
   117    74    75    1
   118    68    69    2
   119   168   171    1
   120   168   167    1
   121   157   155   ar
   122   157   159   ar
   123    78    79    1
   124    78    75    1
   125    35    36    2
   126    12    11    1
   127   162   167   am
   128   162   161    1
   129   155   154   ar
   130   172   171    1
   131    46    48   ar
   132    46    45    1
   133    79    81    1
   134    90    88   am
   135    26    25    2
   136    88    87    1
   137    75    76    1
   138   159   158   ar
   139   164   161    1
   140   164   165    1
   141   160   161    1
   142   160   151   am
   143    22    21    1
   144    11     9   ar
   145    11    10   ar
   146    21    18    1
   147     9     7   ar
   148   154   153    1
   149   154   156   ar
   150    45    42    1
   151    25    24    1
   152   150   151    1
   153   150   153    1
   154   150   149    1
   155    87    86    1
   156   158   156   ar
   157    42    41    1
   158    42    43    1
   159   151   152    2
   160    24    23    1
   161    76    77    2
   162    17    18    1
   163    17    15   am
   164    10     8   ar
   165    18    19    1
   166     7     6   ar
   167    14    15    1
   168    14    13    1
   169    86    83    1
   170    43    44    2
   171    15    16    2
   172    82    83    1
   173     8     6   ar
   174    19    20    2
   175     6     5    1
   176    83    84    1
   177    13     3   am
   178     4     3    2
   179     3     2    1
   180    84    85    2
   181     5     2    1
   182     2     1    1
