@<TRIPOS>MOLECULE
tmp/5lpaA01.pdb
 133 126 0 0 0
SMALL
GASTEIGER

@<TRIPOS>ATOM
      1  N        -45.4540    4.5580   16.3190 N.3    44  ASP44      -0.1239
      2  CA       -45.1250    3.2330   16.8430 C.3    44  ASP44       0.1674
      3  C        -44.6840    3.3320   18.3030 C.2    44  ASP44       0.2266
      4  O        -44.6280    4.4480   18.8800 O.2    44  ASP44      -0.2867
      5  CB       -44.1390    2.5230   15.9160 C.3    44  ASP44       0.1410
      6  CG       -42.8530    3.3270   15.6800 C.2    44  ASP44       0.3668
      7  OD1      -42.6880    4.4580   16.1840 O.co2  44  ASP44      -0.2456
      8  OD2      -42.0170    2.8200   14.9200 O.co2  44  ASP44      -0.2456
      9  N        -41.8160   -1.2420   17.1070 N.3    83  GLN83      -0.1245
     10  CA       -40.5110   -1.3150   16.4570 C.3    83  GLN83       0.1566
     11  C        -39.5380   -1.8680   17.4840 C.2    83  GLN83       0.2260
     12  O        -39.3850   -1.2960   18.5670 O.2    83  GLN83      -0.2867
     13  CB       -40.0800    0.0610   15.9970 C.3    83  GLN83       0.0367
     14  CG       -38.6390   -0.0230   15.4400 C.3    83  GLN83       0.0905
     15  CD       -38.1690    1.2560   14.8120 C.2    83  GLN83       0.2608
     16  OE1      -38.7700    2.3070   14.9990 O.2    83  GLN83      -0.2717
     17  NE2      -37.0190    1.2020   14.1590 N.am   83  GLN83      -0.0878
     18  N        -34.1830   -6.6400   13.4350 N.3   104  GLN104     -0.1245
     19  CA       -35.1250   -5.5210   13.4610 C.3   104  GLN104      0.1566
     20  C        -36.5160   -6.0290   13.1240 C.2   104  GLN104      0.2260
     21  O        -36.7120   -6.6300   12.0590 O.2   104  GLN104     -0.2867
     22  CB       -34.7320   -4.4160   12.4900 C.3   104  GLN104      0.0367
     23  CG       -35.4990   -3.1650   12.7440 C.3   104  GLN104      0.0905
     24  CD       -34.8610   -1.9760   12.1100 C.2   104  GLN104      0.2608
     25  OE1      -34.5980   -1.9760   10.9040 O.2   104  GLN104     -0.2717
     26  NE2      -34.5420   -0.9690   12.9220 N.am  104  GLN104     -0.0878
     27  N        -43.2810   -2.1890    8.6260 N.3   108  TRP108     -0.1241
     28  CA       -42.9330   -2.1070    7.2230 C.3   108  TRP108      0.1605
     29  C        -42.3650   -3.4210    6.6990 C.2   108  TRP108      0.2264
     30  O        -42.2400   -3.5840    5.4850 O.2   108  TRP108     -0.2867
     31  CB       -41.9630   -0.9200    7.0020 C.3   108  TRP108      0.0550
     32  CG       -40.5510   -1.1280    7.5520 C.ar  108  TRP108      0.0003
     33  CD1      -39.4520   -1.5830    6.8500 C.ar  108  TRP108      0.0946
     34  CD2      -40.0990   -0.9230    8.9040 C.ar  108  TRP108      0.0152
     35  NE1      -38.3510   -1.6340    7.6750 N.ar  108  TRP108     -0.2442
     36  CE2      -38.7190   -1.2580    8.9420 C.ar  108  TRP108      0.0810
     37  CE3      -40.7200   -0.4640   10.0740 C.ar  108  TRP108      0.0012
     38  CZ2      -37.9570   -1.1520   10.1010 C.ar  108  TRP108      0.0191
     39  CZ3      -39.9430   -0.3530   11.2280 C.ar  108  TRP108      0.0001
     40  CH2      -38.5820   -0.7290   11.2370 C.ar  108  TRP108      0.0015
     41  N        -34.3920   -9.7700    8.1270 N.3   119  GLU119     -0.1245
     42  CA       -33.1500   -9.0790    7.7890 C.3   119  GLU119      0.1567
     43  C        -32.0220   -9.6750    8.6240 C.2   119  GLU119      0.2260
     44  O        -32.2010   -9.9280    9.8170 O.2   119  GLU119     -0.2867
     45  CB       -33.2630   -7.5800    8.1060 C.3   119  GLU119      0.0388
     46  CG       -34.2910   -6.8100    7.2570 C.3   119  GLU119      0.1160
     47  CD       -34.2170   -5.2850    7.4310 C.2   119  GLU119      0.3649
     48  OE1      -33.8750   -4.7960    8.5420 O.co2 119  GLU119     -0.2457
     49  OE2      -34.5480   -4.5640    6.4580 O.co2 119  GLU119     -0.2457
     50  N        -27.4590    4.3650   12.0920 N.3   126  ASP126     -0.1239
     51  CA       -28.5400    4.8900   12.9270 C.3   126  ASP126      0.1674
     52  C        -28.4360    4.3780   14.3570 C.2   126  ASP126      0.2266
     53  O        -28.9800    5.0330   15.2610 O.2   126  ASP126     -0.2867
     54  CB       -29.9280    4.5620   12.3580 C.3   126  ASP126      0.1410
     55  CG       -31.0390    5.3370   13.0600 C.2   126  ASP126      0.3668
     56  OD1      -30.9950    6.5970   13.0470 O.co2 126  ASP126     -0.2456
     57  OD2      -31.9270    4.6800   13.6630 O.co2 126  ASP126     -0.2456
     58  N        -27.2660    9.6730    6.4520 N.3   165  PRO165     -0.2116
     59  CA       -28.4870    9.6040    5.6550 C.3   165  PRO165      0.1372
     60  C        -28.5920   10.7720    4.7130 C.2   165  PRO165      0.2244
     61  O        -29.1880   10.6100    3.6430 O.2   165  PRO165     -0.2868
     62  CB       -29.6200    9.5780    6.7020 C.3   165  PRO165      0.0268
     63  CG       -29.0130    9.9390    8.0140 C.3   165  PRO165      0.0207
     64  CD       -27.5250    9.7720    7.9070 C.3   165  PRO165      0.0892
     65  N        -29.4370   10.3460    0.6730 N.3   169  TRP169     -0.1241
     66  CA       -30.6110   10.7920   -0.0820 C.3   169  TRP169      0.1605
     67  C        -30.1410   11.6140   -1.2710 C.2   169  TRP169      0.2264
     68  O        -29.5680   12.7070   -1.0940 O.2   169  TRP169     -0.2867
     69  CB       -31.5140   11.6690    0.8020 C.3   169  TRP169      0.0550
     70  CG       -32.2840   10.9360    1.8330 C.ar  169  TRP169      0.0003
     71  CD1      -33.0070    9.7730    1.6620 C.ar  169  TRP169      0.0946
     72  CD2      -32.3820   11.2900    3.2210 C.ar  169  TRP169      0.0152
     73  NE1      -33.5790    9.4050    2.8830 N.ar  169  TRP169     -0.2442
     74  CE2      -33.2070   10.3200    3.8460 C.ar  169  TRP169      0.0810
     75  CE3      -31.8930   12.3610    3.9890 C.ar  169  TRP169      0.0012
     76  CZ2      -33.4840   10.3550    5.2140 C.ar  169  TRP169      0.0191
     77  CZ3      -32.1760   12.3870    5.3570 C.ar  169  TRP169      0.0001
     78  CH2      -32.9830   11.4180    5.9450 C.ar  169  TRP169      0.0015
     79  N        -36.0720    8.4230   -6.6300 N.3   173  ALA173     -0.1231
     80  CA       -36.4170    7.1230   -6.0760 C.3   173  ALA173      0.1694
     81  C        -35.9470    6.9630   -4.6310 C.2   173  ALA173      0.2592
     82  O        -36.5260    6.1510   -3.8860 O.2   173  ALA173     -0.2718
     83  CB       -35.8310    6.0230   -6.9660 C.3   173  ALA173      0.0304
     84  N        -34.8700    7.6600   -4.2350 N.am  174  ASP174     -0.1974
     85  CA       -34.3860    7.5740   -2.8630 C.3   174  ASP174      0.1709
     86  C        -35.4110    8.1100   -1.8700 C.2   174  ASP174      0.2293
     87  O        -35.3630    7.7540   -0.6820 O.2   174  ASP174     -0.2864
     88  CB       -33.0610    8.3630   -2.6990 C.3   174  ASP174      0.1436
     89  CG       -31.8680    7.7460   -3.4490 C.2   174  ASP174      0.3671
     90  OD1      -31.9400    6.5280   -3.7970 O.co2 174  ASP174     -0.2456
     91  OD2      -30.8800    8.5110   -3.7050 O.co2 174  ASP174     -0.2456
     92  N        -39.0250    8.7060   -2.7850 N.3   176  GLN176     -0.1245
     93  CA       -40.4040    8.3340   -3.1020 C.3   176  GLN176      0.1566
     94  C        -40.9450    7.3340   -2.0770 C.2   176  GLN176      0.2260
     95  O        -40.2420    6.3980   -1.6620 O.2   176  GLN176     -0.2867
     96  CB       -40.4440    7.7600   -4.5410 C.3   176  GLN176      0.0367
     97  CG       -41.8180    7.6540   -5.1700 C.3   176  GLN176      0.0905
     98  CD       -42.6310    6.4910   -4.6320 C.2   176  GLN176      0.2608
     99  OE1      -42.0980    5.3940   -4.3720 O.2   176  GLN176     -0.2717
    100  NE2      -43.9320    6.7240   -4.4440 N.am  176  GLN176     -0.0878
    101  N        -41.5770    8.0890    1.0240 N.3   178  ASP178     -0.1239
    102  CA       -41.1900    8.5200    2.3490 C.3   178  ASP178      0.1674
    103  C        -41.0330   10.0410    2.3600 C.2   178  ASP178      0.2266
    104  O        -40.2170   10.5640    3.1110 O.2   178  ASP178     -0.2867
    105  CB       -39.8660    7.8050    2.7810 C.3   178  ASP178      0.1410
    106  CG       -40.0560    6.3040    3.0690 C.2   178  ASP178      0.3668
    107  OD1      -40.8390    5.9240    3.9910 O.co2 178  ASP178     -0.2456
    108  OD2      -39.3630    5.5120    2.4350 O.co2 178  ASP178     -0.2456
    109  N        -41.7290   11.9770    5.6790 N.3   181  HIS181     -0.1226
    110  CA       -40.7970   11.4680    6.6700 C.3   181  HIS181      0.1752
    111  C        -39.3930   12.0110    6.4270 C.2   181  HIS181      0.2595
    112  O        -38.7110   12.4350    7.3750 O.2   181  HIS181     -0.2718
    113  CB       -40.7640    9.9390    6.6320 C.3   181  HIS181      0.0759
    114  CG       -39.8160    9.3220    7.6650 C.ar  181  HIS181      0.0818
    115  ND1      -40.0150    9.4030    9.0380 N.ar  181  HIS181     -0.2268
    116  CD2      -38.6530    8.6420    7.5060 C.ar  181  HIS181      0.1154
    117  CE1      -39.0290    8.7920    9.6710 C.ar  181  HIS181      0.1986
    118  NE2      -38.1880    8.3170    8.7670 N.ar  181  HIS181     -0.2212
    119  N        -38.9430   12.0140    5.1640 N.am  182  ILE182     -0.1980
    120  CA       -37.5810   12.5020    4.8630 C.3   182  ILE182      0.1595
    121  C        -37.4780   14.0020    5.1050 C.2   182  ILE182      0.2287
    122  O        -36.4740   14.4790    5.6760 O.2   182  ILE182     -0.2864
    123  CB       -37.1580   12.0910    3.4540 C.3   182  ILE182      0.0276
    124  CG1      -36.9530   10.5660    3.4620 C.3   182  ILE182      0.0022
    125  CG2      -35.8910   12.8000    2.9660 C.3   182  ILE182      0.0022
    126  CD1      -36.9100    9.9690    2.1050 C.3   182  ILE182      0.0001
    127  N        -37.2950   14.4200    8.8200 N.3   185  THR185     -0.1218
    128  CA       -36.0240   13.9640    9.3840 C.3   185  THR185      0.1862
    129  C        -34.8680   14.8830    9.0170 C.2   185  THR185      0.2287
    130  O        -34.0020   15.1040    9.8550 O.2   185  THR185     -0.2866
    131  CB       -35.7420   12.5430    8.9280 C.3   185  THR185      0.1770
    132  OG1      -36.8090   11.7040    9.4360 O.3   185  THR185     -0.2211
    133  CG2      -34.4350   11.9710    9.4890 C.3   185  THR185      0.0375
@<TRIPOS>BOND
     1    83    80    1
     2    79    80    1
     3    80    81    1
     4    97    98    1
     5    97    96    1
     6    98   100   am
     7    98    99    2
     8    81    84   am
     9    81    82    2
    10    96    93    1
    11    84    85    1
    12    90    89   ar
    13    91    89   ar
    14    89    88    1
    15    93    92    1
    16    93    94    1
    17    85    88    1
    18    85    86    1
    19    94    95    2
    20    86    87    2
    21    67    68    2
    22    67    66    1
    23    66    65    1
    24    66    69    1
    25    69    70    1
    26   101   102    1
    27    71    70   ar
    28    71    73   ar
    29    70    72   ar
    30   126   124    1
    31   102   103    1
    32   102   105    1
    33   103   104    2
    34   108   106   ar
    35   105   106    1
    36    73    74   ar
    37   125   123    1
    38   106   107   ar
    39    72    74   ar
    40    72    75   ar
    41   123   124    1
    42   123   120    1
    43    61    60    2
    44    74    76   ar
    45    75    77   ar
    46    60    59    1
    47   120   121    1
    48   120   119    1
    49   121   122    2
    50   119   111   am
    51    76    78   ar
    52    77    78   ar
    53    30    29    2
    54    59    58    1
    55    59    62    1
    56   109   110    1
    57   111   110    1
    58   111   112    2
    59    58    64    1
    60    49    47   ar
    61   113   110    1
    62   113   114    1
    63    29    28    1
    64    62    63    1
    65    33    32   ar
    66    33    35   ar
    67    31    28    1
    68    31    32    1
    69    28    27    1
    70    46    47    1
    71    46    45    1
    72    47    48   ar
    73   116   114   ar
    74   116   118   ar
    75    32    34   ar
    76   114   115   ar
    77    35    36   ar
    78    42    45    1
    79    42    41    1
    80    42    43    1
    81    64    63    1
    82    43    44    2
    83   118   117   ar
    84   127   128    1
    85    34    36   ar
    86    34    37   ar
    87   131   128    1
    88   131   132    1
    89   131   133    1
    90    36    38   ar
    91   129   128    1
    92   129   130    2
    93   115   117   ar
    94    37    39   ar
    95    38    40   ar
    96    25    24    2
    97    39    40   ar
    98    21    20    2
    99    50    51    1
   100    24    23    1
   101    24    26   am
   102    54    51    1
   103    54    55    1
   104    22    23    1
   105    22    19    1
   106    51    52    1
   107    56    55   ar
   108    55    57   ar
   109    20    19    1
   110    18    19    1
   111    17    15   am
   112    52    53    2
   113    15    16    2
   114    15    14    1
   115     8     6   ar
   116    14    13    1
   117     6     5    1
   118     6     7   ar
   119     5     2    1
   120    13    10    1
   121     1     2    1
   122    10     9    1
   123    10    11    1
   124     2     3    1
   125    11    12    2
   126     3     4    2
