@<TRIPOS>MOLECULE
tmp/5lpbA00.pdb
 145 136 0 0 0
SMALL
GASTEIGER

@<TRIPOS>ATOM
      1  N         33.7950   37.6000   27.6310 N.3    23  ILE23      -0.1231
      2  CA        34.1860   36.2660   28.0910 C.3    23  ILE23       0.1692
      3  C         35.5070   35.7980   27.4800 C.2    23  ILE23       0.2592
      4  O         35.8190   34.6060   27.4880 O.2    23  ILE23      -0.2718
      5  CB        33.1050   35.2110   27.7800 C.3    23  ILE23       0.0266
      6  CG1       32.9340   35.0320   26.2700 C.3    23  ILE23       0.0019
      7  CG2       31.7820   35.5900   28.4370 C.3    23  ILE23       0.0020
      8  CD1       31.9850   33.8900   25.8870 C.3    23  ILE23       0.0001
      9  N         36.2840   36.7410   26.9590 N.am   24  GLY24      -0.1957
     10  CA        37.5690   36.4260   26.3650 C.3    24  GLY24       0.1869
     11  C         38.0370   37.5090   25.4140 C.2    24  GLY24       0.2309
     12  O         37.2290   38.1340   24.7290 O.2    24  GLY24      -0.2863
     13  N         42.8580   37.9100   18.1460 N.3    28  PHE28      -0.1241
     14  CA        41.8160   38.1310   17.1500 C.3    28  PHE28       0.1605
     15  C         40.9030   39.3110   17.4910 C.2    28  PHE28       0.2264
     16  O         40.3770   39.9740   16.5980 O.2    28  PHE28      -0.2867
     17  CB        40.9750   36.8650   16.9950 C.3    28  PHE28       0.0534
     18  CG        40.4140   36.3520   18.2930 C.ar   28  PHE28      -0.0203
     19  CD1       39.1910   36.8090   18.7670 C.ar   28  PHE28      -0.0042
     20  CD2       41.1090   35.4140   19.0410 C.ar   28  PHE28      -0.0042
     21  CE1       38.6770   36.3450   19.9610 C.ar   28  PHE28      -0.0003
     22  CE2       40.5980   34.9440   20.2370 C.ar   28  PHE28      -0.0003
     23  CZ        39.3780   35.4090   20.6970 C.ar   28  PHE28      -0.0000
     24  N         35.4780   38.2760   22.6050 N.3    31  VAL31      -0.1245
     25  CA        34.3160   37.4050   22.5460 C.3    31  VAL31       0.1561
     26  C         33.3750   37.7810   23.6790 C.2    31  VAL31       0.2260
     27  O         33.7950   37.8640   24.8410 O.2    31  VAL31      -0.2867
     28  CB        34.6990   35.9150   22.6560 C.3    31  VAL31       0.0252
     29  CG1       33.4670   35.0400   22.4800 C.3    31  VAL31       0.0019
     30  CG2       35.7580   35.5620   21.6230 C.3    31  VAL31       0.0019
     31  N         27.4150   33.5770   21.5000 N.3    43  ALA43      -0.1245
     32  CA        28.7290   34.1730   21.6870 C.3    43  ALA43       0.1562
     33  C         28.9620   35.1080   20.5190 C.2    43  ALA43       0.2260
     34  O         28.7020   34.7470   19.3710 O.2    43  ALA43      -0.2867
     35  CB        29.8330   33.1070   21.7600 C.3    43  ALA43       0.0290
     36  N         31.7940   37.3330   18.6080 N.3    45  LYS45      -0.1245
     37  CA        33.2010   37.6300   18.4440 C.3    45  LYS45       0.1561
     38  C         33.3500   38.9650   17.7460 C.2    45  LYS45       0.2260
     39  O         32.8240   39.1590   16.6510 O.2    45  LYS45      -0.2867
     40  CB        33.9110   36.5330   17.6410 C.3    45  LYS45       0.0271
     41  CG        35.4210   36.7340   17.5210 C.3    45  LYS45       0.0035
     42  CD        36.0820   35.6890   16.6000 C.3    45  LYS45       0.0206
     43  CE        36.0210   34.2750   17.1640 C.3    45  LYS45       0.1093
     44  NZ        36.8460   33.3150   16.3480 N.3    45  LYS45      -0.1314
     45  N         31.1950   24.1680   15.7950 N.3    74  VAL74      -0.1245
     46  CA        30.4260   25.2700   16.3790 C.3    74  VAL74       0.1561
     47  C         29.5530   25.8820   15.2920 C.2    74  VAL74       0.2260
     48  O         30.0120   26.1110   14.1750 O.2    74  VAL74      -0.2867
     49  CB        31.3240   26.3610   17.0130 C.3    74  VAL74       0.0252
     50  CG1       32.1730   27.0560   15.9510 C.3    74  VAL74       0.0019
     51  CG2       30.4710   27.3920   17.7520 C.3    74  VAL74       0.0019
     52  N         27.8780   33.1320   17.2250 N.3    90  TYR90      -0.1227
     53  CA        27.8160   31.6840   17.3440 C.3    90  TYR90       0.1736
     54  C         26.7960   31.2790   18.3760 C.2    90  TYR90       0.2595
     55  O         26.5100   32.0390   19.3010 O.2    90  TYR90      -0.2718
     56  CB        29.1710   31.1040   17.7610 C.3    90  TYR90       0.0548
     57  CG        30.3550   31.6300   17.0030 C.ar   90  TYR90      -0.0200
     58  CD1       30.9770   32.8160   17.3840 C.ar   90  TYR90      -0.0009
     59  CD2       30.8790   30.9280   15.9230 C.ar   90  TYR90      -0.0009
     60  CE1       32.0790   33.2950   16.6970 C.ar   90  TYR90       0.0417
     61  CE2       31.9830   31.4020   15.2300 C.ar   90  TYR90       0.0417
     62  CZ        32.5750   32.5870   15.6210 C.ar   90  TYR90       0.1957
     63  OH        33.6710   33.0640   14.9380 O.3    90  TYR90      -0.2866
     64  N         26.2700   30.0660   18.2430 N.am   91  GLU91      -0.1965
     65  CA        25.4840   29.4940   19.3180 C.3    91  GLU91       0.1733
     66  C         26.3790   29.4030   20.5440 C.2    91  GLU91       0.2616
     67  O         27.5420   29.0020   20.4450 O.2    91  GLU91      -0.2715
     68  CB        24.9370   28.1150   18.9330 C.3    91  GLU91       0.0429
     69  CG        24.0090   27.5070   19.9660 C.3    91  GLU91       0.1163
     70  CD        23.5560   26.1050   19.5920 C.2    91  GLU91       0.3649
     71  OE1       23.2610   25.8690   18.3990 O.co2  91  GLU91      -0.2457
     72  OE2       23.5050   25.2360   20.4890 O.co2  91  GLU91      -0.2457
     73  N         25.8470   29.7940   21.6970 N.am   92  PHE92      -0.1960
     74  CA        26.6340   29.7650   22.9200 C.3    92  PHE92       0.1771
     75  C         26.8500   28.3290   23.4020 C.2    92  PHE92       0.2619
     76  O         25.9060   27.5560   23.5270 O.2    92  PHE92      -0.2715
     77  CB        25.9620   30.5920   24.0210 C.3    92  PHE92       0.0574
     78  CG        26.7800   30.6930   25.2830 C.ar   92  PHE92      -0.0200
     79  CD1       27.8460   31.5770   25.3660 C.ar   92  PHE92      -0.0042
     80  CD2       26.4880   29.9010   26.3800 C.ar   92  PHE92      -0.0042
     81  CE1       28.6070   31.6710   26.5240 C.ar   92  PHE92      -0.0003
     82  CE2       27.2400   29.9910   27.5410 C.ar   92  PHE92      -0.0003
     83  CZ        28.3010   30.8760   27.6120 C.ar   92  PHE92      -0.0000
     84  N         28.1040   27.9920   23.6760 N.am   93  MET93      -0.1977
     85  CA        28.4600   26.6680   24.1520 C.3    93  MET93       0.1605
     86  C         28.6120   26.6860   25.6660 C.2    93  MET93       0.2287
     87  O         29.5220   27.3230   26.1980 O.2    93  MET93      -0.2864
     88  CB        29.7450   26.1990   23.4690 C.3    93  MET93       0.0413
     89  CG        29.6260   26.0970   21.9460 C.3    93  MET93       0.0598
     90  SD        28.5750   24.7250   21.3940 S.3    93  MET93      -0.1393
     91  CE        26.9980   25.5210   21.1200 C.3    93  MET93       0.0692
     92  N         32.0360   26.2790   27.6950 N.3    96  GLY96      -0.1210
     93  CA        33.2200   26.9490   27.1870 C.3    96  GLY96       0.1956
     94  C         34.2070   26.0120   26.5150 C.2    96  GLY96       0.2612
     95  O         33.8180   25.0010   25.9280 O.2    96  GLY96      -0.2717
     96  N         35.4910   26.3410   26.6080 N.am   97  SER97      -0.1952
     97  CA        36.5160   25.5780   25.9070 C.3    97  SER97       0.1924
     98  C         37.0340   24.4160   26.7370 C.2    97  SER97       0.2314
     99  O         36.9740   24.4300   27.9680 O.2    97  SER97      -0.2863
    100  CB        37.6850   26.4820   25.5050 C.3    97  SER97       0.2116
    101  OG        38.5630   26.7080   26.5960 O.3    97  SER97      -0.2180
    102  N         39.6720   25.5550   29.1180 N.3   100  ASP100     -0.1239
    103  CA        39.1390   26.1430   30.3430 C.3   100  ASP100      0.1674
    104  C         38.8580   25.0590   31.3710 C.2   100  ASP100      0.2266
    105  O         39.2470   25.1690   32.5330 O.2   100  ASP100     -0.2867
    106  CB        37.8590   26.9340   30.0620 C.3   100  ASP100      0.1410
    107  CG        38.1190   28.2110   29.2900 C.2   100  ASP100      0.3668
    108  OD1       39.2540   28.7290   29.3710 O.co2 100  ASP100     -0.2456
    109  OD2       37.1880   28.6980   28.6070 O.co2 100  ASP100     -0.2456
    110  N         41.7280   25.0670   23.1940 N.3   144  SER144     -0.1202
    111  CA        40.9080   26.2650   23.3590 C.3   144  SER144      0.2020
    112  C         39.9290   26.4200   22.1940 C.2   144  SER144      0.2618
    113  O         39.0060   27.2220   22.2570 O.2   144  SER144     -0.2717
    114  CB        41.7840   27.5200   23.4930 C.3   144  SER144      0.2103
    115  OG        42.4260   27.8440   22.2720 O.3   144  SER144     -0.2182
    116  N         40.1330   25.6430   21.1350 N.am  145  ASN145     -0.1974
    117  CA        39.2600   25.6910   19.9670 C.3   145  ASN145      0.1688
    118  C         38.3710   24.4550   19.8690 C.2   145  ASN145      0.2292
    119  O         37.7860   24.1750   18.8270 O.2   145  ASN145     -0.2864
    120  CB        40.0870   25.8550   18.6870 C.3   145  ASN145      0.1181
    121  CG        40.5690   27.2790   18.4970 C.2   145  ASN145      0.2629
    122  OD1       40.0780   28.1820   19.1540 O.2   145  ASN145     -0.2716
    123  ND2       41.5150   27.4860   17.5900 N.am  145  ASN145     -0.0877
    124  N         35.0960   23.4320   21.7080 N.3   147  LEU147     -0.1245
    125  CA        34.0860   23.9170   22.6430 C.3   147  LEU147      0.1561
    126  C         33.1950   22.7710   23.1140 C.2   147  LEU147      0.2260
    127  O         33.0770   21.7510   22.4350 O.2   147  LEU147     -0.2867
    128  CB        33.2390   25.0260   22.0040 C.3   147  LEU147      0.0270
    129  CG        34.0270   26.2250   21.4660 C.3   147  LEU147      0.0019
    130  CD1       33.0900   27.3510   21.0240 C.3   147  LEU147      0.0001
    131  CD2       35.0260   26.7230   22.5010 C.3   147  LEU147      0.0001
    132  N         35.8470   24.9100   16.7740 N.3   157  SER157     -0.1202
    133  CA        35.6340   26.3270   16.5070 C.3   157  SER157      0.2020
    134  C         36.9010   27.0170   16.0150 C.2   157  SER157      0.2618
    135  O         37.9630   26.3950   15.9150 O.2   157  SER157     -0.2717
    136  CB        35.1320   27.0330   17.7670 C.3   157  SER157      0.2103
    137  OG        36.0630   26.8940   18.8230 O.3   157  SER157     -0.2182
    138  N         36.7580   28.3110   15.7360 N.am  158  ASP158     -0.1973
    139  CA        37.8300   29.2160   15.2930 C.3   158  ASP158      0.1709
    140  C         38.4150   28.8050   13.9460 C.2   158  ASP158      0.2293
    141  O         39.4690   28.1650   13.8640 O.2   158  ASP158     -0.2864
    142  CB        38.9390   29.3170   16.3420 C.3   158  ASP158      0.1436
    143  CG        39.7310   30.6140   16.2280 C.2   158  ASP158      0.3671
    144  OD1       39.6990   31.2440   15.1470 O.co2 158  ASP158     -0.2456
    145  OD2       40.3770   31.0080   17.2230 O.co2 158  ASP158     -0.2456
@<TRIPOS>BOND
     1   141   140    2
     2   140   139    1
     3    48    47    2
     4    63    62    1
     5   144   143   ar
     6    61    62   ar
     7    61    59   ar
     8    47    46    1
     9   139   138    1
    10   139   142    1
    11    62    60   ar
    12   138   134   am
    13    45    46    1
    14   135   134    2
    15    59    57   ar
    16    50    49    1
    17   134   133    1
    18   143   142    1
    19   143   145   ar
    20    44    43    1
    21    46    49    1
    22   133   132    1
    23   133   136    1
    24    16    15    2
    25    42    43    1
    26    42    41    1
    27    39    38    2
    28    60    58   ar
    29    17    14    1
    30    17    18    1
    31    57    58   ar
    32    57    56    1
    33    49    51    1
    34    14    15    1
    35    14    13    1
    36    52    53    1
    37    53    56    1
    38    53    54    1
    39    41    40    1
    40   123   121   am
    41    40    37    1
    42    38    37    1
    43   136   137    1
    44    64    54   am
    45    64    65    1
    46    18    19   ar
    47    18    20   ar
    48    54    55    2
    49    71    70   ar
    50    37    36    1
    51   121   120    1
    52   121   122    2
    53   120   117    1
    54    19    21   ar
    55   119   118    2
    56    68    65    1
    57    68    69    1
    58    20    22   ar
    59    65    66    1
    60    34    33    2
    61    70    69    1
    62    70    72   ar
    63   118   117    1
    64    21    23   ar
    65   117   116    1
    66    22    23   ar
    67    67    66    2
    68    33    32    1
    69    66    73   am
    70   130   129    1
    71    91    90    1
    72   116   112   am
    73    90    89    1
    74   129   128    1
    75   129   131    1
    76    31    32    1
    77    30    28    1
    78    32    35    1
    79    73    74    1
    80   124   125    1
    81    89    88    1
    82   128   125    1
    83   112   113    2
    84   112   111    1
    85   115   114    1
    86   127   126    2
    87    29    28    1
    88    25    24    1
    89    25    28    1
    90    25    26    1
    91   125   126    1
    92    74    75    1
    93    74    77    1
    94   110   111    1
    95   111   114    1
    96    75    76    2
    97    75    84   am
    98    88    85    1
    99    84    85    1
   100    26    27    2
   101    77    78    1
   102    85    86    1
   103    12    11    2
   104    78    79   ar
   105    78    80   ar
   106    79    81   ar
   107    11    10    1
   108   100    97    1
   109   100   101    1
   110    86    87    2
   111     8     6    1
   112    97    96    1
   113    97    98    1
   114    95    94    2
   115     6     5    1
   116    10     9    1
   117    80    82   ar
   118    94    96   am
   119    94    93    1
   120    81    83   ar
   121    98    99    2
   122     9     3   am
   123    93    92    1
   124     3     4    2
   125     3     2    1
   126    82    83   ar
   127     1     2    1
   128     5     2    1
   129     5     7    1
   130   109   107   ar
   131   102   103    1
   132   107   108   ar
   133   107   106    1
   134   106   103    1
   135   103   104    1
   136   104   105    2
