@<TRIPOS>MOLECULE
tmp/5lpkD00.pdb
 141 134 0 0 0
SMALL
GASTEIGER

@<TRIPOS>ATOM
      1  N        125.4730  -69.5140  178.5460 N.3    27  LEU27      -0.1231
      2  CA       125.1560  -68.4260  177.6090 C.3    27  LEU27       0.1678
      3  C        125.8990  -67.1270  177.9000 C.2    27  LEU27       0.2434
      4  O        126.3940  -66.4880  176.9820 O.2    27  LEU27      -0.2733
      5  CB       123.6510  -68.1650  177.5340 C.3    27  LEU27       0.0284
      6  CG       122.7620  -69.3540  177.1630 C.3    27  LEU27       0.0019
      7  CD1      121.3560  -68.8690  176.8550 C.3    27  LEU27       0.0001
      8  CD2      123.3140  -70.1820  176.0210 C.3    27  LEU27       0.0001
      9  N        126.0070  -66.7440  179.1800 N.am   28  PRO28      -0.2718
     10  CA       126.8110  -65.5640  179.5180 C.3    28  PRO28       0.1535
     11  C        128.2950  -65.6560  179.2010 C.2    28  PRO28       0.2598
     12  O        128.9710  -64.6270  179.1830 O.2    28  PRO28      -0.2715
     13  CB       126.6750  -65.4700  181.0440 C.3    28  PRO28       0.0310
     14  CG       125.4430  -66.2190  181.3730 C.3    28  PRO28       0.0237
     15  CD       125.2980  -67.2910  180.3480 C.3    28  PRO28       0.0939
     16  N        128.8020  -66.8740  179.0430 N.am   29  PHE29      -0.1974
     17  CA       130.2160  -67.1410  178.9040 C.3    29  PHE29       0.1639
     18  C        130.6270  -67.5400  177.4970 C.2    29  PHE29       0.2290
     19  O        131.7750  -67.8770  177.2600 O.2    29  PHE29      -0.2864
     20  CB       130.6100  -68.2220  179.8980 C.3    29  PHE29       0.0560
     21  CG       130.3340  -67.8280  181.3190 C.ar   29  PHE29      -0.0200
     22  CD1      131.2600  -67.0800  182.0290 C.ar   29  PHE29      -0.0042
     23  CD2      129.1200  -68.1420  181.9100 C.ar   29  PHE29      -0.0042
     24  CE1      130.9930  -66.6970  183.3350 C.ar   29  PHE29      -0.0003
     25  CE2      128.8430  -67.7700  183.2160 C.ar   29  PHE29      -0.0003
     26  CZ       129.7750  -67.0400  183.9330 C.ar   29  PHE29      -0.0000
     27  N        130.7610  -65.6850  174.7900 N.3    31  GLN31      -0.1245
     28  CA       131.4370  -64.6350  174.0720 C.3    31  GLN31       0.1566
     29  C        132.1240  -63.7370  175.0790 C.2    31  GLN31       0.2260
     30  O        131.7400  -63.7230  176.2340 O.2    31  GLN31      -0.2867
     31  CB       130.4380  -63.8030  173.2600 C.3    31  GLN31       0.0367
     32  CG       129.3390  -63.1670  174.0990 C.3    31  GLN31       0.0905
     33  CD       128.3050  -64.1780  174.5670 C.2    31  GLN31       0.2608
     34  OE1      127.7370  -64.8920  173.7550 O.2    31  GLN31      -0.2717
     35  NE2      128.0410  -64.2270  175.8610 N.am   31  GLN31      -0.0878
     36  N        132.8040  -60.6570  177.3390 N.3    33  VAL33      -0.1245
     37  CA       132.0530  -59.5470  177.8920 C.3    33  VAL33       0.1561
     38  C        132.2940  -58.2800  177.0770 C.2    33  VAL33       0.2260
     39  O        133.4290  -57.8100  176.9450 O.2    33  VAL33      -0.2867
     40  CB       132.4560  -59.2580  179.3570 C.3    33  VAL33       0.0252
     41  CG1      131.7500  -58.0070  179.8650 C.3    33  VAL33       0.0019
     42  CG2      132.1240  -60.4430  180.2500 C.3    33  VAL33       0.0019
     43  N        126.6410  -54.4990  177.0330 N.3    38  LEU38      -0.1245
     44  CA       126.0150  -54.8250  178.3020 C.3    38  LEU38       0.1561
     45  C        125.7550  -53.6170  179.1970 C.2    38  LEU38       0.2260
     46  O        125.1890  -53.7630  180.2770 O.2    38  LEU38      -0.2867
     47  CB       126.8840  -55.8330  179.0490 C.3    38  LEU38       0.0270
     48  CG       126.9890  -57.1730  178.3460 C.3    38  LEU38       0.0019
     49  CD1      128.0810  -57.9910  178.9950 C.3    38  LEU38       0.0001
     50  CD2      125.6560  -57.9130  178.3540 C.3    38  LEU38       0.0001
     51  N        127.8130  -51.7750  181.0180 N.3    40  ILE40      -0.1245
     52  CA       128.5500  -51.8160  182.2820 C.3    40  ILE40       0.1561
     53  C        129.9270  -51.1820  182.1110 C.2    40  ILE40       0.2260
     54  O        130.9280  -51.8810  181.9540 O.2    40  ILE40      -0.2867
     55  CB       128.6790  -53.2580  182.8310 C.3    40  ILE40       0.0252
     56  CG1      129.1660  -54.2430  181.7500 C.3    40  ILE40       0.0019
     57  CG2      127.3430  -53.7070  183.4000 C.3    40  ILE40       0.0019
     58  CD1      129.3290  -55.6730  182.2400 C.3    40  ILE40       0.0001
     59  N        133.4850  -52.3040  183.9750 N.3    43  TYR43      -0.1241
     60  CA       133.8790  -53.6940  184.0150 C.3    43  TYR43       0.1605
     61  C        135.3990  -53.8730  184.1100 C.2    43  TYR43       0.2264
     62  O        135.8820  -54.7180  184.8850 O.2    43  TYR43      -0.2867
     63  CB       133.3280  -54.4450  182.8040 C.3    43  TYR43       0.0534
     64  CG       133.6620  -55.9140  182.8280 C.ar   43  TYR43      -0.0201
     65  CD1      133.0100  -56.7810  183.6980 C.ar   43  TYR43      -0.0009
     66  CD2      134.6640  -56.4390  181.9910 C.ar   43  TYR43      -0.0009
     67  CE1      133.3280  -58.1210  183.7340 C.ar   43  TYR43       0.0417
     68  CE2      134.9680  -57.7970  181.9980 C.ar   43  TYR43       0.0417
     69  CZ       134.3020  -58.6310  182.8800 C.ar   43  TYR43       0.1957
     70  OH       134.5960  -59.9760  182.9110 O.3    43  TYR43      -0.2866
     71  N        138.2540  -63.2500  180.0840 N.3    51  MET51      -0.1245
     72  CA       138.3550  -64.5660  179.4920 C.3    51  MET51       0.1570
     73  C        136.9540  -65.1160  179.3180 C.2    51  MET51       0.2261
     74  O        136.0330  -64.7720  180.0940 O.2    51  MET51      -0.2867
     75  CB       139.1920  -65.5130  180.3670 C.3    51  MET51       0.0387
     76  CG       139.5910  -66.8300  179.7010 C.3    51  MET51       0.0595
     77  SD       140.2250  -66.6620  178.0090 S.3    51  MET51      -0.1393
     78  CE       141.7540  -65.7610  178.2770 C.3    51  MET51       0.0692
     79  N        138.2240  -67.2340  183.9050 N.3    78  MET78      -0.1245
     80  CA       136.8870  -66.8820  183.4720 C.3    78  MET78       0.1570
     81  C        135.8960  -66.9180  184.6420 C.2    78  MET78       0.2261
     82  O        135.0790  -65.9960  184.8060 O.2    78  MET78      -0.2867
     83  CB       136.4220  -67.8430  182.3910 C.3    78  MET78       0.0387
     84  CG       134.9920  -67.6370  181.9070 C.3    78  MET78       0.0595
     85  SD       134.5200  -68.8240  180.6240 S.3    78  MET78      -0.1393
     86  CE       134.2320  -70.2670  181.6370 C.3    78  MET78       0.0692
     87  N        133.9130  -63.6610  186.8490 N.3    82  ALA82      -0.1245
     88  CA       132.4730  -63.5710  187.0170 C.3    82  ALA82       0.1562
     89  C        132.1100  -63.4670  188.4880 C.2    82  ALA82       0.2260
     90  O        131.2570  -62.6660  188.8510 O.2    82  ALA82      -0.2867
     91  CB       131.7780  -64.7570  186.3790 C.3    82  ALA82       0.0290
     92  N        133.1850  -59.8150  189.8170 N.3    85  TYR85      -0.1227
     93  CA       132.4320  -58.6500  189.3640 C.3    85  TYR85       0.1736
     94  C        130.9750  -58.6880  189.8030 C.2    85  TYR85       0.2595
     95  O        130.4150  -57.6650  190.1300 O.2    85  TYR85      -0.2718
     96  CB       132.4910  -58.4950  187.8280 C.3    85  TYR85       0.0548
     97  CG       131.7530  -57.2680  187.3370 C.ar   85  TYR85      -0.0200
     98  CD1      132.3500  -56.0160  187.3860 C.ar   85  TYR85      -0.0009
     99  CD2      130.4340  -57.3490  186.8800 C.ar   85  TYR85      -0.0009
    100  CE1      131.6710  -54.8790  186.9840 C.ar   85  TYR85       0.0417
    101  CE2      129.7470  -56.2130  186.4660 C.ar   85  TYR85       0.0417
    102  CZ       130.3770  -54.9800  186.5220 C.ar   85  TYR85       0.1957
    103  OH       129.7140  -53.8420  186.1210 O.3    85  TYR85      -0.2866
    104  N        130.3520  -59.8580  189.7810 N.am   86  ASN86      -0.1974
    105  CA       128.8930  -59.9520  189.9210 C.3    86  ASN86       0.1688
    106  C        128.4560  -60.2560  191.3600 C.2    86  ASN86       0.2292
    107  O        129.1810  -60.9020  192.1050 O.2    86  ASN86      -0.2864
    108  CB       128.3490  -61.0190  188.9800 C.3    86  ASN86       0.1181
    109  CG       128.7090  -60.7620  187.5240 C.2    86  ASN86       0.2629
    110  OD1      128.0530  -59.9830  186.8370 O.2    86  ASN86      -0.2716
    111  ND2      129.7620  -61.4240  187.0470 N.am   86  ASN86      -0.0877
    112  N        122.3370  -63.6580  188.3200 N.3    91  ARG91      -0.1231
    113  CA       122.3010  -64.7340  187.3260 C.3    91  ARG91       0.1694
    114  C        123.6990  -65.2140  186.8920 C.2    91  ARG91       0.2591
    115  O        124.0090  -66.4130  186.9190 O.2    91  ARG91      -0.2718
    116  CB       121.5410  -64.2980  186.0790 C.3    91  ARG91       0.0321
    117  CG       121.1430  -65.4850  185.2200 C.3    91  ARG91       0.0489
    118  CD       120.9740  -65.1090  183.7720 C.3    91  ARG91       0.2205
    119  NE       119.9990  -64.0460  183.6170 N.pl3  91  ARG91      -0.0865
    120  CZ       118.7060  -64.2350  183.4010 C.cat  91  ARG91       0.5346
    121  NH1      118.2150  -65.4630  183.3010 N.pl3  91  ARG91       0.1354
    122  NH2      117.8970  -63.1880  183.2910 N.pl3  91  ARG91       0.1354
    123  N        124.5490  -64.2740  186.5160 N.am   92  VAL92      -0.1980
    124  CA       125.8620  -64.6530  186.0040 C.3    92  VAL92       0.1595
    125  C        126.7020  -65.3600  187.0720 C.2    92  VAL92       0.2287
    126  O        127.3880  -66.3500  186.7870 O.2    92  VAL92      -0.2864
    127  CB       126.5870  -63.4440  185.4000 C.3    92  VAL92       0.0276
    128  CG1      128.0110  -63.7890  185.0400 C.3    92  VAL92       0.0022
    129  CG2      125.8480  -62.9820  184.1480 C.3    92  VAL92       0.0022
    130  N        125.1560  -68.9010  187.5340 N.3    95  TYR95      -0.1241
    131  CA       125.4530  -69.6710  186.3270 C.3    95  TYR95       0.1605
    132  C        126.9160  -70.0980  186.3400 C.2    95  TYR95       0.2264
    133  O        127.2330  -71.2500  186.0360 O.2    95  TYR95      -0.2867
    134  CB       125.1500  -68.8510  185.0750 C.3    95  TYR95       0.0534
    135  CG       123.6810  -68.7750  184.6750 C.ar   95  TYR95      -0.0201
    136  CD1      122.6550  -69.1480  185.5470 C.ar   95  TYR95      -0.0009
    137  CD2      123.3230  -68.2940  183.4160 C.ar   95  TYR95      -0.0009
    138  CE1      121.3110  -69.0760  185.1560 C.ar   95  TYR95       0.0417
    139  CE2      122.0040  -68.2160  183.0160 C.ar   95  TYR95       0.0417
    140  CZ       120.9990  -68.5990  183.8820 C.ar   95  TYR95       0.1957
    141  OH       119.7110  -68.4900  183.4720 O.3    95  TYR95      -0.2866
@<TRIPOS>BOND
     1    31    28    1
     2    31    32    1
     3    34    33    2
     4    28    27    1
     5    28    29    1
     6    32    33    1
     7    33    35   am
     8    29    30    2
     9     8     6    1
    10     7     6    1
    11    39    38    2
    12     4     3    2
    13    43    44    1
    14    38    37    1
    15     6     5    1
    16    19    18    2
    17    36    37    1
    18    18    17    1
    19     5     2    1
    20     2     3    1
    21     2     1    1
    22    37    40    1
    23     3     9   am
    24    77    78    1
    25    77    76    1
    26    44    47    1
    27    44    45    1
    28    48    50    1
    29    48    49    1
    30    48    47    1
    31    17    16    1
    32    17    20    1
    33    16    11   am
    34     9    10    1
    35     9    15    1
    36    12    11    2
    37    45    46    2
    38    11    10    1
    39    73    72    1
    40    73    74    2
    41    40    41    1
    42    40    42    1
    43    72    71    1
    44    72    75    1
    45    10    13    1
    46    76    75    1
    47    20    21    1
    48    15    14    1
    49    85    86    1
    50    85    84    1
    51    51    52    1
    52    13    14    1
    53    21    23   ar
    54    21    22   ar
    55    56    58    1
    56    56    55    1
    57    84    83    1
    58    23    25   ar
    59    54    53    2
    60    66    68   ar
    61    66    64   ar
    62    68    69   ar
    63    22    24   ar
    64    53    52    1
    65    52    55    1
    66    83    80    1
    67    63    64    1
    68    63    60    1
    69    64    65   ar
    70    55    57    1
    71    69    70    1
    72    69    67   ar
    73   139   137   ar
    74   139   140   ar
    75    25    26   ar
    76   122   120    1
    77   121   120    1
    78    24    26   ar
    79   120   119    2
    80   137   135   ar
    81   141   140    1
    82    80    79    1
    83    80    81    1
    84   119   118    1
    85    65    67   ar
    86   118   117    1
    87   140   138   ar
    88    59    60    1
    89    60    61    1
    90    61    62    2
    91   129   127    1
    92    81    82    2
    93   135   134    1
    94   135   136   ar
    95   128   127    1
    96   134   131    1
    97   138   136   ar
    98   117   116    1
    99   127   124    1
   100   124   123    1
   101   124   125    1
   102   133   132    2
   103   116   113    1
   104   103   102    1
   105   131   132    1
   106   131   130    1
   107    91    88    1
   108   101   102   ar
   109   101    99   ar
   110   123   114   am
   111   102   100   ar
   112   126   125    2
   113   110   109    2
   114    87    88    1
   115    99    97   ar
   116   114   115    2
   117   114   113    1
   118   100    98   ar
   119    88    89    1
   120   111   109   am
   121   113   112    1
   122    97    98   ar
   123    97    96    1
   124   109   108    1
   125    96    93    1
   126    89    90    2
   127   108   105    1
   128    93    94    1
   129    93    92    1
   130   104    94   am
   131   104   105    1
   132    94    95    2
   133   105   106    1
   134   106   107    2
