@<TRIPOS>MOLECULE
tmp/5lplA00.pdb
 140 134 0 0 0
SMALL
GASTEIGER

@<TRIPOS>ATOM
      1  N        103.7540  -37.3430   15.0040 N.3    31  LEU31      -0.1231
      2  CA       102.6260  -38.2080   15.3360 C.3    31  LEU31       0.1678
      3  C        101.6550  -37.5880   16.3340 C.2    31  LEU31       0.2434
      4  O        100.4350  -37.7340   16.1340 O.2    31  LEU31      -0.2733
      5  CB       103.1500  -39.5540   15.8460 C.3    31  LEU31       0.0284
      6  CG       103.8910  -40.3880   14.8000 C.3    31  LEU31       0.0019
      7  CD1      104.2400  -41.7340   15.3850 C.3    31  LEU31       0.0001
      8  CD2      103.0470  -40.5600   13.5450 C.3    31  LEU31       0.0001
      9  N        102.0950  -36.9080   17.3980 N.am   32  PRO32      -0.2718
     10  CA       101.1250  -36.3210   18.3410 C.3    32  PRO32       0.1535
     11  C        100.3880  -35.1320   17.7830 C.2    32  PRO32       0.2598
     12  O         99.4410  -34.6630   18.4410 O.2    32  PRO32      -0.2715
     13  CB       101.9740  -35.9060   19.5410 C.3    32  PRO32       0.0310
     14  CG       103.4030  -35.9030   19.0620 C.3    32  PRO32       0.0237
     15  CD       103.4900  -36.7610   17.8350 C.3    32  PRO32       0.0939
     16  N        100.7390  -34.6690   16.5810 N.am   33  PHE33      -0.1974
     17  CA       100.1610  -33.4680   15.9990 C.3    33  PHE33       0.1639
     18  C         99.3140  -33.7500   14.7710 C.2    33  PHE33       0.2290
     19  O         98.7350  -32.8130   14.2120 O.2    33  PHE33      -0.2864
     20  CB       101.2730  -32.4750   15.6470 C.3    33  PHE33       0.0560
     21  CG       102.0900  -32.0890   16.8310 C.ar   33  PHE33      -0.0200
     22  CD1      101.5910  -31.1870   17.7570 C.ar   33  PHE33      -0.0042
     23  CD2      103.3290  -32.6870   17.0710 C.ar   33  PHE33      -0.0042
     24  CE1      102.3330  -30.8530   18.8820 C.ar   33  PHE33      -0.0003
     25  CE2      104.0710  -32.3560   18.1940 C.ar   33  PHE33      -0.0003
     26  CZ       103.5640  -31.4450   19.1010 C.ar   33  PHE33      -0.0000
     27  N         96.4700  -35.2500   14.5180 N.3    35  GLN35      -0.1245
     28  CA        95.0420  -35.2460   14.7970 C.3    35  GLN35       0.1566
     29  C         94.8080  -34.3250   15.9780 C.2    35  GLN35       0.2260
     30  O         95.7400  -34.0520   16.7460 O.2    35  GLN35      -0.2867
     31  CB        94.5300  -36.6590   15.1110 C.3    35  GLN35       0.0367
     32  CG        95.1940  -37.3210   16.3290 C.3    35  GLN35       0.0905
     33  CD        96.6580  -37.7030   16.0910 C.2    35  GLN35       0.2608
     34  OE1       96.9780  -38.4330   15.1500 O.2    35  GLN35      -0.2717
     35  NE2       97.5500  -37.2090   16.9510 N.am   35  GLN35      -0.0878
     36  N         93.9520  -32.9170   19.6240 N.3    37  VAL37      -0.1245
     37  CA        93.9890  -33.4770   20.9670 C.3    37  VAL37       0.1561
     38  C         92.5730  -33.8730   21.3510 C.2    37  VAL37       0.2260
     39  O         91.6270  -33.1000   21.1630 O.2    37  VAL37      -0.2867
     40  CB        94.5740  -32.4670   21.9670 C.3    37  VAL37       0.0252
     41  CG1       94.5500  -33.0510   23.3740 C.3    37  VAL37       0.0019
     42  CG2       95.9930  -32.0520   21.5820 C.3    37  VAL37       0.0019
     43  N         89.6570  -38.9900   25.3970 N.3    41  LEU41      -0.1231
     44  CA        90.4750  -40.1830   25.2040 C.3    41  LEU41       0.1693
     45  C         91.7470  -40.1350   26.0440 C.2    41  LEU41       0.2591
     46  O         92.1540  -41.1470   26.6240 O.2    41  LEU41      -0.2718
     47  CB        90.8200  -40.3330   23.7230 C.3    41  LEU41       0.0284
     48  CG        91.9110  -41.3280   23.3300 C.3    41  LEU41       0.0019
     49  CD1       91.4810  -42.7510   23.6460 C.3    41  LEU41       0.0001
     50  CD2       92.2470  -41.1710   21.8510 C.3    41  LEU41       0.0001
     51  N         92.3930  -38.9720   26.1150 N.am   42  LEU42      -0.1980
     52  CA        93.6730  -38.8420   26.8020 C.3    42  LEU42       0.1596
     53  C         93.5360  -38.6700   28.3070 C.2    42  LEU42       0.2287
     54  O         94.5490  -38.7280   29.0150 O.2    42  LEU42      -0.2864
     55  CB        94.4440  -37.6610   26.2290 C.3    42  LEU42       0.0297
     56  CG        94.9270  -37.8730   24.7990 C.3    42  LEU42       0.0022
     57  CD1       95.3230  -36.5520   24.1380 C.3    42  LEU42       0.0001
     58  CD2       96.1000  -38.8530   24.8100 C.3    42  LEU42       0.0001
     59  N         92.5950  -35.9110   30.0330 N.3    44  ILE44      -0.1245
     60  CA        93.1230  -34.6230   30.4700 C.3    44  ILE44       0.1561
     61  C         92.0160  -33.5830   30.3490 C.2    44  ILE44       0.2260
     62  O         92.1040  -32.6750   29.5110 O.2    44  ILE44      -0.2867
     63  CB        94.3720  -34.2340   29.6680 C.3    44  ILE44       0.0252
     64  CG1       94.1550  -34.4670   28.1760 C.3    44  ILE44       0.0019
     65  CG2       95.5690  -35.0460   30.1420 C.3    44  ILE44       0.0019
     66  CD1       95.3460  -34.0630   27.3540 C.3    44  ILE44       0.0001
     67  N         92.4980  -29.8110   29.5750 N.3    47  TYR47      -0.1241
     68  CA        93.2340  -29.3490   28.4060 C.3    47  TYR47       0.1605
     69  C         92.5950  -28.1000   27.8120 C.2    47  TYR47       0.2264
     70  O         93.2830  -27.1090   27.5420 O.2    47  TYR47      -0.2867
     71  CB        93.3240  -30.4590   27.3610 C.3    47  TYR47       0.0534
     72  CG        94.0550  -30.0080   26.1310 C.ar   47  TYR47      -0.0201
     73  CD1       95.4380  -29.8820   26.1350 C.ar   47  TYR47      -0.0009
     74  CD2       93.3690  -29.6670   24.9760 C.ar   47  TYR47      -0.0009
     75  CE1       96.1220  -29.4430   25.0240 C.ar   47  TYR47       0.0417
     76  CE2       94.0610  -29.2260   23.8410 C.ar   47  TYR47       0.0417
     77  CZ        95.4330  -29.1230   23.8840 C.ar   47  TYR47       0.1957
     78  OH        96.1390  -28.6910   22.7940 O.3    47  TYR47      -0.2866
     79  N         94.8160  -26.5010   18.0030 N.3    55  MET55      -0.1245
     80  CA        95.2440  -26.5370   16.6180 C.3    55  MET55       0.1570
     81  C         96.1090  -27.7750   16.4240 C.2    55  MET55       0.2261
     82  O         96.8300  -28.1880   17.3320 O.2    55  MET55      -0.2867
     83  CB        96.0020  -25.2520   16.2670 C.3    55  MET55       0.0387
     84  CG        96.3290  -25.0870   14.7980 C.3    55  MET55       0.0595
     85  SD        94.9020  -25.2220   13.6930 S.3    55  MET55      -0.1393
     86  CE        93.8280  -23.9420   14.3420 C.3    55  MET55       0.0692
     87  N        101.3200  -26.6860   22.6220 N.3    86  ALA86      -0.1245
     88  CA       102.0390  -27.8360   23.1680 C.3    86  ALA86       0.1562
     89  C        103.0890  -27.4110   24.1930 C.2    86  ALA86       0.2260
     90  O        103.2550  -28.0670   25.2260 O.2    86  ALA86      -0.2867
     91  CB       102.6770  -28.6460   22.0400 C.3    86  ALA86       0.0290
     92  N        101.1020  -26.4770   27.4690 N.3    89  TYR89      -0.1227
     93  CA       100.3970  -27.4780   28.2610 C.3    89  TYR89       0.1736
     94  C        101.3140  -28.5610   28.8160 C.2    89  TYR89       0.2595
     95  O        101.1090  -29.0340   29.9440 O.2    89  TYR89      -0.2718
     96  CB        99.3010  -28.1360   27.4270 C.3    89  TYR89       0.0548
     97  CG        98.4900  -29.0830   28.2740 C.ar   89  TYR89      -0.0200
     98  CD1       97.4830  -28.6080   29.0970 C.ar   89  TYR89      -0.0009
     99  CD2       98.7560  -30.4420   28.2770 C.ar   89  TYR89      -0.0009
    100  CE1       96.7510  -29.4700   29.8920 C.ar   89  TYR89       0.0417
    101  CE2       98.0400  -31.3050   29.0620 C.ar   89  TYR89       0.0417
    102  CZ        97.0400  -30.8200   29.8690 C.ar   89  TYR89       0.1957
    103  OH        96.3270  -31.6940   30.6530 O.3    89  TYR89      -0.2866
    104  N        102.3300  -28.9590   28.0600 N.am   90  ASN90      -0.1974
    105  CA       103.0740  -30.1690   28.3650 C.3    90  ASN90       0.1688
    106  C        104.3530  -29.8770   29.1410 C.2    90  ASN90       0.2292
    107  O        104.9490  -28.8050   29.0200 O.2    90  ASN90      -0.2864
    108  CB       103.4120  -30.9170   27.0790 C.3    90  ASN90       0.1181
    109  CG       102.1830  -31.3260   26.3270 C.2    90  ASN90       0.2629
    110  OD1      101.5300  -32.3080   26.6790 O.2    90  ASN90      -0.2716
    111  ND2      101.8310  -30.5550   25.3020 N.am   90  ASN90      -0.0877
    112  N        107.2560  -36.4290   25.6300 N.3    95  ARG95      -0.1231
    113  CA       107.4710  -36.6270   24.2010 C.3    95  ARG95       0.1694
    114  C        106.8610  -35.4930   23.3910 C.2    95  ARG95       0.2591
    115  O        107.4690  -35.0050   22.4340 O.2    95  ARG95      -0.2718
    116  CB       106.8840  -37.9600   23.7480 C.3    95  ARG95       0.0321
    117  CG       107.5680  -39.1900   24.3000 C.3    95  ARG95       0.0489
    118  CD       106.8600  -40.4260   23.7760 C.3    95  ARG95       0.2205
    119  NE       105.4720  -40.4650   24.2380 N.pl3  95  ARG95      -0.0865
    120  CZ       104.5370  -41.2680   23.7390 C.cat  95  ARG95       0.5346
    121  NH1      104.8260  -42.0990   22.7430 N.pl3  95  ARG95       0.1354
    122  NH2      103.3030  -41.2300   24.2280 N.pl3  95  ARG95       0.1354
    123  N        105.6490  -35.0600   23.7470 N.am   96  VAL96      -0.1980
    124  CA       105.0000  -34.0350   22.9320 C.3    96  VAL96       0.1595
    125  C        105.8060  -32.7480   22.9510 C.2    96  VAL96       0.2287
    126  O        105.9710  -32.0840   21.9240 O.2    96  VAL96      -0.2864
    127  CB       103.5620  -33.8050   23.4150 C.3    96  VAL96       0.0276
    128  CG1      102.9610  -32.5740   22.7240 C.3    96  VAL96       0.0022
    129  CG2      102.7550  -35.0480   23.1440 C.3    96  VAL96       0.0022
    130  N        108.9930  -33.2980   20.8630 N.3    99  PHE99      -0.1241
    131  CA       108.6450  -33.4250   19.4520 C.3    99  PHE99       0.1605
    132  C        108.2380  -32.0710   18.8830 C.2    99  PHE99       0.2264
    133  O        108.5880  -31.7280   17.7440 O.2    99  PHE99      -0.2867
    134  CB       107.5250  -34.4470   19.2850 C.3    99  PHE99       0.0534
    135  CG       107.9530  -35.8850   19.5060 C.ar   99  PHE99      -0.0203
    136  CD1      109.2830  -36.2180   19.7170 C.ar   99  PHE99      -0.0042
    137  CD2      107.0080  -36.9080   19.4840 C.ar   99  PHE99      -0.0042
    138  CE1      109.6620  -37.5560   19.9140 C.ar   99  PHE99      -0.0003
    139  CE2      107.3760  -38.2290   19.6710 C.ar   99  PHE99      -0.0003
    140  CZ       108.7000  -38.5550   19.8860 C.ar   99  PHE99      -0.0000
@<TRIPOS>BOND
     1     8     6    1
     2    85    86    1
     3    85    84    1
     4    19    18    2
     5    27    28    1
     6    18    17    1
     7    28    31    1
     8    28    29    1
     9    84    83    1
    10     6     7    1
    11     6     5    1
    12     1     2    1
    13    31    32    1
    14    34    33    2
    15     2     5    1
    16     2     3    1
    17    20    17    1
    18    20    21    1
    19    29    30    2
    20    17    16    1
    21    33    32    1
    22    33    35   am
    23     4     3    2
    24    83    80    1
    25     3     9   am
    26    81    80    1
    27    81    82    2
    28    16    11   am
    29    80    79    1
    30    21    23   ar
    31    21    22   ar
    32    23    25   ar
    33     9    15    1
    34     9    10    1
    35   133   132    2
    36    22    24   ar
    37    11    10    1
    38    11    12    2
    39    15    14    1
    40    25    26   ar
    41    10    13    1
    42    24    26   ar
    43   132   131    1
    44    14    13    1
    45   134   131    1
    46   134   135    1
    47   131   130    1
    48   137   135   ar
    49   137   139   ar
    50   135   136   ar
    51    36    37    1
    52   139   140   ar
    53   136   138   ar
    54   140   138   ar
    55    37    38    1
    56    37    40    1
    57    39    38    2
    58    42    40    1
    59    50    48    1
    60   126   125    2
    61    40    41    1
    62    91    88    1
    63   115   114    2
    64    87    88    1
    65   128   127    1
    66   121   120    1
    67    78    77    1
    68   124   125    1
    69   124   127    1
    70   124   123    1
    71   129   127    1
    72    88    89    1
    73    48    49    1
    74    48    47    1
    75   114   123   am
    76   114   113    1
    77    47    44    1
    78   120   122    1
    79   120   119    2
    80   116   113    1
    81   116   117    1
    82   118   119    1
    83   118   117    1
    84    76    77   ar
    85    76    74   ar
    86    77    75   ar
    87    57    56    1
    88    89    90    2
    89   113   112    1
    90    56    58    1
    91    56    55    1
    92    74    72   ar
    93    75    73   ar
    94    44    43    1
    95    44    45    1
    96   111   109   am
    97    45    51   am
    98    45    46    2
    99    51    52    1
   100    72    73   ar
   101    72    71    1
   102    55    52    1
   103   109   110    2
   104   109   108    1
   105    52    53    1
   106   108   105    1
   107    66    64    1
   108    71    68    1
   109    96    93    1
   110    96    97    1
   111    92    93    1
   112    70    69    2
   113    69    68    1
   114   104   105    1
   115   104    94   am
   116    64    63    1
   117    93    94    1
   118    97    99   ar
   119    97    98   ar
   120    99   101   ar
   121    53    54    2
   122   105   106    1
   123    68    67    1
   124    94    95    2
   125   107   106    2
   126   101   102   ar
   127    98   100   ar
   128    62    61    2
   129    63    65    1
   130    63    60    1
   131   102   100   ar
   132   102   103    1
   133    59    60    1
   134    61    60    1
