@<TRIPOS>MOLECULE
tmp/5lpmB00.pdb
 109 108 0 0 0
SMALL
GASTEIGER

@<TRIPOS>ATOM
      1  N         21.0910   14.0760    3.9810 N.3    70  TRP70      -0.1241
      2  CA        20.9150   15.1180    4.9810 C.3    70  TRP70       0.1605
      3  C         22.2250   15.8230    5.2860 C.2    70  TRP70       0.2264
      4  O         22.2060   16.9800    5.7250 O.2    70  TRP70      -0.2867
      5  CB        20.3360   14.5370    6.2770 C.3    70  TRP70       0.0550
      6  CG        18.9440   14.0040    6.1460 C.ar   70  TRP70       0.0003
      7  CD1       18.5610   12.6950    5.9830 C.ar   70  TRP70       0.0946
      8  CD2       17.7360   14.7670    6.1740 C.ar   70  TRP70       0.0152
      9  NE1       17.1910   12.6050    5.9000 N.ar   70  TRP70      -0.2442
     10  CE2       16.6670   13.8690    6.0130 C.ar   70  TRP70       0.0810
     11  CE3       17.4600   16.1350    6.2930 C.ar   70  TRP70       0.0012
     12  CZ2       15.3330   14.2760    6.0040 C.ar   70  TRP70       0.0191
     13  CZ3       16.1320   16.5360    6.2960 C.ar   70  TRP70       0.0001
     14  CH2       15.0870   15.6150    6.1280 C.ar   70  TRP70       0.0015
     15  N         22.3560   18.5460    2.7200 N.3    73  VAL73      -0.1231
     16  CA        21.4100   19.5690    3.1300 C.3    73  VAL73       0.1692
     17  C         21.9830   20.3990    4.2700 C.2    73  VAL73       0.2592
     18  O         21.8670   21.6340    4.2620 O.2    73  VAL73      -0.2718
     19  CB        20.0730   18.9140    3.5050 C.3    73  VAL73       0.0266
     20  CG1       19.1120   19.9130    4.1630 C.3    73  VAL73       0.0020
     21  CG2       19.4210   18.2300    2.2690 C.3    73  VAL73       0.0020
     22  N         22.6290   19.7580    5.2500 N.am   74  ASP74      -0.1974
     23  CA        23.1680   20.5300    6.3750 C.3    74  ASP74       0.1709
     24  C         24.2310   21.5360    5.9210 C.2    74  ASP74       0.2293
     25  O         24.3090   22.6440    6.4560 O.2    74  ASP74      -0.2864
     26  CB        23.8000   19.6070    7.4180 C.3    74  ASP74       0.1436
     27  CG        22.7980   18.9200    8.2870 C.2    74  ASP74       0.3671
     28  OD1       21.5880   19.1830    8.1900 O.co2  74  ASP74      -0.2456
     29  OD2       23.3070   18.0750    9.0570 O.co2  74  ASP74      -0.2456
     30  N         22.5200   24.6260    4.2760 N.3    77  TRP77      -0.1241
     31  CA        21.9470   25.5630    5.2570 C.3    77  TRP77       0.1605
     32  C         23.0280   26.1840    6.1410 C.2    77  TRP77       0.2264
     33  O         22.8640   27.3020    6.6290 O.2    77  TRP77      -0.2867
     34  CB        20.8790   24.8510    6.1080 C.3    77  TRP77       0.0550
     35  CG        19.6170   24.6500    5.3190 C.ar   77  TRP77       0.0003
     36  CD1       19.1550   23.4710    4.7980 C.ar   77  TRP77       0.0946
     37  CD2       18.7040   25.6680    4.8880 C.ar   77  TRP77       0.0152
     38  NE1       17.9950   23.6880    4.1120 N.ar   77  TRP77      -0.2442
     39  CE2       17.6920   25.0270    4.1380 C.ar   77  TRP77       0.0810
     40  CE3       18.6170   27.0550    5.0990 C.ar   77  TRP77       0.0012
     41  CZ2       16.6210   25.7200    3.5820 C.ar   77  TRP77       0.0191
     42  CZ3       17.5350   27.7480    4.5330 C.ar   77  TRP77       0.0001
     43  CH2       16.5600   27.0730    3.7850 C.ar   77  TRP77       0.0015
     44  N         23.0990   30.0080    6.6630 N.3    81  ASN81      -0.1240
     45  CA        23.0010   30.5620    8.0110 C.3    81  ASN81       0.1653
     46  C         24.2440   31.3510    8.3880 C.2    81  ASN81       0.2266
     47  O         24.1310   32.3490    9.1030 O.2    81  ASN81      -0.2867
     48  CB        22.7400   29.4570    9.0240 C.3    81  ASN81       0.1155
     49  CG        21.3020   29.0680    9.0600 C.2    81  ASN81       0.2627
     50  OD1       20.4360   29.9250    9.0610 O.2    81  ASN81      -0.2716
     51  ND2       21.0370   27.7780    9.1030 N.am   81  ASN81      -0.0877
     52  N         23.6060   34.8140    6.8510 N.3    84  TRP84      -0.1241
     53  CA        22.5810   35.5870    7.5510 C.3    84  TRP84       0.1605
     54  C         23.0430   35.9900    8.9440 C.2    84  TRP84       0.2264
     55  O         22.5400   36.9860    9.4810 O.2    84  TRP84      -0.2867
     56  CB        21.2740   34.8020    7.6620 C.3    84  TRP84       0.0550
     57  CG        20.4670   34.6170    6.3820 C.ar   84  TRP84       0.0003
     58  CD1       20.2430   35.5370    5.4000 C.ar   84  TRP84       0.0946
     59  CD2       19.7600   33.4330    5.9810 C.ar   84  TRP84       0.0152
     60  NE1       19.4370   35.0140    4.4260 N.ar   84  TRP84      -0.2442
     61  CE2       19.1180   33.7210    4.7550 C.ar   84  TRP84       0.0810
     62  CE3       19.6040   32.1650    6.5390 C.ar   84  TRP84       0.0012
     63  CZ2       18.3310   32.7700    4.0770 C.ar   84  TRP84       0.0191
     64  CZ3       18.8310   31.2180    5.8740 C.ar   84  TRP84       0.0001
     65  CH2       18.2020   31.5220    4.6500 C.ar   84  TRP84       0.0015
     66  N         16.8460   27.0820   -3.5170 N.3   104  PHE104     -0.1227
     67  CA        17.1910   25.7770   -2.9770 C.3   104  PHE104      0.1736
     68  C         15.9470   25.0590   -2.5020 C.2   104  PHE104      0.2595
     69  O         15.7650   23.8660   -2.7730 O.2   104  PHE104     -0.2718
     70  CB        18.1910   25.9130   -1.8140 C.3   104  PHE104      0.0547
     71  CG        18.6380   24.5800   -1.2730 C.ar  104  PHE104     -0.0202
     72  CD1       19.4490   23.7670   -2.0510 C.ar  104  PHE104     -0.0042
     73  CD2       18.1920   24.1010   -0.0340 C.ar  104  PHE104     -0.0042
     74  CE1       19.8550   22.5270   -1.6090 C.ar  104  PHE104     -0.0003
     75  CE2       18.6020   22.8500    0.4280 C.ar  104  PHE104     -0.0003
     76  CZ        19.4390   22.0610   -0.3540 C.ar  104  PHE104     -0.0000
     77  N         15.0950   25.7560   -1.7540 N.am  105  GLU105     -0.1979
     78  CA        13.9280   25.0830   -1.2000 C.3   105  GLU105      0.1602
     79  C         13.0500   24.4920   -2.2960 C.2   105  GLU105      0.2287
     80  O         12.5680   23.3540   -2.1730 O.2   105  GLU105     -0.2864
     81  CB        13.1450   26.0510   -0.3260 C.3   105  GLU105      0.0415
     82  CG        13.7690   26.1540    1.0680 C.3   105  GLU105      0.1163
     83  CD        13.5200   24.8890    1.9090 C.2   105  GLU105      0.3649
     84  OE1       14.2500   23.8650    1.7510 O.co2 105  GLU105     -0.2457
     85  OE2       12.5750   24.9180    2.7240 O.co2 105  GLU105     -0.2457
     86  N         15.0820   21.2740   -3.6600 N.3   108  ILE108     -0.1231
     87  CA        15.4650   20.1660   -2.7860 C.3   108  ILE108      0.1692
     88  C         14.2740   19.3220   -2.3540 C.2   108  ILE108      0.2592
     89  O         14.4360   18.1340   -2.0910 O.2   108  ILE108     -0.2718
     90  CB        16.2200   20.7070   -1.5560 C.3   108  ILE108      0.0266
     91  CG1       16.9450   19.5690   -0.7920 C.3   108  ILE108      0.0019
     92  CG2       15.2460   21.4500   -0.6300 C.3   108  ILE108      0.0020
     93  CD1       17.8930   18.7870   -1.6140 C.3   108  ILE108      0.0001
     94  N         13.0740   19.8910   -2.2640 N.am  109  ASP109     -0.1974
     95  CA        11.9500   19.1370   -1.7130 C.3   109  ASP109      0.1709
     96  C         11.6490   17.8700   -2.4980 C.2   109  ASP109      0.2293
     97  O         11.5610   16.7930   -1.8830 O.2   109  ASP109     -0.2864
     98  CB        10.7080   20.0300   -1.6420 C.3   109  ASP109      0.1436
     99  CG        10.4330   20.5490   -0.2430 C.2   109  ASP109      0.3671
    100  OD1       10.1590   19.7250    0.6540 O.co2 109  ASP109     -0.2456
    101  OD2       10.4650   21.7850   -0.0430 O.co2 109  ASP109     -0.2456
    102  N         14.4250   15.1950   -1.8360 N.3   112  MET112     -0.1245
    103  CA        14.3670   14.6060   -0.4990 C.3   112  MET112      0.1570
    104  C         13.0770   13.8340   -0.2770 C.2   112  MET112      0.2261
    105  O         13.0320   12.9610    0.5920 O.2   112  MET112     -0.2867
    106  CB        14.5010   15.6960    0.5680 C.3   112  MET112      0.0387
    107  CG        15.8570   16.3630    0.6000 C.3   112  MET112      0.0595
    108  SD        17.1970   15.2090    0.9940 S.3   112  MET112     -0.1393
    109  CE        16.8740   14.8000    2.7450 C.3   112  MET112      0.0692
@<TRIPOS>BOND
     1    86    87    1
     2    66    67    1
     3    67    68    1
     4    67    70    1
     5    87    88    1
     6    87    90    1
     7    69    68    2
     8    68    77   am
     9    96    97    2
    10    96    95    1
    11    88    94   am
    12    88    89    2
    13    79    80    2
    14    79    78    1
    15    94    95    1
    16    72    74   ar
    17    72    71   ar
    18   102   103    1
    19    70    71    1
    20    77    78    1
    21    95    98    1
    22    98    99    1
    23    93    91    1
    24    74    76   ar
    25    90    91    1
    26    90    92    1
    27    71    73   ar
    28    78    81    1
    29   103   104    1
    30   103   106    1
    31    76    75   ar
    32    81    82    1
    33   104   105    2
    34    99   101   ar
    35    99   100   ar
    36    73    75   ar
    37   106   107    1
    38   107   108    1
    39   108   109    1
    40    82    83    1
    41    84    83   ar
    42    83    85   ar
    43    21    19    1
    44    15    16    1
    45    16    19    1
    46    16    17    1
    47    19    20    1
    48    41    43   ar
    49    41    39   ar
    50    43    42   ar
    51     1     2    1
    52    63    65   ar
    53    63    61   ar
    54    38    39   ar
    55    38    36   ar
    56    39    37   ar
    57    18    17    2
    58    17    22   am
    59    30    31    1
    60    60    61   ar
    61    60    58   ar
    62    42    40   ar
    63    65    64   ar
    64    61    59   ar
    65    36    35   ar
    66    37    40   ar
    67    37    35   ar
    68     2     3    1
    69     2     5    1
    70    22    23    1
    71    31    34    1
    72    31    32    1
    73     3     4    2
    74    35    34    1
    75    58    57   ar
    76    64    62   ar
    77     9     7   ar
    78     9    10   ar
    79    24    23    1
    80    24    25    2
    81    59    57   ar
    82    59    62   ar
    83     7     6   ar
    84    12    10   ar
    85    12    14   ar
    86    10     8   ar
    87    14    13   ar
    88    32    33    2
    89     6     8   ar
    90     6     5    1
    91     8    11   ar
    92    11    13   ar
    93    23    26    1
    94    57    56    1
    95    44    45    1
    96    52    53    1
    97    26    27    1
    98    53    56    1
    99    53    54    1
   100    45    46    1
   101    45    48    1
   102    28    27   ar
   103    27    29   ar
   104    46    47    2
   105    54    55    2
   106    48    49    1
   107    49    50    2
   108    49    51   am
