@<TRIPOS>MOLECULE
tmp/5lpoA00.pdb
 175 164 0 0 0
SMALL
GASTEIGER

@<TRIPOS>ATOM
      1  N         93.5410    8.9120   12.2200 N.3    36  VAL36      -0.1245
      2  CA        92.2560    9.4790   12.5990 C.3    36  VAL36       0.1561
      3  C         91.1610    8.5180   12.1520 C.2    36  VAL36       0.2260
      4  O         91.2690    7.8780   11.0990 O.2    36  VAL36      -0.2867
      5  CB        92.1080   10.8560   11.9290 C.3    36  VAL36       0.0252
      6  CG1       90.8770   11.5690   12.4390 C.3    36  VAL36       0.0019
      7  CG2       93.3660   11.7100   12.1490 C.3    36  VAL36       0.0019
      8  N         92.4450    6.9740   16.3300 N.3    49  LEU49      -0.1231
      9  CA        92.3880    8.1140   17.2300 C.3    49  LEU49       0.1693
     10  C         90.9750    8.6710   17.2840 C.2    49  LEU49       0.2593
     11  O         90.2830    8.7250   16.2630 O.2    49  LEU49      -0.2718
     12  CB        93.3000    9.2340   16.7370 C.3    49  LEU49       0.0284
     13  CG        94.7460    8.8430   16.4670 C.3    49  LEU49       0.0019
     14  CD1       95.5220   10.0550   15.9740 C.3    49  LEU49       0.0001
     15  CD2       95.3740    8.2540   17.7270 C.3    49  LEU49       0.0001
     16  N         90.5660    9.1140   18.4690 N.am   50  GLY50      -0.1942
     17  CA        89.4500   10.0390   18.6100 C.3    50  GLY50       0.2014
     18  C         89.9770   11.4400   18.8760 C.2    50  GLY50       0.2638
     19  O         90.9540   11.6140   19.6100 O.2    50  GLY50      -0.2714
     20  N         89.3200   12.4430   18.2820 N.am   51  ASN51      -0.1972
     21  CA        89.7530   13.8400   18.4340 C.3    51  ASN51       0.1688
     22  C         89.0340   14.4300   19.6390 C.2    51  ASN51       0.2292
     23  O         87.9410   14.9930   19.5270 O.2    51  ASN51      -0.2864
     24  CB        89.4710   14.6670   17.1820 C.3    51  ASN51       0.1181
     25  CG        90.1900   16.0380   17.2050 C.2    51  ASN51       0.2629
     26  OD1       90.3440   16.6740   18.2600 O.2    51  ASN51      -0.2716
     27  ND2       90.6370   16.4860   16.0360 N.am   51  ASN51      -0.0877
     28  N         92.6780    5.5140   20.8850 N.3    81  LEU81      -0.1231
     29  CA        93.4960    6.4130   21.6860 C.3    81  LEU81       0.1693
     30  C         92.9420    7.8300   21.5750 C.2    81  LEU81       0.2593
     31  O         92.5410    8.2630   20.4880 O.2    81  LEU81      -0.2718
     32  CB        94.9550    6.3810   21.2110 C.3    81  LEU81       0.0284
     33  CG        95.9790    7.1690   22.0330 C.3    81  LEU81       0.0019
     34  CD1       97.3520    6.5090   21.9780 C.3    81  LEU81       0.0001
     35  CD2       96.0860    8.6260   21.5620 C.3    81  LEU81       0.0001
     36  N         92.8890    8.5390   22.7080 N.am   82  THR82      -0.1939
     37  CA        92.4740    9.9400   22.7300 C.3    82  THR82       0.2028
     38  C         93.5380   10.7880   23.3990 C.2    82  THR82       0.2642
     39  O         94.1480   10.3610   24.3850 O.2    82  THR82      -0.2714
     40  CB        91.1680   10.1320   23.5250 C.3    82  THR82       0.1808
     41  OG1       91.2730    9.4770   24.7990 O.3    82  THR82      -0.2208
     42  CG2       89.9800    9.5860   22.7460 C.3    82  THR82       0.0379
     43  N         93.7340   12.0040   22.8840 N.am   83  ASP83      -0.1957
     44  CA        94.5950   12.9740   23.5490 C.3    83  ASP83       0.1840
     45  C         93.8470   13.6290   24.7080 C.2    83  ASP83       0.2622
     46  O         92.6360   13.4780   24.8790 O.2    83  ASP83      -0.2715
     47  CB        95.0920   14.0350   22.5650 C.3    83  ASP83       0.1450
     48  CG        96.3590   14.7420   23.0410 C.2    83  ASP83       0.3671
     49  OD1       96.9350   14.3590   24.0950 O.co2  83  ASP83      -0.2456
     50  OD2       96.7930   15.6780   22.3370 O.co2  83  ASP83      -0.2456
     51  N         94.5900   14.3810   25.5140 N.am   84  SER84      -0.1950
     52  CA        94.0090   14.9890   26.7040 C.3    84  SER84       0.1924
     53  C         93.2970   16.3110   26.4230 C.2    84  SER84       0.2314
     54  O         92.5910   16.8090   27.3040 O.2    84  SER84      -0.2863
     55  CB        95.0710   15.1400   27.7950 C.3    84  SER84       0.2116
     56  OG        96.2820   15.6620   27.2740 O.3    84  SER84      -0.2180
     57  N         96.3380   20.4390   23.9840 N.3    87  TYR87      -0.1227
     58  CA        97.1780   20.8850   22.8760 C.3    87  TYR87       0.1736
     59  C         96.3750   21.7400   21.9140 C.2    87  TYR87       0.2595
     60  O         96.8210   22.8120   21.4880 O.2    87  TYR87      -0.2718
     61  CB        97.7520   19.6790   22.1270 C.3    87  TYR87       0.0548
     62  CG        98.5580   20.0700   20.9020 C.ar   87  TYR87      -0.0200
     63  CD1       99.9080   20.3730   21.0080 C.ar   87  TYR87      -0.0009
     64  CD2       97.9640   20.1520   19.6410 C.ar   87  TYR87      -0.0009
     65  CE1      100.6480   20.7380   19.9040 C.ar   87  TYR87       0.0417
     66  CE2       98.7010   20.5120   18.5270 C.ar   87  TYR87       0.0417
     67  CZ       100.0440   20.8090   18.6660 C.ar   87  TYR87       0.1957
     68  OH       100.7880   21.1710   17.5640 O.3    87  TYR87      -0.2866
     69  N         95.1810   21.2690   21.5620 N.am   88  GLN88      -0.1979
     70  CA        94.3520   21.9570   20.5880 C.3    88  GLN88       0.1601
     71  C         93.6870   23.1900   21.1850 C.2    88  GLN88       0.2287
     72  O         93.4810   24.1790   20.4720 O.2    88  GLN88      -0.2864
     73  CB        93.3320   20.9740   20.0080 C.3    88  GLN88       0.0394
     74  CG        94.0300   19.6190   19.9000 C.3    88  GLN88       0.0908
     75  CD        93.3680   18.5630   19.0580 C.2    88  GLN88       0.2608
     76  OE1       93.4150   18.6560   17.8320 O.2    88  GLN88      -0.2717
     77  NE2       92.8060   17.5570   19.7280 N.am   88  GLN88      -0.0878
     78  N         98.5580   17.4990   29.9480 N.3   135  ASP135     -0.1239
     79  CA        99.8650   18.1470   29.9950 C.3   135  ASP135      0.1674
     80  C         99.7800   19.5340   29.3680 C.2   135  ASP135      0.2266
     81  O         98.7390   19.9590   28.8570 O.2   135  ASP135     -0.2867
     82  CB       100.9150   17.3180   29.2370 C.3   135  ASP135      0.1410
     83  CG       100.6110   17.2020   27.7470 C.2   135  ASP135      0.3668
     84  OD1       99.4140   17.1980   27.3750 O.co2 135  ASP135     -0.2456
     85  OD2      101.5720   17.0990   26.9490 O.co2 135  ASP135     -0.2456
     86  N        101.8390   21.3940   26.3340 N.3   137  CYS137     -0.1235
     87  CA       102.8380   21.3000   25.2730 C.3   137  CYS137      0.1677
     88  C        103.5730   22.6320   25.2070 C.2   137  CYS137      0.2270
     89  O        103.0270   23.6280   24.7200 O.2   137  CYS137     -0.2867
     90  CB       102.1800   20.9570   23.9380 C.3   137  CYS137      0.0956
     91  SG       103.3500   20.8150   22.5760 S.3   137  CYS137     -0.0801
     92  N        103.2100   11.9040   29.6290 N.3   180  ILE180     -0.1245
     93  CA       103.8100   12.6760   28.5410 C.3   180  ILE180      0.1561
     94  C        105.0260   13.4350   29.0590 C.2   180  ILE180      0.2260
     95  O        104.9050   14.3090   29.9300 O.2   180  ILE180     -0.2867
     96  CB       102.8090   13.6330   27.8760 C.3   180  ILE180      0.0252
     97  CG1      101.5450   12.8760   27.4340 C.3   180  ILE180      0.0019
     98  CG2      103.4810   14.3430   26.7040 C.3   180  ILE180      0.0019
     99  CD1      100.4320   13.7880   26.9090 C.3   180  ILE180      0.0001
    100  N        107.8610   16.2030   28.9490 N.3   182  GLN182     -0.1245
    101  CA       108.0940   17.5480   28.4210 C.3   182  GLN182      0.1566
    102  C        109.5320   17.9610   28.7200 C.2   182  GLN182      0.2260
    103  O        110.3690   17.1000   29.0080 O.2   182  GLN182     -0.2867
    104  CB       107.0560   18.5390   28.9640 C.3   182  GLN182      0.0367
    105  CG       105.6220   18.1810   28.5750 C.3   182  GLN182      0.0905
    106  CD       105.3160   18.4700   27.1000 C.2   182  GLN182      0.2608
    107  OE1      106.0350   19.2160   26.4310 O.2   182  GLN182     -0.2717
    108  NE2      104.2320   17.8830   26.5940 N.am  182  GLN182     -0.0878
    109  N        106.3810   14.3160   24.3940 N.3   208  GLY208     -0.1210
    110  CA       105.6190   15.4900   24.0360 C.3   208  GLY208      0.1956
    111  C        106.5280   16.6610   23.7110 C.2   208  GLY208      0.2612
    112  O        107.7500   16.5880   23.8000 O.2   208  GLY208     -0.2717
    113  N        105.9000   17.7470   23.2800 N.am  209  GLY209     -0.1942
    114  CA       106.6150   18.9860   23.0670 C.3   209  GLY209      0.2014
    115  C        107.4460   19.0470   21.8080 C.2   209  GLY209      0.2639
    116  O        108.2530   19.9740   21.6670 O.2   209  GLY209     -0.2714
    117  N        107.2820   18.0970   20.8870 N.am  210  LEU210     -0.1963
    118  CA       107.9810   18.1270   19.6050 C.3   210  LEU210      0.1728
    119  C        106.9600   18.2500   18.4740 C.2   210  LEU210      0.2616
    120  O        105.7460   18.2910   18.7060 O.2   210  LEU210     -0.2715
    121  CB       108.8930   16.9040   19.4480 C.3   210  LEU210      0.0311
    122  CG       110.0110   16.8320   20.4970 C.3   210  LEU210      0.0022
    123  CD1      110.7400   15.4940   20.4020 C.3   210  LEU210      0.0001
    124  CD2      110.9880   18.0110   20.3560 C.3   210  LEU210      0.0001
    125  N        107.4630   18.3190   17.2410 N.am  211  ALA211     -0.1963
    126  CA       106.6260   18.6250   16.0790 C.3   211  ALA211      0.1728
    127  C        105.8520   19.9250   16.2930 C.2   211  ALA211      0.2616
    128  O        104.6570   20.0240   15.9930 O.2   211  ALA211     -0.2715
    129  CB       105.7040   17.4600   15.7080 C.3   211  ALA211      0.0334
    130  N        106.5450   20.9330   16.8290 N.am  212  VAL212     -0.1977
    131  CA       105.9330   22.2260   17.1320 C.3   212  VAL212      0.1596
    132  C        106.7490   23.3470   16.5080 C.2   212  VAL212      0.2287
    133  O        106.7320   24.4860   16.9920 O.2   212  VAL212     -0.2864
    134  CB       105.7650   22.4470   18.6470 C.3   212  VAL212      0.0276
    135  CG1      104.7290   21.4800   19.2300 C.3   212  VAL212      0.0022
    136  CG2      107.1090   22.3170   19.3530 C.3   212  VAL212      0.0022
    137  N        105.6370    6.7440   22.5960 N.3   237  TYR237     -0.1241
    138  CA       104.7430    7.3570   21.6130 C.3   237  TYR237      0.1605
    139  C        105.2240    8.7750   21.3150 C.2   237  TYR237      0.2264
    140  O        105.2740    9.6120   22.2170 O.2   237  TYR237     -0.2867
    141  CB       103.3210    7.3440   22.1960 C.3   237  TYR237      0.0534
    142  CG       102.2620    8.1810   21.5200 C.ar  237  TYR237     -0.0201
    143  CD1      102.3740    8.5820   20.1850 C.ar  237  TYR237     -0.0009
    144  CD2      101.1280    8.5820   22.2350 C.ar  237  TYR237     -0.0009
    145  CE1      101.3880    9.3810   19.5930 C.ar  237  TYR237      0.0417
    146  CE2      100.1430    9.3680   21.6510 C.ar  237  TYR237      0.0417
    147  CZ       100.2770    9.7690   20.3430 C.ar  237  TYR237      0.1957
    148  OH        99.2800   10.5610   19.8120 O.3   237  TYR237     -0.2866
    149  N        104.3560   12.1450   19.8520 N.3   239  MET239     -0.1230
    150  CA       103.1110   12.8310   19.5190 C.3   239  MET239      0.1702
    151  C        103.3030   13.8110   18.3640 C.2   239  MET239      0.2592
    152  O        104.2300   14.6240   18.3670 O.2   239  MET239     -0.2718
    153  CB       102.5770   13.5690   20.7440 C.3   239  MET239      0.0401
    154  CG       102.4750   12.6780   21.9610 C.3   239  MET239      0.0596
    155  SD       101.4780   13.3690   23.2970 S.3   239  MET239     -0.1393
    156  CE        99.8360   13.0800   22.6380 C.3   239  MET239      0.0692
    157  N        102.4260   13.7230   17.3690 N.am  240  GLY240     -0.1957
    158  CA       102.4210   14.6760   16.2820 C.3   240  GLY240      0.1869
    159  C        103.3200   14.3350   15.1140 C.2   240  GLY240      0.2309
    160  O        103.3710   15.1090   14.1560 O.2   240  GLY240     -0.2863
    161  N        101.2630    9.2480   15.4580 N.3   259  ASP259     -0.1239
    162  CA       100.0420    9.8580   14.9610 C.3   259  ASP259      0.1674
    163  C        100.4530   11.1130   14.2030 C.2   259  ASP259      0.2266
    164  O        101.3870   11.8120   14.6100 O.2   259  ASP259     -0.2867
    165  CB        99.1140   10.2540   16.1230 C.3   259  ASP259      0.1410
    166  CG        99.3720   11.6710   16.6400 C.2   259  ASP259      0.3668
    167  OD1       98.7720   12.6130   16.0770 O.co2 259  ASP259     -0.2456
    168  OD2      100.1360   11.8570   17.6150 O.co2 259  ASP259     -0.2456
    169  N         98.5240   14.2110   11.3440 N.3   261  VAL261     -0.1245
    170  CA        97.4260   14.6270   10.4780 C.3   261  VAL261      0.1561
    171  C         97.8110   14.5950    9.0100 C.2   261  VAL261      0.2260
    172  O         96.9330   14.7320    8.1510 O.2   261  VAL261     -0.2867
    173  CB        96.9210   16.0230   10.8960 C.3   261  VAL261      0.0252
    174  CG1       97.8730   17.1080   10.3940 C.3   261  VAL261      0.0019
    175  CG2       95.5030   16.2580   10.4070 C.3   261  VAL261      0.0019
@<TRIPOS>BOND
     1   172   171    2
     2   171   170    1
     3   174   173    1
     4   175   173    1
     5   170   173    1
     6   170   169    1
     7     4     3    2
     8     5     7    1
     9     5     6    1
    10     5     2    1
    11     3     2    1
    12     1     2    1
    13   160   159    2
    14   163   164    2
    15   163   162    1
    16   162   161    1
    17   162   165    1
    18   159   158    1
    19   129   126    1
    20    14    13    1
    21   128   127    2
    22    27    25   am
    23   167   166   ar
    24   126   127    1
    25   126   125    1
    26   165   166    1
    27    11    10    2
    28   158   157    1
    29   127   130   am
    30     8     9    1
    31    13    12    1
    32    13    15    1
    33   132   133    2
    34   132   131    1
    35   166   168   ar
    36    12     9    1
    37   130   131    1
    38   131   134    1
    39    24    25    1
    40    24    21    1
    41    25    26    2
    42     9    10    1
    43   125   119   am
    44    10    16   am
    45   157   151   am
    46    68    67    1
    47    76    75    2
    48    20    21    1
    49    20    18   am
    50   151   152    2
    51   151   150    1
    52    21    22    1
    53    16    17    1
    54   119   120    2
    55   119   118    1
    56    66    67   ar
    57    66    64   ar
    58    17    18    1
    59   134   135    1
    60   134   136    1
    61    67    65   ar
    62    18    19    2
    63    75    77   am
    64    75    74    1
    65   121   118    1
    66   121   122    1
    67   150   149    1
    68   150   153    1
    69    23    22    2
    70   145   143   ar
    71   145   147   ar
    72   118   117    1
    73    64    62   ar
    74   148   147    1
    75    74    73    1
    76    65    63   ar
    77    73    70    1
    78   143   142   ar
    79   147   146   ar
    80   124   122    1
    81   123   122    1
    82    72    71    2
    83    31    30    2
    84    70    71    1
    85    70    69    1
    86   153   154    1
    87    28    29    1
    88   117   115   am
    89    62    63   ar
    90    62    61    1
    91    32    29    1
    92    32    33    1
    93   139   138    1
    94   139   140    2
    95    60    59    2
    96   142   141    1
    97   142   144   ar
    98    35    33    1
    99    69    59   am
   100    30    29    1
   101    30    36   am
   102   138   141    1
   103   138   137    1
   104   146   144   ar
   105   116   115    2
   106   115   114    1
   107    59    58    1
   108   154   155    1
   109    34    33    1
   110    61    58    1
   111    50    48   ar
   112    47    48    1
   113    47    44    1
   114    91    90    1
   115   156   155    1
   116    36    37    1
   117    37    38    1
   118    37    40    1
   119    42    40    1
   120    58    57    1
   121    43    38   am
   122    43    44    1
   123    48    49   ar
   124   114   113    1
   125   113   111   am
   126    38    39    2
   127    40    41    1
   128    44    45    1
   129   111   112    2
   130   111   110    1
   131    90    87    1
   132   110   109    1
   133    45    46    2
   134    45    51   am
   135    89    88    2
   136    88    87    1
   137    87    86    1
   138    51    52    1
   139    53    52    1
   140    53    54    2
   141   107   106    2
   142   108   106   am
   143    52    55    1
   144    98    96    1
   145    99    97    1
   146    85    83   ar
   147   106   105    1
   148    56    55    1
   149    84    83   ar
   150    97    96    1
   151    83    82    1
   152    96    93    1
   153   101   102    1
   154   101   100    1
   155   101   104    1
   156    93    94    1
   157    93    92    1
   158   105   104    1
   159   102   103    2
   160    81    80    2
   161    94    95    2
   162    82    79    1
   163    80    79    1
   164    78    79    1
