@<TRIPOS>MOLECULE
tmp/5lppA00.pdb
 165 155 0 0 0
SMALL
GASTEIGER

@<TRIPOS>ATOM
      1  N         94.2670    9.6330   12.3380 N.3    36  VAL36      -0.1245
      2  CA        93.0220   10.2100   12.8330 C.3    36  VAL36       0.1561
      3  C         91.8520    9.3430   12.3780 C.2    36  VAL36       0.2260
      4  O         91.7500    8.9620   11.2030 O.2    36  VAL36      -0.2867
      5  CB        92.8880   11.6670   12.3660 C.3    36  VAL36       0.0252
      6  CG1       94.0610   12.5010   12.8900 C.3    36  VAL36       0.0019
      7  CG2       92.8490   11.7420   10.8670 C.3    36  VAL36       0.0019
      8  N         93.3100    7.7050   16.3920 N.3    46  LEU46      -0.1231
      9  CA        93.2700    8.8620   17.2740 C.3    46  LEU46       0.1693
     10  C         91.8850    9.4960   17.2880 C.2    46  LEU46       0.2593
     11  O         91.2320    9.6250   16.2480 O.2    46  LEU46      -0.2718
     12  CB        94.3060    9.9160   16.8610 C.3    46  LEU46       0.0284
     13  CG        95.4250   10.0040   17.9080 C.3    46  LEU46       0.0019
     14  CD1       96.3690    8.8090   17.8290 C.3    46  LEU46       0.0001
     15  CD2       96.1920   11.3330   17.8290 C.3    46  LEU46       0.0001
     16  N         91.4410    9.8840   18.4790 N.am   47  GLY47      -0.1942
     17  CA        90.2750   10.7200   18.6330 C.3    47  GLY47       0.2014
     18  C         90.7200   12.1430   18.9130 C.2    47  GLY47       0.2638
     19  O         91.7250   12.3750   19.5870 O.2    47  GLY47      -0.2714
     20  N         89.9450   13.0950   18.3860 N.am   48  ASN48      -0.1972
     21  CA        90.2340   14.5240   18.5030 C.3    48  ASN48       0.1688
     22  C         89.5170   15.0530   19.7380 C.2    48  ASN48       0.2292
     23  O         88.3930   15.5560   19.6660 O.2    48  ASN48      -0.2864
     24  CB        89.8000   15.2580   17.2380 C.3    48  ASN48       0.1181
     25  CG        90.2470   16.7150   17.2150 C.2    48  ASN48       0.2629
     26  OD1       90.3920   17.3610   18.2580 O.2    48  ASN48      -0.2716
     27  ND2       90.4540   17.2460   16.0130 N.am   48  ASN48      -0.0877
     28  N         94.2580   12.5750   22.7680 N.3    80  ASP80      -0.1225
     29  CA        95.1470   13.5230   23.4190 C.3    80  ASP80       0.1805
     30  C         94.3910   14.2230   24.5430 C.2    80  ASP80       0.2598
     31  O         93.1710   14.0940   24.6850 O.2    80  ASP80      -0.2718
     32  CB        95.7060   14.5420   22.4200 C.3    80  ASP80       0.1424
     33  CG        96.9300   15.3030   22.9650 C.2    80  ASP80       0.3668
     34  OD1       97.5020   14.9210   24.0220 O.co2  80  ASP80      -0.2456
     35  OD2       97.3430   16.2840   22.3130 O.co2  80  ASP80      -0.2456
     36  N         95.1270   14.9710   25.3510 N.am   81  SER81      -0.1952
     37  CA        94.5520   15.5290   26.5610 C.3    81  SER81       0.1924
     38  C         93.8580   16.8600   26.3210 C.2    81  SER81       0.2314
     39  O         93.1420   17.3330   27.2040 O.2    81  SER81      -0.2863
     40  CB        95.6410   15.6930   27.6150 C.3    81  SER81       0.2116
     41  OG        96.7240   16.4420   27.0880 O.3    81  SER81      -0.2180
     42  N         97.1280   20.9410   23.9290 N.3    84  TYR84      -0.1241
     43  CA        97.5950   21.4580   22.6500 C.3    84  TYR84       0.1605
     44  C         96.3990   21.9560   21.8510 C.2    84  TYR84       0.2264
     45  O         96.3480   23.1150   21.4590 O.2    84  TYR84      -0.2867
     46  CB        98.3540   20.3780   21.8680 C.3    84  TYR84       0.0534
     47  CG        99.0440   20.8730   20.6090 C.ar   84  TYR84      -0.0201
     48  CD1       98.3270   21.0890   19.4340 C.ar   84  TYR84      -0.0009
     49  CD2      100.4140   21.1130   20.5930 C.ar   84  TYR84      -0.0009
     50  CE1       98.9510   21.5410   18.2840 C.ar   84  TYR84       0.0417
     51  CE2      101.0500   21.5670   19.4460 C.ar   84  TYR84       0.0417
     52  CZ       100.3150   21.7780   18.2930 C.ar   84  TYR84       0.1957
     53  OH       100.9420   22.2280   17.1480 O.3    84  TYR84      -0.2866
     54  N         99.0570   18.1830   29.8740 N.3   115  ASP115     -0.1239
     55  CA       100.3630   18.8170   29.9230 C.3   115  ASP115      0.1674
     56  C        100.2610   20.2310   29.3620 C.2   115  ASP115      0.2266
     57  O         99.2030   20.6730   28.9180 O.2   115  ASP115     -0.2867
     58  CB       101.4030   18.0080   29.1340 C.3   115  ASP115      0.1410
     59  CG       101.0910   17.9550   27.6310 C.2   115  ASP115      0.3668
     60  OD1       99.9010   18.0420   27.2520 O.co2 115  ASP115     -0.2456
     61  OD2      102.0350   17.8160   26.8260 O.co2 115  ASP115     -0.2456
     62  N        102.3190   22.1490   26.4720 N.3   117  CYS117     -0.1235
     63  CA       103.2890   22.0160   25.3820 C.3   117  CYS117      0.1677
     64  C        104.0520   23.3280   25.2130 C.2   117  CYS117      0.2270
     65  O        103.5200   24.2990   24.6650 O.2   117  CYS117     -0.2867
     66  CB       102.5780   21.6190   24.0890 C.3   117  CYS117      0.0956
     67  SG       103.6440   21.4850   22.6050 S.3   117  CYS117     -0.0801
     68  N        103.7670   12.6520   29.5360 N.3   160  ILE160     -0.1245
     69  CA       104.3880   13.3930   28.4390 C.3   160  ILE160      0.1561
     70  C        105.6060   14.1190   28.9800 C.2   160  ILE160      0.2260
     71  O        105.4880   14.9410   29.8920 O.2   160  ILE160     -0.2867
     72  CB       103.4120   14.3780   27.7720 C.3   160  ILE160      0.0252
     73  CG1      102.1380   13.6500   27.3270 C.3   160  ILE160      0.0019
     74  CG2      104.0730   15.0460   26.5600 C.3   160  ILE160      0.0019
     75  CD1      101.0300   14.5980   26.8570 C.3   160  ILE160      0.0001
     76  N        108.4110   16.8930   28.8890 N.3   162  GLN162     -0.1245
     77  CA       108.6140   18.2240   28.3250 C.3   162  GLN162      0.1566
     78  C        110.0450   18.6710   28.6030 C.2   162  GLN162      0.2260
     79  O        110.9160   17.8450   28.8920 O.2   162  GLN162     -0.2867
     80  CB       107.5880   19.2220   28.8850 C.3   162  GLN162      0.0367
     81  CG       106.1480   18.9170   28.5160 C.3   162  GLN162      0.0905
     82  CD       105.8740   19.1560   27.0280 C.2   162  GLN162      0.2608
     83  OE1      106.6660   19.8060   26.3380 O.2   162  GLN162     -0.2717
     84  NE2      104.7610   18.6180   26.5300 N.am  162  GLN162     -0.0878
     85  N        107.0230   14.9740   24.3250 N.3   188  GLY188     -0.1210
     86  CA       106.2310   16.1150   23.9270 C.3   188  GLY188      0.1956
     87  C        107.1120   17.3050   23.5890 C.2   188  GLY188      0.2612
     88  O        108.3280   17.2850   23.7720 O.2   188  GLY188     -0.2717
     89  N        106.4650   18.3540   23.0880 N.am  189  GLY189     -0.1942
     90  CA       107.1640   19.6030   22.8830 C.3   189  GLY189      0.2014
     91  C        108.0880   19.6450   21.6910 C.2   189  GLY189      0.2639
     92  O        108.8580   20.6070   21.5560 O.2   189  GLY189     -0.2714
     93  N        108.0370   18.6480   20.8150 N.am  190  LEU190     -0.1963
     94  CA       108.7500   18.7080   19.5490 C.3   190  LEU190      0.1728
     95  C        107.7330   18.7850   18.4080 C.2   190  LEU190      0.2616
     96  O        106.5140   18.7270   18.6160 O.2   190  LEU190     -0.2715
     97  CB       109.7050   17.5150   19.4200 C.3   190  LEU190      0.0311
     98  CG       110.7470   17.4360   20.5480 C.3   190  LEU190      0.0022
     99  CD1      111.4950   16.1120   20.5330 C.3   190  LEU190      0.0001
    100  CD2      111.7510   18.5920   20.4770 C.3   190  LEU190      0.0001
    101  N        108.2400   18.9200   17.1880 N.am  191  ALA191     -0.1963
    102  CA       107.3920   19.2040   16.0260 C.3   191  ALA191      0.1728
    103  C        106.6190   20.5050   16.2380 C.2   191  ALA191      0.2616
    104  O        105.4220   20.5930   15.9630 O.2   191  ALA191     -0.2715
    105  CB       106.4360   18.0480   15.7230 C.3   191  ALA191      0.0334
    106  N        107.3100   21.5150   16.7620 N.am  192  VAL192     -0.1977
    107  CA       106.7240   22.8300   16.9890 C.3   192  VAL192      0.1596
    108  C        107.5390   23.8620   16.2250 C.2   192  VAL192      0.2287
    109  O        107.6640   25.0170   16.6510 O.2   192  VAL192     -0.2864
    110  CB       106.6750   23.1620   18.4880 C.3   192  VAL192      0.0276
    111  CG1      105.6220   22.3060   19.1780 C.3   192  VAL192      0.0022
    112  CG2      108.0390   22.9350   19.1010 C.3   192  VAL192      0.0022
    113  N        106.2990    7.4310   22.5700 N.3   217  TYR217     -0.1241
    114  CA       105.3820    8.0180   21.5910 C.3   217  TYR217      0.1605
    115  C        105.8650    9.4330   21.2730 C.2   217  TYR217      0.2264
    116  O        105.9510   10.2720   22.1690 O.2   217  TYR217     -0.2867
    117  CB       103.9610    7.9930   22.1780 C.3   217  TYR217      0.0534
    118  CG       102.8770    8.8090   21.5010 C.ar  217  TYR217     -0.0201
    119  CD1      102.9410    9.1550   20.1510 C.ar  217  TYR217     -0.0009
    120  CD2      101.7760    9.2310   22.2330 C.ar  217  TYR217     -0.0009
    121  CE1      101.9260    9.9100   19.5650 C.ar  217  TYR217      0.0417
    122  CE2      100.7580    9.9590   21.6590 C.ar  217  TYR217      0.0417
    123  CZ       100.8340   10.3100   20.3460 C.ar  217  TYR217      0.1957
    124  OH        99.8040   11.0630   19.8250 O.3   217  TYR217     -0.2866
    125  N        104.9510   12.7440   19.7560 N.3   219  MET219     -0.1230
    126  CA       103.6800   13.3630   19.4270 C.3   219  MET219      0.1702
    127  C        103.8520   14.3390   18.2760 C.2   219  MET219      0.2592
    128  O        104.7760   15.1600   18.2830 O.2   219  MET219     -0.2718
    129  CB       103.1160   14.0880   20.6510 C.3   219  MET219      0.0401
    130  CG       102.9200   13.1910   21.8560 C.3   219  MET219      0.0596
    131  SD       102.0620   14.0400   23.1990 S.3   219  MET219     -0.1393
    132  CE       100.3650   13.6940   22.7160 C.3   219  MET219      0.0692
    133  N        102.9470   14.2650   17.3050 N.am  220  GLY220     -0.1957
    134  CA       102.9280   15.2100   16.2080 C.3   220  GLY220      0.1869
    135  C        103.8600   14.9010   15.0560 C.2   220  GLY220      0.2309
    136  O        103.9300   15.6940   14.1160 O.2   220  GLY220     -0.2863
    137  N        101.9000    9.8900   15.5750 N.3   239  ASP239     -0.1225
    138  CA       100.6810   10.4490   15.0190 C.3   239  ASP239      0.1805
    139  C        101.0670   11.6950   14.2380 C.2   239  ASP239      0.2598
    140  O        102.0010   12.4120   14.6180 O.2   239  ASP239     -0.2718
    141  CB        99.6690   10.8210   16.1180 C.3   239  ASP239      0.1424
    142  CG        99.9360   12.1900   16.7090 C.2   239  ASP239      0.3668
    143  OD1       99.4110   13.1910   16.1680 O.co2 239  ASP239     -0.2456
    144  OD2      100.6620   12.2830   17.7130 O.co2 239  ASP239     -0.2456
    145  N        100.3460   11.9580   13.1510 N.am  240  CYS240     -0.1956
    146  CA       100.6200   13.1610   12.3700 C.3   240  CYS240      0.1843
    147  C         99.4230   13.4790   11.4860 C.2   240  CYS240      0.2625
    148  O         98.8250   12.5770   10.9010 O.2   240  CYS240     -0.2714
    149  CB       101.8720   12.9880   11.5020 C.3   240  CYS240      0.0997
    150  SG       102.4260   14.5160   10.7560 S.3   240  CYS240     -0.0797
    151  N         99.0770   14.7650   11.3950 N.am  241  VAL241     -0.1963
    152  CA        97.9750   15.1730   10.5260 C.3   241  VAL241      0.1727
    153  C         98.3760   15.2090    9.0560 C.2   241  VAL241      0.2616
    154  O         97.5080   15.3890    8.1880 O.2   241  VAL241     -0.2715
    155  CB        97.4530   16.5450   11.0030 C.3   241  VAL241      0.0290
    156  CG1       98.5010   17.6190   10.7520 C.3   241  VAL241      0.0023
    157  CG2       96.1220   16.9020   10.3360 C.3   241  VAL241      0.0023
    158  N         99.6600   15.0190    8.7440 N.am  242  LEU242     -0.1977
    159  CA       100.1240   15.2140    7.3690 C.3   242  LEU242      0.1596
    160  C         99.4260   14.3140    6.3530 C.2   242  LEU242      0.2287
    161  O         98.9210   14.8440    5.3470 O.2   242  LEU242     -0.2864
    162  CB       101.6470   15.0460    7.2980 C.3   242  LEU242      0.0297
    163  CG       102.5430   16.2250    7.7100 C.3   242  LEU242      0.0022
    164  CD1      101.8880   17.0770    8.7880 C.3   242  LEU242      0.0001
    165  CD2      103.9000   15.7190    8.1660 C.3   242  LEU242      0.0001
@<TRIPOS>BOND
     1   161   160    2
     2   160   159    1
     3   162   159    1
     4   162   163    1
     5   159   158    1
     6   163   165    1
     7   163   164    1
     8   154   153    2
     9   158   153   am
    10   153   152    1
    11   157   155    1
    12   152   155    1
    13   152   151    1
    14   156   155    1
    15   150   149    1
    16     7     5    1
    17   148   147    2
    18     4     3    2
    19   151   147   am
    20   147   146    1
    21   149   146    1
    22     1     2    1
    23     5     2    1
    24     5     6    1
    25   146   145    1
    26     3     2    1
    27   145   139   am
    28   136   135    2
    29   139   140    2
    30   139   138    1
    31   138   137    1
    32   138   141    1
    33   135   134    1
    34   105   102    1
    35   104   103    2
    36    27    25   am
    37   102   103    1
    38   102   101    1
    39   141   142    1
    40   143   142   ar
    41   134   133    1
    42   108   109    2
    43   108   107    1
    44   103   106   am
    45    11    10    2
    46     8     9    1
    47   142   144   ar
    48   106   107    1
    49    12     9    1
    50    12    13    1
    51   107   110    1
    52    53    52    1
    53   101    95   am
    54    25    24    1
    55    25    26    2
    56    24    21    1
    57     9    10    1
    58    10    16   am
    59   133   127   am
    60    14    13    1
    61    15    13    1
    62   127   128    2
    63   127   126    1
    64    50    52   ar
    65    50    48   ar
    66    52    51   ar
    67    20    21    1
    68    20    18   am
    69    95    96    2
    70    95    94    1
    71    16    17    1
    72   110   112    1
    73   110   111    1
    74    21    22    1
    75    17    18    1
    76    18    19    2
    77    97    94    1
    78    97    98    1
    79   126   125    1
    80   126   129    1
    81    48    47   ar
    82    51    49   ar
    83    94    93    1
    84   121   119   ar
    85   121   123   ar
    86    23    22    2
    87   124   123    1
    88   119   118   ar
    89   123   122   ar
    90   100    98    1
    91    99    98    1
    92    49    47   ar
    93    47    46    1
    94   129   130    1
    95    93    91   am
    96   115   114    1
    97   115   116    2
    98    45    44    2
    99   118   117    1
   100   118   120   ar
   101    92    91    2
   102   114   117    1
   103   114   113    1
   104   122   120   ar
   105    91    90    1
   106    44    43    1
   107   130   131    1
   108    46    43    1
   109    35    33   ar
   110    32    33    1
   111    32    29    1
   112    67    66    1
   113    43    42    1
   114   132   131    1
   115    28    29    1
   116    90    89    1
   117    33    34   ar
   118    89    87   am
   119    29    30    1
   120    87    88    2
   121    87    86    1
   122    86    85    1
   123    66    63    1
   124    30    31    2
   125    30    36   am
   126    65    64    2
   127    64    63    1
   128    36    37    1
   129    63    62    1
   130    38    37    1
   131    38    39    2
   132    83    82    2
   133    84    82   am
   134    74    72    1
   135    37    40    1
   136    61    59   ar
   137    75    73    1
   138    82    81    1
   139    41    40    1
   140    60    59   ar
   141    73    72    1
   142    59    58    1
   143    72    69    1
   144    77    78    1
   145    77    80    1
   146    77    76    1
   147    69    70    1
   148    69    68    1
   149    81    80    1
   150    78    79    2
   151    57    56    2
   152    70    71    2
   153    58    55    1
   154    56    55    1
   155    54    55    1
