@<TRIPOS>MOLECULE
tmp/5lpqA00.pdb
 174 163 0 0 0
SMALL
GASTEIGER

@<TRIPOS>ATOM
      1  N         -5.9180   -9.4860   75.0730 N.3    36  VAL36      -0.1245
      2  CA        -5.8070  -10.8270   74.5120 C.3    36  VAL36       0.1561
      3  C         -5.0550  -10.7500   73.1910 C.2    36  VAL36       0.2260
      4  O         -5.4580  -10.0280   72.2720 O.2    36  VAL36      -0.2867
      5  CB        -7.1940  -11.4550   74.3240 C.3    36  VAL36       0.0252
      6  CG1       -7.0720  -12.8480   73.7220 C.3    36  VAL36       0.0019
      7  CG2       -7.9430  -11.4920   75.6470 C.3    36  VAL36       0.0019
      8  N         -1.4430  -11.3640   75.8770 N.3    47  LEU47      -0.1231
      9  CA        -1.5420  -12.7020   76.4360 C.3    47  LEU47       0.1693
     10  C         -1.8860  -13.7220   75.3610 C.2    47  LEU47       0.2593
     11  O         -2.4330  -13.3930   74.3040 O.2    47  LEU47      -0.2718
     12  CB        -2.5990  -12.7850   77.5420 C.3    47  LEU47       0.0284
     13  CG        -2.7250  -11.6700   78.5740 C.3    47  LEU47       0.0019
     14  CD1       -3.6560  -12.1410   79.6710 C.3    47  LEU47       0.0001
     15  CD2       -1.3780  -11.2850   79.1420 C.3    47  LEU47       0.0001
     16  N         -1.5740  -14.9800   75.6640 N.am   48  GLY48      -0.1942
     17  CA        -1.9250  -16.0830   74.7960 C.3    48  GLY48       0.2014
     18  C         -2.6650  -17.1710   75.5450 C.2    48  GLY48       0.2638
     19  O         -2.1980  -17.6410   76.5870 O.2    48  GLY48      -0.2714
     20  N         -3.8310  -17.5640   75.0370 N.am   49  ASN49      -0.1972
     21  CA        -4.6070  -18.6470   75.6350 C.3    49  ASN49       0.1688
     22  C         -3.8550  -19.9520   75.4060 C.2    49  ASN49       0.2292
     23  O         -3.8830  -20.5160   74.3110 O.2    49  ASN49      -0.2864
     24  CB        -6.0080  -18.6920   75.0340 C.3    49  ASN49       0.1181
     25  CG        -6.9410  -19.6470   75.7740 C.2    49  ASN49       0.2629
     26  OD1       -6.5080  -20.6510   76.3420 O.2    49  ASN49      -0.2716
     27  ND2       -8.2320  -19.3350   75.7610 N.am   49  ASN49      -0.0877
     28  N          2.5880  -12.7810   78.0110 N.3    79  LEU79      -0.1245
     29  CA         2.2470  -13.6220   79.1470 C.3    79  LEU79       0.1561
     30  C          1.3110  -14.7300   78.6840 C.2    79  LEU79       0.2260
     31  O          0.3930  -14.4850   77.9000 O.2    79  LEU79      -0.2867
     32  CB         1.5940  -12.7900   80.2560 C.3    79  LEU79       0.0270
     33  CG         1.0840  -13.4180   81.5550 C.3    79  LEU79       0.0019
     34  CD1        1.0540  -12.3610   82.6400 C.3    79  LEU79       0.0001
     35  CD2       -0.3030  -14.0170   81.3910 C.3    79  LEU79       0.0001
     36  N         -1.1780  -17.9800   80.1510 N.3    81  ASP81      -0.1225
     37  CA        -1.7840  -18.6720   81.2710 C.3    81  ASP81       0.1805
     38  C         -1.3410  -20.1340   81.2720 C.2    81  ASP81       0.2598
     39  O         -0.6620  -20.6080   80.3580 O.2    81  ASP81      -0.2718
     40  CB        -3.3050  -18.5550   81.2050 C.3    81  ASP81       0.1424
     41  CG        -3.9650  -18.7650   82.5520 C.2    81  ASP81       0.3668
     42  OD1       -3.2460  -18.8240   83.5730 O.co2  81  ASP81      -0.2456
     43  OD2       -5.2080  -18.8620   82.5900 O.co2  81  ASP81      -0.2456
     44  N         -1.7280  -20.8550   82.3200 N.am   82  SER82      -0.1952
     45  CA        -1.2730  -22.2240   82.5120 C.3    82  SER82       0.1924
     46  C         -2.2950  -23.2690   82.0860 C.2    82  SER82       0.2314
     47  O         -1.9370  -24.4440   81.9570 O.2    82  SER82      -0.2863
     48  CB        -0.9040  -22.4490   83.9800 C.3    82  SER82       0.2116
     49  OG        -2.0260  -22.2460   84.8190 O.3    82  SER82      -0.2180
     50  N         -7.4190  -22.4700   84.5170 N.3    85  TYR85      -0.1227
     51  CA        -8.8010  -22.0220   84.3950 C.3    85  TYR85       0.1736
     52  C         -9.6340  -23.0280   83.6100 C.2    85  TYR85       0.2595
     53  O        -10.7670  -23.3370   83.9950 O.2    85  TYR85      -0.2718
     54  CB        -8.8470  -20.6470   83.7310 C.3    85  TYR85       0.0548
     55  CG       -10.2320  -20.0460   83.6450 C.ar   85  TYR85      -0.0200
     56  CD1      -10.7800  -19.3590   84.7170 C.ar   85  TYR85      -0.0009
     57  CD2      -10.9920  -20.1700   82.4890 C.ar   85  TYR85      -0.0009
     58  CE1      -12.0450  -18.8090   84.6440 C.ar   85  TYR85       0.0417
     59  CE2      -12.2580  -19.6260   82.4050 C.ar   85  TYR85       0.0417
     60  CZ       -12.7800  -18.9460   83.4860 C.ar   85  TYR85       0.1957
     61  OH       -14.0410  -18.4030   83.4070 O.3    85  TYR85      -0.2866
     62  N         -9.0890  -23.5510   82.5090 N.am   86  GLN86      -0.1979
     63  CA        -9.8050  -24.5600   81.7410 C.3    86  GLN86       0.1601
     64  C         -9.9310  -25.8750   82.4970 C.2    86  GLN86       0.2287
     65  O        -10.7890  -26.6940   82.1510 O.2    86  GLN86      -0.2864
     66  CB        -9.1190  -24.7940   80.3950 C.3    86  GLN86       0.0394
     67  CG        -9.2840  -23.6440   79.4160 C.3    86  GLN86       0.0908
     68  CD        -8.3700  -22.4740   79.7290 C.2    86  GLN86       0.2608
     69  OE1       -7.2530  -22.6550   80.2140 O.2    86  GLN86      -0.2717
     70  NE2       -8.8440  -21.2650   79.4570 N.am   86  GLN86      -0.0878
     71  N         -2.4270  -24.3100   88.0000 N.3   135  ASP135     -0.1239
     72  CA        -3.2490  -24.2710   89.2000 C.3   135  ASP135      0.1674
     73  C         -4.6020  -24.9050   88.8890 C.2   135  ASP135      0.2266
     74  O         -4.7850  -25.6100   87.8900 O.2   135  ASP135     -0.2867
     75  CB        -3.3980  -22.8260   89.6890 C.3   135  ASP135      0.1410
     76  CG        -4.1310  -21.9480   88.6870 C.2   135  ASP135      0.3668
     77  OD1       -3.9230  -22.1300   87.4690 O.co2 135  ASP135     -0.2456
     78  OD2       -4.9240  -21.0830   89.1140 O.co2 135  ASP135     -0.2456
     79  N         -8.4690  -23.0940   89.0640 N.3   137  CYS137     -0.1235
     80  CA        -9.4070  -22.0450   89.4470 C.3   137  CYS137      0.1677
     81  C        -10.5880  -22.7120   90.1390 C.2   137  CYS137      0.2270
     82  O        -11.4690  -23.2710   89.4870 O.2   137  CYS137     -0.2867
     83  CB        -9.8500  -21.2500   88.2250 C.3   137  CYS137      0.0956
     84  SG       -10.9700  -19.8910   88.6060 S.3   137  CYS137     -0.0801
     85  N         -0.0630  -18.4000   91.6320 N.3   180  ILE180     -0.1245
     86  CA        -1.4760  -18.0470   91.6200 C.3   180  ILE180      0.1561
     87  C         -2.0670  -18.4120   92.9730 C.2   180  ILE180      0.2260
     88  O         -2.0430  -19.5830   93.3730 O.2   180  ILE180     -0.2867
     89  CB        -2.2330  -18.7440   90.4790 C.3   180  ILE180      0.0252
     90  CG1       -1.5470  -18.4650   89.1430 C.3   180  ILE180      0.0019
     91  CG2       -3.6720  -18.2610   90.4220 C.3   180  ILE180      0.0019
     92  CD1       -2.2110  -19.1360   87.9630 C.3   180  ILE180      0.0001
     93  N         -5.0040  -19.1200   95.6120 N.3   182  GLN182     -0.1245
     94  CA        -6.3600  -19.6510   95.6000 C.3   182  GLN182      0.1566
     95  C         -6.9560  -19.5790   97.0000 C.2   182  GLN182      0.2260
     96  O         -6.3470  -19.0050   97.9070 O.2   182  GLN182     -0.2867
     97  CB        -6.3650  -21.0900   95.0790 C.3   182  GLN182      0.0367
     98  CG        -5.9360  -21.2410   93.6200 C.3   182  GLN182      0.0905
     99  CD        -6.9180  -20.6240   92.6380 C.2   182  GLN182      0.2608
    100  OE1       -8.0770  -20.3650   92.9740 O.2   182  GLN182     -0.2717
    101  NE2       -6.4590  -20.3940   91.4100 N.am  182  GLN182     -0.0878
    102  N         -5.9470  -15.6150   91.8550 N.3   208  GLY208     -0.1210
    103  CA        -6.8490  -16.4040   91.0490 C.3   208  GLY208      0.1956
    104  C         -8.1540  -16.7010   91.7720 C.2   208  GLY208      0.2612
    105  O         -8.4120  -16.2420   92.8820 O.2   208  GLY208     -0.2717
    106  N         -8.9940  -17.4850   91.0990 N.am  209  GLY209     -0.1942
    107  CA       -10.2420  -17.9120   91.6970 C.3   209  GLY209      0.2014
    108  C        -11.2930  -16.8390   91.8580 C.2   209  GLY209      0.2639
    109  O        -12.3190  -17.0920   92.4950 O.2   209  GLY209     -0.2714
    110  N        -11.0720  -15.6500   91.3100 N.am  210  LEU210     -0.1963
    111  CA       -12.0640  -14.5870   91.3000 C.3   210  LEU210      0.1728
    112  C        -12.5490  -14.3720   89.8690 C.2   210  LEU210      0.2616
    113  O        -12.1190  -15.0570   88.9350 O.2   210  LEU210     -0.2715
    114  CB       -11.4880  -13.3000   91.8960 C.3   210  LEU210      0.0311
    115  CG       -11.0590  -13.3760   93.3630 C.3   210  LEU210      0.0022
    116  CD1      -10.5470  -12.0290   93.8430 C.3   210  LEU210      0.0001
    117  CD2      -12.2080  -13.8590   94.2360 C.3   210  LEU210      0.0001
    118  N        -13.4480  -13.4020   89.7040 N.am  211  ALA211     -0.1963
    119  CA       -14.0920  -13.1360   88.4180 C.3   211  ALA211      0.1728
    120  C        -14.7250  -14.4080   87.8570 C.2   211  ALA211      0.2616
    121  O        -14.5370  -14.7710   86.6940 O.2   211  ALA211     -0.2715
    122  CB       -13.1070  -12.5240   87.4210 C.3   211  ALA211      0.0334
    123  N        -15.4740  -15.1000   88.7140 N.am  212  VAL212     -0.1977
    124  CA       -16.1430  -16.3410   88.3420 C.3   212  VAL212      0.1596
    125  C        -17.5930  -16.2850   88.8040 C.2   212  VAL212      0.2287
    126  O        -18.1860  -17.3130   89.1520 O.2   212  VAL212     -0.2864
    127  CB       -15.4220  -17.5680   88.9300 C.3   212  VAL212      0.0276
    128  CG1      -14.1870  -17.8990   88.1140 C.3   212  VAL212      0.0022
    129  CG2      -15.0440  -17.3130   90.3800 C.3   212  VAL212      0.0022
    130  N         -1.2880   -9.6080   90.2510 N.3   237  TYR237     -0.1241
    131  CA        -2.0300   -9.8630   89.0220 C.3   237  TYR237      0.1605
    132  C         -3.4100  -10.3960   89.3850 C.2   237  TYR237      0.2264
    133  O         -3.5290  -11.4820   89.9580 O.2   237  TYR237     -0.2867
    134  CB        -1.2610  -10.8550   88.1400 C.3   237  TYR237      0.0534
    135  CG        -1.9550  -11.3410   86.8770 C.ar  237  TYR237     -0.0201
    136  CD1       -3.0070  -10.6360   86.3010 C.ar  237  TYR237     -0.0009
    137  CD2       -1.5340  -12.5100   86.2530 C.ar  237  TYR237     -0.0009
    138  CE1       -3.6260  -11.0950   85.1480 C.ar  237  TYR237      0.0417
    139  CE2       -2.1410  -12.9720   85.1050 C.ar  237  TYR237      0.0417
    140  CZ        -3.1850  -12.2630   84.5560 C.ar  237  TYR237      0.1957
    141  OH        -3.7870  -12.7270   83.4090 O.3   237  TYR237     -0.2866
    142  N         -6.5030  -11.9600   87.9110 N.3   239  MET239     -0.1230
    143  CA        -6.8530  -12.6480   86.6770 C.3   239  MET239      0.1702
    144  C         -8.3480  -12.5360   86.4110 C.2   239  MET239      0.2592
    145  O         -9.1670  -12.8160   87.2910 O.2   239  MET239     -0.2718
    146  CB        -6.4380  -14.1170   86.7540 C.3   239  MET239      0.0401
    147  CG        -5.0390  -14.3380   87.3070 C.3   239  MET239      0.0596
    148  SD        -4.4330  -16.0220   87.0630 S.3   239  MET239     -0.1393
    149  CE        -4.1350  -16.0360   85.2980 C.3   239  MET239      0.0692
    150  N         -8.7030  -12.1160   85.1950 N.am  240  GLY240     -0.1957
    151  CA       -10.0850  -12.0620   84.7680 C.3   240  GLY240      0.1869
    152  C        -10.8020  -10.7520   85.0230 C.2   240  GLY240      0.2309
    153  O        -11.9360  -10.5860   84.5570 O.2   240  GLY240     -0.2863
    154  N         -6.2690   -8.5990   83.2980 N.3   259  ASP259     -0.1225
    155  CA        -6.6280   -9.1710   82.0100 C.3   259  ASP259      0.1805
    156  C         -8.1280   -9.4190   82.0110 C.2   259  ASP259      0.2598
    157  O         -8.7020   -9.7790   83.0420 O.2   259  ASP259     -0.2718
    158  CB        -5.8630  -10.4660   81.7260 C.3   259  ASP259      0.1424
    159  CG        -6.5450  -11.6890   82.3010 C.2   259  ASP259      0.3668
    160  OD1       -6.2880  -12.0210   83.4810 O.co2 259  ASP259     -0.2456
    161  OD2       -7.3390  -12.3180   81.5670 O.co2 259  ASP259     -0.2456
    162  N         -8.7550   -9.2280   80.8540 N.am  260  CYS260     -0.1956
    163  CA       -10.2030   -9.3460   80.7670 C.3   260  CYS260      0.1843
    164  C        -10.6110   -9.4780   79.3080 C.2   260  CYS260      0.2625
    165  O        -10.0130   -8.8520   78.4300 O.2   260  CYS260     -0.2714
    166  CB       -10.8940   -8.1330   81.4030 C.3   260  CYS260      0.0997
    167  SG       -12.6730   -8.3210   81.6060 S.3   260  CYS260     -0.0797
    168  N        -11.6440  -10.2910   79.0630 N.am  261  VAL261     -0.1977
    169  CA       -12.1740  -10.4630   77.7150 C.3   261  VAL261      0.1596
    170  C        -13.3450   -9.5280   77.4400 C.2   261  VAL261      0.2287
    171  O        -13.8520   -9.4950   76.3090 O.2   261  VAL261     -0.2864
    172  CB       -12.5740  -11.9380   77.4860 C.3   261  VAL261      0.0276
    173  CG1      -13.9420  -12.2300   78.0890 C.3   261  VAL261      0.0022
    174  CG2      -12.5260  -12.2940   76.0010 C.3   261  VAL261      0.0022
@<TRIPOS>BOND
     1     4     3    2
     2     3     2    1
     3     6     5    1
     4    11    10    2
     5    23    22    2
     6     5     2    1
     7     5     7    1
     8     2     1    1
     9    17    18    1
    10    17    16    1
    11    24    21    1
    12    24    25    1
    13    20    18   am
    14    20    21    1
    15    10    16   am
    16    10     9    1
    17    22    21    1
    18    18    19    2
    19    27    25   am
    20    25    26    2
    21     8     9    1
    22   174   172    1
    23   171   170    2
    24     9    12    1
    25   170   169    1
    26   172   169    1
    27   172   173    1
    28    12    13    1
    29   169   168    1
    30    31    30    2
    31    28    29    1
    32   165   164    2
    33    13    15    1
    34    13    14    1
    35    30    29    1
    36   168   164   am
    37    29    32    1
    38   164   163    1
    39    67    68    1
    40    67    66    1
    41    70    68   am
    42    68    69    2
    43    36    37    1
    44    32    33    1
    45    39    38    2
    46    66    63    1
    47   163   162    1
    48   163   166    1
    49   162   156   am
    50    40    37    1
    51    40    41    1
    52    37    38    1
    53    38    44   am
    54    35    33    1
    55   166   167    1
    56    33    34    1
    57   161   159   ar
    58   158   155    1
    59   158   159    1
    60    63    64    1
    61    63    62    1
    62    47    46    2
    63   155   156    1
    64   155   154    1
    65   156   157    2
    66    46    45    1
    67    65    64    2
    68   159   160   ar
    69    44    45    1
    70    59    57   ar
    71    59    60   ar
    72    57    55   ar
    73    62    52   am
    74    45    48    1
    75    41    43   ar
    76    41    42   ar
    77    61    60    1
    78   141   140    1
    79    60    58   ar
    80    52    53    2
    81    52    51    1
    82    55    54    1
    83    55    56   ar
    84    54    51    1
    85    48    49    1
    86    51    50    1
    87   140   139   ar
    88   140   138   ar
    89   153   152    2
    90    58    56   ar
    91   151   152    1
    92   151   150    1
    93   139   137   ar
    94   138   136   ar
    95   150   144   am
    96   149   148    1
    97   137   135   ar
    98   136   135   ar
    99   144   143    1
   100   144   145    2
   101   143   146    1
   102   143   142    1
   103   121   120    2
   104   146   147    1
   105   135   134    1
   106   148   147    1
   107   122   119    1
   108    77    76   ar
   109   120   119    1
   110   120   123   am
   111    74    73    2
   112    92    90    1
   113    71    72    1
   114   128   127    1
   115   134   131    1
   116    83    84    1
   117    83    80    1
   118   124   123    1
   119   124   125    1
   120   124   127    1
   121   119   118    1
   122    76    78   ar
   123    76    75    1
   124   125   126    2
   125    73    72    1
   126   127   129    1
   127   113   112    2
   128   131   132    1
   129   131   130    1
   130    79    80    1
   131    90    89    1
   132    72    75    1
   133   132   133    2
   134    80    81    1
   135    82    81    2
   136   118   112   am
   137   112   111    1
   138    91    89    1
   139    89    86    1
   140   103   104    1
   141   103   102    1
   142   106   107    1
   143   106   104   am
   144   111   110    1
   145   111   114    1
   146   110   108   am
   147   101    99   am
   148    86    85    1
   149    86    87    1
   150   107   108    1
   151   104   105    2
   152   108   109    2
   153   114   115    1
   154    99   100    2
   155    99    98    1
   156    87    88    2
   157   115   116    1
   158   115   117    1
   159    98    97    1
   160    97    94    1
   161    94    93    1
   162    94    95    1
   163    95    96    2
