@<TRIPOS>MOLECULE
tmp/5lpsA00.pdb
 111 103 0 0 0
SMALL
GASTEIGER

@<TRIPOS>ATOM
      1  N         93.7740   11.9520   22.7700 N.3    80  ASP80      -0.1225
      2  CA        94.6280   12.9300   23.4460 C.3    80  ASP80       0.1805
      3  C         93.8650   13.5710   24.6150 C.2    80  ASP80       0.2598
      4  O         92.6650   13.3650   24.8100 O.2    80  ASP80      -0.2718
      5  CB        95.1890   13.9870   22.4650 C.3    80  ASP80       0.1424
      6  CG        96.5170   14.6680   22.9630 C.2    80  ASP80       0.3668
      7  OD1       97.0060   14.3270   24.0910 O.co2  80  ASP80      -0.2456
      8  OD2       97.0600   15.5610   22.2170 O.co2  80  ASP80      -0.2456
      9  N         94.5870   14.3510   25.4130 N.am   81  SER81      -0.1952
     10  CA        94.0510   14.9150   26.6470 C.3    81  SER81       0.1924
     11  C         93.2730   16.2100   26.4360 C.2    81  SER81       0.2314
     12  O         92.6120   16.6750   27.3690 O.2    81  SER81      -0.2863
     13  CB        95.1540   15.0730   27.7020 C.3    81  SER81       0.2116
     14  OG        96.3020   15.6970   27.1610 O.3    81  SER81      -0.2180
     15  N         96.2940   20.3410   24.0200 N.3    84  TYR84      -0.1241
     16  CA        97.0040   20.8320   22.8460 C.3    84  TYR84       0.1605
     17  C         96.0160   21.5350   21.9260 C.2    84  TYR84       0.2264
     18  O         96.2280   22.6820   21.5440 O.2    84  TYR84      -0.2867
     19  CB        97.6860   19.6780   22.1100 C.3    84  TYR84       0.0534
     20  CG        98.5880   20.0940   20.9680 C.ar   84  TYR84      -0.0201
     21  CD1       98.0750   20.3220   19.6960 C.ar   84  TYR84      -0.0009
     22  CD2       99.9550   20.2460   21.1570 C.ar   84  TYR84      -0.0009
     23  CE1       98.8960   20.6910   18.6480 C.ar   84  TYR84       0.0417
     24  CE2      100.7830   20.6130   20.1170 C.ar   84  TYR84       0.0417
     25  CZ       100.2490   20.8370   18.8640 C.ar   84  TYR84       0.1957
     26  OH       101.0740   21.2040   17.8230 O.3    84  TYR84      -0.2866
     27  N         98.7680   17.4510   29.8660 N.3   124  ASP124     -0.1239
     28  CA       100.0780   18.0890   29.9280 C.3   124  ASP124      0.1674
     29  C         99.9810   19.5100   29.3880 C.2   124  ASP124      0.2266
     30  O         98.9100   19.9920   29.0080 O.2   124  ASP124     -0.2867
     31  CB       101.1210   17.2960   29.1220 C.3   124  ASP124      0.1410
     32  CG       100.8160   17.2590   27.6280 C.2   124  ASP124      0.3668
     33  OD1       99.6240   17.3190   27.2510 O.co2 124  ASP124     -0.2456
     34  OD2      101.7800   17.1660   26.8410 O.co2 124  ASP124     -0.2456
     35  N        102.0420   21.4240   26.3360 N.3   126  CYS126     -0.1235
     36  CA       103.0260   21.3290   25.2560 C.3   126  CYS126      0.1677
     37  C        103.7670   22.6550   25.1610 C.2   126  CYS126      0.2270
     38  O        103.1940   23.6660   24.7430 O.2   126  CYS126     -0.2867
     39  CB       102.3660   20.9740   23.9240 C.3   126  CYS126      0.0956
     40  SG       103.5330   20.7850   22.5250 S.3   126  CYS126     -0.0801
     41  N        103.4230   11.8980   29.4970 N.3   169  ILE169     -0.1245
     42  CA       104.0370   12.6670   28.4100 C.3   169  ILE169      0.1561
     43  C        105.2660   13.4090   28.9330 C.2   169  ILE169      0.2260
     44  O        105.1590   14.2950   29.7970 O.2   169  ILE169     -0.2867
     45  CB       103.0480   13.6350   27.7460 C.3   169  ILE169      0.0252
     46  CG1      101.7740   12.9010   27.3320 C.3   169  ILE169      0.0019
     47  CG2      103.7080   14.3540   26.5680 C.3   169  ILE169      0.0019
     48  CD1      100.6850   13.8110   26.8170 C.3   169  ILE169      0.0001
     49  N        108.1570   16.1190   28.8510 N.3   171  GLN171     -0.1245
     50  CA       108.3870   17.4600   28.3280 C.3   171  GLN171      0.1566
     51  C        109.8250   17.8820   28.6060 C.2   171  GLN171      0.2260
     52  O        110.6750   17.0270   28.8760 O.2   171  GLN171     -0.2867
     53  CB       107.3550   18.4550   28.8690 C.3   171  GLN171      0.0367
     54  CG       105.9090   18.1160   28.4870 C.3   171  GLN171      0.0905
     55  CD       105.6050   18.3830   27.0160 C.2   171  GLN171      0.2608
     56  OE1      106.3760   19.0390   26.3170 O.2   171  GLN171     -0.2717
     57  NE2      104.4810   17.8580   26.5400 N.am  171  GLN171     -0.0878
     58  N        106.6470   14.2430   24.3040 N.3   197  GLY197     -0.1210
     59  CA       105.9080   15.4270   23.9340 C.3   197  GLY197      0.1956
     60  C        106.8320   16.5700   23.5870 C.2   197  GLY197      0.2612
     61  O        108.0550   16.4760   23.6710 O.2   197  GLY197     -0.2717
     62  N        106.2240   17.6650   23.1490 N.am  198  GLY198     -0.1942
     63  CA       106.9650   18.8890   22.9530 C.3   198  GLY198      0.2014
     64  C        107.8330   18.9360   21.7190 C.2   198  GLY198      0.2639
     65  O        108.6450   19.8580   21.5970 O.2   198  GLY198     -0.2714
     66  N        107.7000   17.9790   20.8030 N.am  199  LEU199     -0.1963
     67  CA       108.4290   17.9970   19.5410 C.3   199  LEU199      0.1728
     68  C        107.4530   18.1470   18.3750 C.2   199  LEU199      0.2616
     69  O        106.2290   18.1720   18.5540 O.2   199  LEU199     -0.2715
     70  CB       109.3210   16.7590   19.4090 C.3   199  LEU199      0.0311
     71  CG       110.4200   16.6770   20.4770 C.3   199  LEU199      0.0022
     72  CD1      111.1900   15.3620   20.3810 C.3   199  LEU199      0.0001
     73  CD2      111.3740   17.8640   20.3790 C.3   199  LEU199      0.0001
     74  N        108.0100   18.2590   17.1670 N.am  200  ALA200     -0.1963
     75  CA       107.2210   18.5750   15.9760 C.3   200  ALA200      0.1728
     76  C        106.4210   19.8580   16.1870 C.2   200  ALA200      0.2616
     77  O        105.2360   19.9420   15.8570 O.2   200  ALA200     -0.2715
     78  CB       106.3300   17.4040   15.5500 C.3   200  ALA200      0.0334
     79  N        107.0780   20.8600   16.7670 N.am  201  VAL201     -0.1977
     80  CA       106.4460   22.1440   17.0610 C.3   201  VAL201      0.1596
     81  C        107.2560   23.2750   16.4440 C.2   201  VAL201      0.2287
     82  O        107.2110   24.4160   16.9170 O.2   201  VAL201     -0.2864
     83  CB       106.2670   22.3510   18.5760 C.3   201  VAL201      0.0276
     84  CG1      105.2490   21.3690   19.1300 C.3   201  VAL201      0.0022
     85  CG2      107.5990   22.2010   19.2880 C.3   201  VAL201      0.0022
     86  N        104.6350   12.0770   19.8070 N.3   228  MET228     -0.1230
     87  CA       103.3980   12.7680   19.4590 C.3   228  MET228      0.1702
     88  C        103.6010   13.7410   18.3060 C.2   228  MET228      0.2592
     89  O        104.5600   14.5190   18.2910 O.2   228  MET228     -0.2718
     90  CB       102.8480   13.5220   20.6650 C.3   228  MET228      0.0401
     91  CG       102.6550   12.6070   21.8620 C.3   228  MET228      0.0596
     92  SD       101.7280   13.3520   23.2120 S.3   228  MET228     -0.1393
     93  CE       100.0620   13.1710   22.5850 C.3   228  MET228      0.0692
     94  N        102.6850   13.6880   17.3400 N.am  229  GLY229     -0.1957
     95  CA       102.6630   14.6470   16.2550 C.3   229  GLY229      0.1869
     96  C        103.5810   14.3380   15.1000 C.2   229  GLY229      0.2309
     97  O        103.7040   15.1750   14.2010 O.2   229  GLY229     -0.2863
     98  N        101.5000    9.2090   15.4600 N.3   248  ASP248     -0.1225
     99  CA       100.2630    9.8220   14.9980 C.3   248  ASP248      0.1805
    100  C        100.6480   11.0610   14.2040 C.2   248  ASP248      0.2598
    101  O        101.6290   11.7320   14.5360 O.2   248  ASP248     -0.2718
    102  CB        99.3660   10.2380   16.1800 C.3   248  ASP248      0.1424
    103  CG        99.6420   11.6490   16.6600 C.2   248  ASP248      0.3668
    104  OD1      100.5000   11.8350   17.5520 O.co2 248  ASP248     -0.2456
    105  OD2       98.9950   12.5830   16.1420 O.co2 248  ASP248     -0.2456
    106  N         99.8940   11.3530   13.1420 N.am  249  CYS249     -0.1970
    107  CA       100.1770   12.5300   12.3320 C.3   249  CYS249      0.1712
    108  C         98.9760   12.8340   11.4540 C.2   249  CYS249      0.2296
    109  O         98.3960   11.9280   10.8530 O.2   249  CYS249     -0.2864
    110  CB       101.4190   12.3270   11.4550 C.3   249  CYS249      0.0983
    111  SG       101.9390   13.8180   10.5850 S.3   249  CYS249     -0.0798
@<TRIPOS>BOND
     1   111   110    1
     2   109   108    2
     3   108   107    1
     4   110   107    1
     5   107   106    1
     6   106   100   am
     7    97    96    2
     8   100   101    2
     9   100    99    1
    10    99    98    1
    11    99   102    1
    12    96    95    1
    13    78    75    1
    14    77    76    2
    15    75    76    1
    16    75    74    1
    17   105   103   ar
    18   102   103    1
    19    76    79   am
    20    95    94    1
    21    81    82    2
    22    81    80    1
    23   103   104   ar
    24    79    80    1
    25    80    83    1
    26    74    68   am
    27    94    88   am
    28    26    25    1
    29    89    88    2
    30    88    87    1
    31    68    69    2
    32    68    67    1
    33    83    84    1
    34    83    85    1
    35    23    25   ar
    36    23    21   ar
    37    25    24   ar
    38    70    67    1
    39    70    71    1
    40    87    86    1
    41    87    90    1
    42    67    66    1
    43    21    20   ar
    44    24    22   ar
    45    73    71    1
    46    72    71    1
    47    90    91    1
    48    66    64   am
    49    20    22   ar
    50    20    19    1
    51    18    17    2
    52    65    64    2
    53    64    63    1
    54    91    92    1
    55    17    16    1
    56    19    16    1
    57     8     6   ar
    58     5     6    1
    59     5     2    1
    60    40    39    1
    61    93    92    1
    62     1     2    1
    63    16    15    1
    64    63    62    1
    65     6     7   ar
    66    62    60   am
    67     2     3    1
    68    60    61    2
    69    60    59    1
    70    39    36    1
    71    59    58    1
    72     3     4    2
    73     3     9   am
    74    38    37    2
    75    37    36    1
    76    36    35    1
    77     9    10    1
    78    56    55    2
    79    11    10    1
    80    11    12    2
    81    57    55   am
    82    47    45    1
    83    10    13    1
    84    48    46    1
    85    34    32   ar
    86    55    54    1
    87    14    13    1
    88    33    32   ar
    89    46    45    1
    90    32    31    1
    91    45    42    1
    92    50    51    1
    93    50    49    1
    94    50    53    1
    95    42    43    1
    96    42    41    1
    97    54    53    1
    98    51    52    2
    99    43    44    2
   100    30    29    2
   101    31    28    1
   102    29    28    1
   103    27    28    1
