@<TRIPOS>MOLECULE
tmp/5lptB00.pdb
 182 171 0 0 0
SMALL
GASTEIGER

@<TRIPOS>ATOM
      1  N        -16.3310  -16.1390   52.3740 N.3    36  VAL36      -0.1245
      2  CA       -15.6610  -14.8680   52.6180 C.3    36  VAL36       0.1561
      3  C        -14.1740  -15.1210   52.8160 C.2    36  VAL36       0.2260
      4  O        -13.7780  -15.9750   53.6210 O.2    36  VAL36      -0.2867
      5  CB       -16.2660  -14.1620   53.8420 C.3    36  VAL36       0.0252
      6  CG1      -15.5040  -12.8640   54.1330 C.3    36  VAL36       0.0019
      7  CG2      -17.7360  -13.8770   53.6230 C.3    36  VAL36       0.0019
      8  N        -14.2740  -14.4890   48.4320 N.3    49  LEU49      -0.1231
      9  CA       -14.8880  -13.1910   48.2270 C.3    49  LEU49       0.1693
     10  C        -14.2110  -12.1110   49.0530 C.2    49  LEU49       0.2593
     11  O        -13.6890  -12.3720   50.1390 O.2    49  LEU49      -0.2718
     12  CB       -16.3660  -13.2270   48.5910 C.3    49  LEU49       0.0284
     13  CG       -17.1670  -14.3770   48.0150 C.3    49  LEU49       0.0019
     14  CD1      -18.6230  -14.1600   48.3190 C.3    49  LEU49       0.0001
     15  CD2      -16.9240  -14.4740   46.5330 C.3    49  LEU49       0.0001
     16  N        -14.2810  -10.8800   48.5490 N.am   50  GLY50      -0.1942
     17  CA       -13.8080   -9.7280   49.2900 C.3    50  GLY50       0.2014
     18  C        -14.9180   -8.7360   49.5860 C.2    50  GLY50       0.2638
     19  O        -15.6920   -8.3860   48.6840 O.2    50  GLY50      -0.2714
     20  N        -15.0360   -8.3060   50.8500 N.am   51  ASN51      -0.1972
     21  CA       -15.9880   -7.2600   51.2210 C.3    51  ASN51       0.1688
     22  C        -15.4100   -5.9160   50.7950 C.2    51  ASN51       0.2292
     23  O        -14.6570   -5.2790   51.5400 O.2    51  ASN51      -0.2864
     24  CB       -16.2860   -7.2820   52.7120 C.3    51  ASN51       0.1181
     25  CG       -17.4140   -6.3230   53.0930 C.2    51  ASN51       0.2629
     26  OD1      -17.8250   -5.4700   52.2910 O.2    51  ASN51      -0.2716
     27  ND2      -17.9090   -6.4470   54.3250 N.am   51  ASN51      -0.0877
     28  N        -13.9900  -13.0270   43.8510 N.3    81  LEU81      -0.1245
     29  CA       -15.1220  -12.1760   43.5120 C.3    81  LEU81       0.1561
     30  C        -15.2430  -11.0670   44.5520 C.2    81  LEU81       0.2260
     31  O        -14.9680  -11.2820   45.7380 O.2    81  LEU81      -0.2867
     32  CB       -16.4130  -12.9920   43.4420 C.3    81  LEU81       0.0270
     33  CG       -17.7710  -12.3430   43.1570 C.3    81  LEU81       0.0019
     34  CD1      -18.7300  -13.3660   42.5280 C.3    81  LEU81       0.0001
     35  CD2      -18.3900  -11.7650   44.4130 C.3    81  LEU81       0.0001
     36  N        -17.9110   -7.8190   45.8730 N.3    83  ASP83      -0.1225
     37  CA       -19.1770   -7.1200   45.7760 C.3    83  ASP83       0.1805
     38  C        -18.9220   -5.6610   45.4000 C.2    83  ASP83       0.2598
     39  O        -17.7900   -5.1710   45.4230 O.2    83  ASP83      -0.2718
     40  CB       -19.9480   -7.2150   47.0890 C.3    83  ASP83       0.1424
     41  CG       -21.4600   -7.1110   46.8960 C.2    83  ASP83       0.3668
     42  OD1      -21.9420   -6.8890   45.7610 O.co2  83  ASP83      -0.2456
     43  OD2      -22.1760   -7.2330   47.9020 O.co2  83  ASP83      -0.2456
     44  N        -19.9880   -4.9560   45.0520 N.am   84  SER84      -0.1952
     45  CA       -19.8390   -3.6120   44.5050 C.3    84  SER84       0.1924
     46  C        -20.0880   -2.5010   45.5120 C.2    84  SER84       0.2314
     47  O        -19.6810   -1.3590   45.2630 O.2    84  SER84      -0.2863
     48  CB       -20.7920   -3.4310   43.3230 C.3    84  SER84       0.2116
     49  OG       -22.1440   -3.5450   43.7490 O.3    84  SER84      -0.2180
     50  N        -25.0690   -3.4360   48.3660 N.3    87  TYR87      -0.1227
     51  CA       -25.7740   -3.8540   49.5680 C.3    87  TYR87       0.1736
     52  C        -25.6150   -2.8230   50.6810 C.2    87  TYR87       0.2595
     53  O        -26.5790   -2.5260   51.3990 O.2    87  TYR87      -0.2718
     54  CB       -25.2760   -5.2220   50.0330 C.3    87  TYR87       0.0548
     55  CG       -26.1010   -5.7870   51.1650 C.ar   87  TYR87      -0.0200
     56  CD1      -27.3090   -6.4350   50.9120 C.ar   87  TYR87      -0.0009
     57  CD2      -25.6930   -5.6470   52.4880 C.ar   87  TYR87      -0.0009
     58  CE1      -28.0740   -6.9470   51.9400 C.ar   87  TYR87       0.0417
     59  CE2      -26.4560   -6.1550   53.5250 C.ar   87  TYR87       0.0417
     60  CZ       -27.6440   -6.7990   53.2460 C.ar   87  TYR87       0.1957
     61  OH       -28.4090   -7.2990   54.2690 O.3    87  TYR87      -0.2866
     62  N        -24.4100   -2.2620   50.8330 N.am   88  GLN88      -0.1979
     63  CA       -24.2170   -1.2310   51.8460 C.3    88  GLN88       0.1601
     64  C        -24.9340    0.0530   51.4900 C.2    88  GLN88       0.2287
     65  O        -25.2470    0.8280   52.3970 O.2    88  GLN88      -0.2864
     66  CB       -22.7360   -0.9260   52.0740 C.3    88  GLN88       0.0394
     67  CG       -21.9740   -2.0060   52.8370 C.3    88  GLN88       0.0908
     68  CD       -21.4480   -3.0860   51.9160 C.2    88  GLN88       0.2608
     69  OE1      -21.4470   -2.9270   50.6940 O.2    88  GLN88      -0.2717
     70  NE2      -20.9900   -4.1860   52.4950 N.am   88  GLN88      -0.0878
     71  N        -24.9810   -1.7040   42.1480 N.3   137  ASP137     -0.1239
     72  CA       -26.4320   -1.6980   42.1260 C.3   137  ASP137      0.1674
     73  C        -26.9650   -1.0440   43.3890 C.2   137  ASP137      0.2266
     74  O        -26.2310   -0.3380   44.0890 O.2   137  ASP137     -0.2867
     75  CB       -26.9460   -3.1320   42.0030 C.3   137  ASP137      0.1410
     76  CG       -26.6020   -3.9950   43.2270 C.2   137  ASP137      0.3668
     77  OD1      -25.5400   -3.7800   43.8730 O.co2 137  ASP137     -0.2456
     78  OD2      -27.4140   -4.8950   43.5400 O.co2 137  ASP137     -0.2456
     79  N        -29.3420   -2.8890   46.4170 N.3   139  CYS139     -0.1235
     80  CA       -30.2080   -3.9310   46.9620 C.3   139  CYS139      0.1677
     81  C        -31.4320   -3.2650   47.5740 C.2   139  CYS139      0.2270
     82  O        -31.3740   -2.7070   48.6700 O.2   139  CYS139     -0.2867
     83  CB       -29.4620   -4.7670   47.9930 C.3   139  CYS139      0.0956
     84  SG       -30.5250   -5.9420   48.8640 S.3   139  CYS139     -0.0801
     85  N        -26.6620   -7.4360   38.0680 N.3   182  ILE182     -0.1245
     86  CA       -27.4600   -7.7740   39.2380 C.3   182  ILE182      0.1561
     87  C        -28.9090   -7.4120   38.9750 C.2   182  ILE182      0.2260
     88  O        -29.2360   -6.2360   38.7590 O.2   182  ILE182     -0.2867
     89  CB       -26.9440   -7.0860   40.5100 C.3   182  ILE182      0.0252
     90  CG1      -25.4900   -7.4870   40.7750 C.3   182  ILE182      0.0019
     91  CG2      -27.8040   -7.4810   41.6970 C.3   182  ILE182      0.0019
     92  CD1      -24.9050   -6.8710   42.0400 C.3   182  ILE182      0.0001
     93  N        -32.6810   -6.6740   39.9220 N.3   184  GLN184     -0.1245
     94  CA       -33.4850   -6.1540   41.0210 C.3   184  GLN184      0.1566
     95  C        -34.9710   -6.2610   40.6820 C.2   184  GLN184      0.2260
     96  O        -35.3550   -7.0220   39.7900 O.2   184  GLN184     -0.2867
     97  CB       -33.0830   -4.7110   41.3480 C.3   184  GLN184      0.0367
     98  CG       -31.6700   -4.5650   41.9170 C.3   184  GLN184      0.0905
     99  CD       -31.4860   -5.2360   43.2890 C.2   184  GLN184      0.2608
    100  OE1      -32.4580   -5.5850   43.9700 O.2   184  GLN184     -0.2717
    101  NE2      -30.2290   -5.3940   43.7040 N.am  184  GLN184     -0.0878
    102  N        -30.2440  -10.3070   42.7010 N.3   210  GLY210     -0.1210
    103  CA       -30.1080   -9.4590   43.8640 C.3   210  GLY210      0.1956
    104  C        -31.4340   -9.2090   44.5550 C.2   210  GLY210      0.2612
    105  O        -32.4900   -9.6890   44.1360 O.2   210  GLY210     -0.2717
    106  N        -31.3580   -8.4360   45.6420 N.am  211  GLY211     -0.1942
    107  CA       -32.5470   -8.0030   46.3490 C.3   211  GLY211      0.2014
    108  C        -33.3130   -9.0810   47.0830 C.2   211  GLY211      0.2639
    109  O        -34.4890   -8.8830   47.3990 O.2   211  GLY211     -0.2714
    110  N        -32.7020  -10.2290   47.3330 N.am  212  LEU212     -0.1963
    111  CA       -33.3210  -11.2980   48.1060 C.3   212  LEU212      0.1728
    112  C        -32.4970  -11.5620   49.3640 C.2   212  LEU212      0.2616
    113  O        -31.4360  -10.9670   49.5710 O.2   212  LEU212     -0.2715
    114  CB       -33.4630  -12.5630   47.2610 C.3   212  LEU212      0.0311
    115  CG       -34.4820  -12.3910   46.1370 C.3   212  LEU212      0.0022
    116  CD1      -34.5860  -13.6750   45.3080 C.3   212  LEU212      0.0001
    117  CD2      -35.8370  -12.0010   46.7300 C.3   212  LEU212      0.0001
    118  N        -32.9900  -12.4750   50.2030 N.am  213  ALA213     -0.1963
    119  CA       -32.3960  -12.7300   51.5160 C.3   213  ALA213      0.1728
    120  C        -32.2790  -11.4230   52.2970 C.2   213  ALA213      0.2616
    121  O        -31.2080  -11.0380   52.7680 O.2   213  ALA213     -0.2715
    122  CB       -31.0400  -13.4210   51.3860 C.3   213  ALA213      0.0334
    123  N        -33.3980  -10.7120   52.3800 N.am  214  VAL214     -0.1977
    124  CA       -33.4570   -9.4250   53.0560 C.3   214  VAL214      0.1596
    125  C        -34.6700   -9.4150   53.9710 C.2   214  VAL214      0.2287
    126  O        -35.2440   -8.3560   54.2460 O.2   214  VAL214     -0.2864
    127  CB       -33.5180   -8.2700   52.0440 C.3   214  VAL214      0.0276
    128  CG1      -32.1560   -8.0450   51.4270 C.3   214  VAL214      0.0022
    129  CG2      -34.5180   -8.5940   50.9740 C.3   214  VAL214      0.0022
    130  N        -26.2090  -16.2550   40.0220 N.3   239  TYR239     -0.1241
    131  CA       -25.6030  -16.0230   41.3270 C.3   239  TYR239      0.1605
    132  C        -26.6590  -15.4330   42.2540 C.2   239  TYR239      0.2264
    133  O        -27.1550  -14.3290   42.0150 O.2   239  TYR239     -0.2867
    134  CB       -24.3980  -15.0960   41.1630 C.3   239  TYR239      0.0534
    135  CG       -23.7830  -14.5510   42.4250 C.ar  239  TYR239     -0.0201
    136  CD1      -23.8950  -15.2170   43.6440 C.ar  239  TYR239     -0.0009
    137  CD2      -23.0930  -13.3440   42.3970 C.ar  239  TYR239     -0.0009
    138  CE1      -23.3270  -14.6880   44.8000 C.ar  239  TYR239      0.0417
    139  CE2      -22.5220  -12.8200   43.5310 C.ar  239  TYR239      0.0417
    140  CZ       -22.6430  -13.4900   44.7280 C.ar  239  TYR239      0.1957
    141  OH       -22.0660  -12.9440   45.8330 O.3   239  TYR239     -0.2866
    142  N        -27.3050  -13.8110   45.5880 N.3   241  MET241     -0.1230
    143  CA       -26.5010  -13.0910   46.5630 C.3   241  MET241      0.1702
    144  C        -27.1070  -13.2120   47.9590 C.2   241  MET241      0.2592
    145  O        -28.3130  -13.0230   48.1440 O.2   241  MET241     -0.2718
    146  CB       -26.3900  -11.6250   46.1520 C.3   241  MET241      0.0401
    147  CG       -25.9090  -11.4200   44.7120 C.3   241  MET241      0.0596
    148  SD       -25.4190   -9.7160   44.3300 S.3   241  MET241     -0.1393
    149  CE       -23.8110   -9.6860   45.1200 C.3   241  MET241      0.0692
    150  N        -26.2700  -13.5210   48.9440 N.am  242  GLY242     -0.1957
    151  CA       -26.7100  -13.5610   50.3230 C.3   242  GLY242      0.1869
    152  C        -27.3300  -14.8640   50.7790 C.2   242  GLY242      0.2309
    153  O        -27.7100  -14.9720   51.9500 O.2   242  GLY242     -0.2863
    154  N        -23.3870  -17.1760   48.1990 N.3   261  ASP261     -0.1225
    155  CA       -22.5510  -16.6010   49.2400 C.3   261  ASP261      0.1805
    156  C        -23.4390  -16.2520   50.4190 C.2   261  ASP261      0.2598
    157  O        -24.6110  -15.8960   50.2400 O.2   261  ASP261     -0.2718
    158  CB       -21.8270  -15.3380   48.7690 C.3   261  ASP261      0.1424
    159  CG       -22.6850  -14.0830   48.9160 C.2   261  ASP261      0.3668
    160  OD1      -22.6770  -13.4820   50.0080 O.co2 261  ASP261     -0.2456
    161  OD2      -23.3760  -13.6960   47.9440 O.co2 261  ASP261     -0.2456
    162  N        -22.8600  -16.3300   51.6190 N.am  262  CYS262     -0.1956
    163  CA       -23.5050  -15.8730   52.8480 C.3   262  CYS262      0.1843
    164  C        -22.5190  -16.0200   53.9950 C.2   262  CYS262      0.2625
    165  O        -21.5500  -16.7820   53.9130 O.2   262  CYS262     -0.2714
    166  CB       -24.7920  -16.6450   53.1590 C.3   262  CYS262      0.0997
    167  SG       -24.5070  -18.2750   53.8500 S.3   262  CYS262     -0.0797
    168  N        -22.7840  -15.2780   55.0720 N.am  263  VAL263     -0.1963
    169  CA       -21.8870  -15.2560   56.2170 C.3   263  VAL263      0.1727
    170  C        -22.3480  -16.1860   57.3190 C.2   263  VAL263      0.2616
    171  O        -21.7360  -16.2130   58.3910 O.2   263  VAL263     -0.2715
    172  CB       -21.7090  -13.8190   56.7500 C.3   263  VAL263      0.0290
    173  CG1      -21.0360  -12.9660   55.6800 C.3   263  VAL263      0.0023
    174  CG2      -23.0520  -13.2180   57.1550 C.3   263  VAL263      0.0023
    175  N        -23.4130  -16.9500   57.0830 N.am  264  LEU264     -0.1977
    176  CA       -23.9380  -17.8290   58.1210 C.3   264  LEU264      0.1596
    177  C        -22.9350  -18.8460   58.6530 C.2   264  LEU264      0.2287
    178  O        -22.9250  -19.0570   59.8750 O.2   264  LEU264     -0.2864
    179  CB       -25.2000  -18.5280   57.6070 C.3   264  LEU264      0.0297
    180  CG       -26.4190  -17.6080   57.4770 C.3   264  LEU264      0.0022
    181  CD1      -26.7630  -16.9090   58.7670 C.3   264  LEU264      0.0001
    182  CD2      -26.3060  -16.6050   56.3440 C.3   264  LEU264      0.0001
@<TRIPOS>BOND
     1    85    86    1
     2    88    87    2
     3    87    86    1
     4    86    89    1
     5    96    95    2
     6    93    94    1
     7   130   131    1
     8    89    90    1
     9    89    91    1
    10    95    94    1
    11    90    92    1
    12    94    97    1
    13   134   131    1
    14   134   135    1
    15   131   132    1
    16    97    98    1
    17    98    99    1
    18    75    72    1
    19    75    76    1
    20   133   132    2
    21    72    71    1
    22    72    73    1
    23   137   135   ar
    24   137   139   ar
    25   135   136   ar
    26    34    33    1
    27   102   103    1
    28    33    32    1
    29    33    35    1
    30    76    78   ar
    31    76    77   ar
    32    99   101   am
    33    99   100    2
    34    48    49    1
    35    48    45    1
    36    73    74    2
    37    32    29    1
    38    29    28    1
    39    29    30    1
    40   139   140   ar
    41   136   138   ar
    42   103   104    1
    43   105   104    2
    44   148   147    1
    45   148   149    1
    46    45    44    1
    47    45    46    1
    48    30    31    2
    49   104   106   am
    50   147   146    1
    51   140   138   ar
    52   140   141    1
    53    44    38   am
    54    47    46    2
    55   116   115    1
    56    38    39    2
    57    38    37    1
    58   142   143    1
    59   106   107    1
    60    42    41   ar
    61    37    36    1
    62    37    40    1
    63   115   117    1
    64   115   114    1
    65   146   143    1
    66   107   108    1
    67    79    80    1
    68    15    13    1
    69   143   144    1
    70    41    40    1
    71    41    43   ar
    72    80    81    1
    73    80    83    1
    74   108   110   am
    75   108   109    2
    76   114   111    1
    77   110   111    1
    78    81    82    2
    79   161   159   ar
    80   144   145    2
    81   144   150   am
    82    83    84    1
    83    13    14    1
    84    13    12    1
    85   111   112    1
    86   154   155    1
    87     9     8    1
    88     9    12    1
    89     9    10    1
    90    50    51    1
    91    16    10   am
    92    16    17    1
    93    19    18    2
    94   158   159    1
    95   158   155    1
    96   159   160   ar
    97   150   151    1
    98    10    11    2
    99   155   156    1
   100    17    18    1
   101   112   113    2
   102   112   118   am
   103    51    54    1
   104    51    52    1
   105    18    20   am
   106    54    55    1
   107   118   119    1
   108   157   156    2
   109   151   152    1
   110   156   162   am
   111    52    62   am
   112    52    53    2
   113    69    68    2
   114   152   153    2
   115    22    21    1
   116    22    23    2
   117    62    63    1
   118    20    21    1
   119    56    55   ar
   120    56    58   ar
   121   129   127    1
   122    55    57   ar
   123    21    24    1
   124   122   119    1
   125   128   127    1
   126    64    63    1
   127    64    65    2
   128   119   120    1
   129   162   163    1
   130    63    66    1
   131    68    70   am
   132    68    67    1
   133    58    60   ar
   134   127   124    1
   135    66    67    1
   136    26    25    2
   137   120   123   am
   138   120   121    2
   139     1     2    1
   140   123   124    1
   141    57    59   ar
   142     2     3    1
   143     2     5    1
   144    24    25    1
   145     3     4    2
   146   163   166    1
   147   163   164    1
   148   124   125    1
   149    25    27   am
   150   166   167    1
   151    60    59   ar
   152    60    61    1
   153     7     5    1
   154     5     6    1
   155   165   164    2
   156   125   126    2
   157   164   168   am
   158   168   169    1
   159   173   172    1
   160   169   172    1
   161   169   170    1
   162   182   180    1
   163   172   174    1
   164   175   170   am
   165   175   176    1
   166   170   171    2
   167   180   179    1
   168   180   181    1
   169   179   176    1
   170   176   177    1
   171   177   178    2
