@<TRIPOS>MOLECULE
tmp/5lpyA00.pdb
 171 160 0 0 0
SMALL
GASTEIGER

@<TRIPOS>ATOM
      1  N         33.8920   37.6870   27.6120 N.3    23  ILE23      -0.1231
      2  CA        34.3270   36.3730   28.0800 C.3    23  ILE23       0.1692
      3  C         35.6130   35.9350   27.3850 C.2    23  ILE23       0.2592
      4  O         35.9640   34.7490   27.3970 O.2    23  ILE23      -0.2718
      5  CB        33.2250   35.3170   27.8860 C.3    23  ILE23       0.0266
      6  CG1       32.8650   35.1670   26.4040 C.3    23  ILE23       0.0019
      7  CG2       32.0100   35.6600   28.7270 C.3    23  ILE23       0.0020
      8  CD1       31.9530   33.9740   26.1070 C.3    23  ILE23       0.0001
      9  N         36.3310   36.8810   26.7820 N.am   24  GLY24      -0.1957
     10  CA        37.6040   36.5770   26.1490 C.3    24  GLY24       0.1869
     11  C         38.0900   37.6860   25.2390 C.2    24  GLY24       0.2309
     12  O         37.2840   38.3130   24.5410 O.2    24  GLY24      -0.2863
     13  N         42.7730   38.0310   18.3270 N.3    28  PHE28      -0.1241
     14  CA        41.7090   38.0970   17.3270 C.3    28  PHE28       0.1605
     15  C         40.7710   39.2750   17.5700 C.2    28  PHE28       0.2264
     16  O         40.2780   39.8890   16.6160 O.2    28  PHE28      -0.2867
     17  CB        40.9250   36.7870   17.3330 C.3    28  PHE28       0.0534
     18  CG        40.4260   36.3960   18.6960 C.ar   28  PHE28      -0.0203
     19  CD1       41.2010   35.6060   19.5340 C.ar   28  PHE28      -0.0042
     20  CD2       39.1880   36.8290   19.1460 C.ar   28  PHE28      -0.0042
     21  CE1       40.7470   35.2540   20.7930 C.ar   28  PHE28      -0.0003
     22  CE2       38.7300   36.4840   20.4030 C.ar   28  PHE28      -0.0003
     23  CZ        39.5070   35.6940   21.2280 C.ar   28  PHE28      -0.0000
     24  N         35.3240   38.3040   22.6090 N.3    31  VAL31      -0.1245
     25  CA        34.1670   37.4160   22.5900 C.3    31  VAL31       0.1561
     26  C         33.2410   37.7790   23.7460 C.2    31  VAL31       0.2260
     27  O         33.6910   37.9060   24.8910 O.2    31  VAL31      -0.2867
     28  CB        34.5740   35.9320   22.6740 C.3    31  VAL31       0.0252
     29  CG1       33.3280   35.0460   22.6410 C.3    31  VAL31       0.0019
     30  CG2       35.5210   35.5680   21.5300 C.3    31  VAL31       0.0019
     31  N         27.2060   33.4540   21.5340 N.3    43  ALA43      -0.1245
     32  CA        28.5080   34.0670   21.7300 C.3    43  ALA43       0.1562
     33  C         28.7610   34.9740   20.5390 C.2    43  ALA43       0.2260
     34  O         28.6020   34.5470   19.3910 O.2    43  ALA43      -0.2867
     35  CB        29.6130   33.0110   21.8490 C.3    43  ALA43       0.0290
     36  N         31.5420   37.3290   18.6880 N.3    45  LYS45      -0.1245
     37  CA        32.9610   37.6390   18.5490 C.3    45  LYS45       0.1561
     38  C         33.1210   38.9540   17.7950 C.2    45  LYS45       0.2260
     39  O         32.6160   39.0940   16.6750 O.2    45  LYS45      -0.2867
     40  CB        33.7120   36.5190   17.8100 C.3    45  LYS45       0.0271
     41  CG        35.2310   36.7330   17.7060 C.3    45  LYS45       0.0035
     42  CD        35.9210   35.8220   16.6630 C.3    45  LYS45       0.0206
     43  CE        36.0860   34.3770   17.1350 C.3    45  LYS45       0.1093
     44  NZ        36.9080   33.5370   16.1870 N.3    45  LYS45      -0.1314
     45  N         31.0210   24.0000   15.7920 N.3    74  VAL74      -0.1245
     46  CA        30.2630   25.1160   16.3750 C.3    74  VAL74       0.1561
     47  C         29.3650   25.7180   15.3020 C.2    74  VAL74       0.2260
     48  O         29.8270   25.9690   14.1700 O.2    74  VAL74      -0.2867
     49  CB        31.2040   26.1800   16.9730 C.3    74  VAL74       0.0252
     50  CG1       31.9970   26.9280   15.8750 C.3    74  VAL74       0.0019
     51  CG2       30.4110   27.1630   17.8200 C.3    74  VAL74       0.0019
     52  N         27.6650   32.9410   17.2370 N.3    90  TYR90      -0.1227
     53  CA        27.6650   31.4980   17.3860 C.3    90  TYR90       0.1736
     54  C         26.6600   31.1160   18.4570 C.2    90  TYR90       0.2595
     55  O         26.3700   31.8980   19.3660 O.2    90  TYR90      -0.2718
     56  CB        29.0530   30.9630   17.8010 C.3    90  TYR90       0.0548
     57  CG        30.2230   31.4880   16.9970 C.ar   90  TYR90      -0.0200
     58  CD1       30.8290   32.7000   17.3320 C.ar   90  TYR90      -0.0009
     59  CD2       30.7520   30.7560   15.9260 C.ar   90  TYR90      -0.0009
     60  CE1       31.9100   33.1820   16.6080 C.ar   90  TYR90       0.0417
     61  CE2       31.8330   31.2390   15.1840 C.ar   90  TYR90       0.0417
     62  CZ        32.4090   32.4460   15.5400 C.ar   90  TYR90       0.1957
     63  OH        33.4850   32.9420   14.8380 O.3    90  TYR90      -0.2866
     64  N         26.1360   29.8970   18.3520 N.am   91  GLU91      -0.1965
     65  CA        25.3600   29.3460   19.4510 C.3    91  GLU91       0.1733
     66  C         26.2460   29.2310   20.6840 C.2    91  GLU91       0.2616
     67  O         27.4290   28.8870   20.5890 O.2    91  GLU91      -0.2715
     68  CB        24.7890   27.9820   19.0730 C.3    91  GLU91       0.0429
     69  CG        23.9370   27.3580   20.1570 C.3    91  GLU91       0.1163
     70  CD        23.3250   26.0450   19.7180 C.2    91  GLU91       0.3649
     71  OE1       22.9230   25.9470   18.5380 O.co2  91  GLU91      -0.2457
     72  OE2       23.2490   25.1160   20.5510 O.co2  91  GLU91      -0.2457
     73  N         25.6760   29.5380   21.8460 N.am   92  PHE92      -0.1960
     74  CA        26.4530   29.5230   23.0760 C.3    92  PHE92       0.1771
     75  C         26.6420   28.0940   23.5730 C.2    92  PHE92       0.2619
     76  O         25.6700   27.3580   23.7670 O.2    92  PHE92      -0.2715
     77  CB        25.7830   30.3680   24.1590 C.3    92  PHE92       0.0574
     78  CG        26.5890   30.4620   25.4250 C.ar   92  PHE92      -0.0200
     79  CD1       27.6250   31.3780   25.5330 C.ar   92  PHE92      -0.0042
     80  CD2       26.3220   29.6310   26.4970 C.ar   92  PHE92      -0.0042
     81  CE1       28.3760   31.4660   26.6890 C.ar   92  PHE92      -0.0003
     82  CE2       27.0670   29.7140   27.6570 C.ar   92  PHE92      -0.0003
     83  CZ        28.0950   30.6310   27.7530 C.ar   92  PHE92      -0.0000
     84  N         27.8940   27.7180   23.7990 N.am   93  MET93      -0.1977
     85  CA        28.2340   26.4040   24.3180 C.3    93  MET93       0.1605
     86  C         28.3760   26.4900   25.8360 C.2    93  MET93       0.2287
     87  O         29.2280   27.2290   26.3430 O.2    93  MET93      -0.2864
     88  CB        29.5140   25.9040   23.6550 C.3    93  MET93       0.0413
     89  CG        29.4490   25.8680   22.1230 C.3    93  MET93       0.0598
     90  SD        28.3460   24.5860   21.4700 S.3    93  MET93      -0.1393
     91  CE        26.8180   25.4880   21.2080 C.3    93  MET93       0.0692
     92  N         31.8270   25.9500   27.8640 N.3    96  GLY96      -0.1210
     93  CA        33.0140   26.6410   27.3890 C.3    96  GLY96       0.1956
     94  C         33.9960   25.7260   26.6740 C.2    96  GLY96       0.2612
     95  O         33.6320   24.6900   26.1090 O.2    96  GLY96      -0.2717
     96  N         35.2700   26.1160   26.7140 N.am   97  SER97      -0.1952
     97  CA        36.3020   25.3980   25.9880 C.3    97  SER97       0.1924
     98  C         36.8140   24.2150   26.8030 C.2    97  SER97       0.2314
     99  O         36.7570   24.1950   28.0360 O.2    97  SER97      -0.2863
    100  CB        37.4660   26.3300   25.6290 C.3    97  SER97       0.2116
    101  OG        38.3000   26.5890   26.7550 O.3    97  SER97      -0.2180
    102  N         39.8950   23.4920   27.0900 N.3    99  GLU99      -0.1231
    103  CA        41.0580   23.9540   27.8430 C.3    99  GLU99       0.1699
    104  C         40.6510   24.5120   29.2020 C.2    99  GLU99       0.2592
    105  O         41.3260   24.2690   30.2090 O.2    99  GLU99      -0.2718
    106  CB        41.8230   25.0090   27.0420 C.3    99  GLU99       0.0402
    107  CG        43.1290   25.4490   27.7040 C.3    99  GLU99       0.1161
    108  CD        43.8260   26.5730   26.9580 C.2    99  GLU99       0.3649
    109  OE1       43.1460   27.5450   26.5640 O.co2  99  GLU99      -0.2457
    110  OE2       45.0570   26.4800   26.7580 O.co2  99  GLU99      -0.2457
    111  N         39.5460   25.2600   29.2490 N.am  100  ASP100     -0.1974
    112  CA        39.0750   25.8030   30.5170 C.3   100  ASP100      0.1709
    113  C         38.6460   24.6950   31.4630 C.2   100  ASP100      0.2293
    114  O         38.9860   24.7170   32.6500 O.2   100  ASP100     -0.2864
    115  CB        37.9210   26.7700   30.2760 C.3   100  ASP100      0.1436
    116  CG        38.3700   28.0420   29.5990 C.2   100  ASP100      0.3671
    117  OD1       39.5550   28.4050   29.7710 O.co2 100  ASP100     -0.2456
    118  OD2       37.5460   28.6680   28.8980 O.co2 100  ASP100     -0.2456
    119  N         44.3290   25.5240   13.0520 N.3   143  ASP143     -0.1239
    120  CA        44.5440   26.0120   14.4130 C.3   143  ASP143      0.1674
    121  C         43.7740   25.1520   15.4110 C.2   143  ASP143      0.2266
    122  O         43.1930   25.6620   16.3740 O.2   143  ASP143     -0.2867
    123  CB        44.1570   27.4900   14.5530 C.3   143  ASP143      0.1410
    124  CG        44.7950   28.1510   15.7750 C.2   143  ASP143      0.3668
    125  OD1       45.8380   27.6510   16.2510 O.co2 143  ASP143     -0.2456
    126  OD2       44.2600   29.1690   16.2650 O.co2 143  ASP143     -0.2456
    127  N         43.1750   22.9770   18.5480 N.3   145  LYS145     -0.1245
    128  CA        43.7450   22.9980   19.8920 C.3   145  LYS145      0.1561
    129  C         42.5850   22.9510   20.8820 C.2   145  LYS145      0.2260
    130  O         41.4140   23.0560   20.5030 O.2   145  LYS145     -0.2867
    131  CB        44.6260   24.2370   20.1230 C.3   145  LYS145      0.0271
    132  CG        43.9250   25.5690   19.8140 C.3   145  LYS145      0.0035
    133  CD        44.8550   26.7600   20.0950 C.3   145  LYS145      0.0206
    134  CE        44.2210   28.0850   19.6720 C.3   145  LYS145      0.1093
    135  NZ        45.1040   29.2300   20.0380 N.3   145  LYS145     -0.1314
    136  N         41.5440   24.9510   23.3320 N.3   147  SER147     -0.1202
    137  CA        40.6880   26.1320   23.4350 C.3   147  SER147      0.2020
    138  C         39.7110   26.2250   22.2680 C.2   147  SER147      0.2618
    139  O         38.7410   26.9810   22.3410 O.2   147  SER147     -0.2717
    140  CB        41.5240   27.4140   23.5080 C.3   147  SER147      0.2103
    141  OG        42.1280   27.7000   22.2580 O.3   147  SER147     -0.2182
    142  N         39.9370   25.4680   21.1990 N.am  148  ASN148     -0.1974
    143  CA        39.0740   25.5010   20.0300 C.3   148  ASN148      0.1688
    144  C         38.1840   24.2770   19.9480 C.2   148  ASN148      0.2292
    145  O         37.6260   23.9850   18.8880 O.2   148  ASN148     -0.2864
    146  CB        39.9140   25.6690   18.7620 C.3   148  ASN148      0.1181
    147  CG        40.4060   27.0880   18.6190 C.2   148  ASN148      0.2629
    148  OD1       39.8610   27.9760   19.2650 O.2   148  ASN148     -0.2716
    149  ND2       41.4190   27.3180   17.7890 N.am  148  ASN148     -0.0877
    150  N         34.9070   23.3100   21.8560 N.3   150  LEU150     -0.1245
    151  CA        33.9040   23.7930   22.7910 C.3   150  LEU150      0.1561
    152  C         33.0300   22.6300   23.2410 C.2   150  LEU150      0.2260
    153  O         32.9450   21.5960   22.5690 O.2   150  LEU150     -0.2867
    154  CB        33.0560   24.9010   22.1580 C.3   150  LEU150      0.0270
    155  CG        33.8940   26.0390   21.5630 C.3   150  LEU150      0.0019
    156  CD1       32.9870   27.1660   21.0650 C.3   150  LEU150      0.0001
    157  CD2       34.9140   26.5700   22.5690 C.3   150  LEU150      0.0001
    158  N         35.6870   24.7140   16.8790 N.3   160  SER160     -0.1202
    159  CA        35.4000   26.1330   16.7150 C.3   160  SER160      0.2020
    160  C         36.6170   26.8270   16.1150 C.2   160  SER160      0.2618
    161  O         37.6560   26.1970   15.8610 O.2   160  SER160     -0.2717
    162  CB        35.0130   26.7610   18.0540 C.3   160  SER160      0.2103
    163  OG        34.4430   28.0500   17.8630 O.3   160  SER160     -0.2182
    164  N         36.4760   28.1460   15.9120 N.am  161  ASP161     -0.1973
    165  CA        37.5430   29.0500   15.4820 C.3   161  ASP161      0.1709
    166  C         38.1170   28.6550   14.1210 C.2   161  ASP161      0.2293
    167  O         39.1600   27.9930   14.0210 O.2   161  ASP161     -0.2864
    168  CB        38.6590   29.1160   16.5290 C.3   161  ASP161      0.1436
    169  CG        39.4720   30.4040   16.4380 C.2   161  ASP161      0.3671
    170  OD1       39.4300   31.0780   15.3780 O.co2 161  ASP161     -0.2456
    171  OD2       40.1570   30.7370   17.4320 O.co2 161  ASP161     -0.2456
@<TRIPOS>BOND
     1   119   120    1
     2   167   166    2
     3   166   165    1
     4    48    47    2
     5   120   123    1
     6   120   121    1
     7   123   124    1
     8    63    62    1
     9    61    62   ar
    10    61    59   ar
    11    47    46    1
    12   170   169   ar
    13   121   122    2
    14   165   164    1
    15   165   168    1
    16    62    60   ar
    17   124   125   ar
    18   124   126   ar
    19    45    46    1
    20   161   160    2
    21    50    49    1
    22   164   160   am
    23    59    57   ar
    24   160   159    1
    25    44    43    1
    26    46    49    1
    27   169   168    1
    28   169   171   ar
    29    60    58   ar
    30    16    15    2
    31    42    43    1
    32    42    41    1
    33    39    38    2
    34   159   158    1
    35   159   162    1
    36    49    51    1
    37    57    58   ar
    38    57    56    1
    39    52    53    1
    40    14    17    1
    41    14    15    1
    42    14    13    1
    43    17    18    1
    44    53    56    1
    45    53    54    1
    46    41    40    1
    47   149   147   am
    48    38    37    1
    49    40    37    1
    50   163   162    1
    51    64    54   am
    52    64    65    1
    53    54    55    2
    54    71    70   ar
    55   127   128    1
    56    37    36    1
    57   147   146    1
    58   147   148    2
    59    18    20   ar
    60    18    19   ar
    61   146   143    1
    62   145   144    2
    63    68    65    1
    64    68    69    1
    65    20    22   ar
    66    34    33    2
    67    65    66    1
    68    19    21   ar
    69   134   135    1
    70   134   133    1
    71    70    69    1
    72    70    72   ar
    73   132   133    1
    74   132   131    1
    75   128   131    1
    76   128   129    1
    77   144   143    1
    78   143   142    1
    79    22    23   ar
    80   130   129    2
    81    33    32    1
    82    67    66    2
    83    66    73   am
    84    21    23   ar
    85   156   155    1
    86   142   138   am
    87    91    90    1
    88    90    89    1
    89    30    28    1
    90    31    32    1
    91   155   154    1
    92   155   157    1
    93    32    35    1
    94    73    74    1
    95   150   151    1
    96    89    88    1
    97   154   151    1
    98   141   140    1
    99   138   139    2
   100   138   137    1
   101   153   152    2
   102    25    24    1
   103    25    28    1
   104    25    26    1
   105    29    28    1
   106   151   152    1
   107    74    75    1
   108    74    77    1
   109   136   137    1
   110   137   140    1
   111    75    76    2
   112    75    84   am
   113    88    85    1
   114    26    27    2
   115    84    85    1
   116    77    78    1
   117    85    86    1
   118    12    11    2
   119    11    10    1
   120    78    79   ar
   121    78    80   ar
   122    79    81   ar
   123   100    97    1
   124   100   101    1
   125    86    87    2
   126    97    96    1
   127    97    98    1
   128     8     6    1
   129    95    94    2
   130    10     9    1
   131     6     5    1
   132    80    82   ar
   133   109   108   ar
   134    94    96   am
   135    94    93    1
   136    81    83   ar
   137   110   108   ar
   138     9     3   am
   139    98    99    2
   140   108   107    1
   141   106   107    1
   142   106   103    1
   143   102   103    1
   144     3     4    2
   145     3     2    1
   146    93    92    1
   147     1     2    1
   148    82    83   ar
   149   103   104    1
   150     5     2    1
   151     5     7    1
   152   118   116   ar
   153   104   111   am
   154   104   105    2
   155   111   112    1
   156   116   117   ar
   157   116   115    1
   158   115   112    1
   159   112   113    1
   160   113   114    2
