@<TRIPOS>MOLECULE
tmp/5lpzA00.pdb
 168 158 0 0 0
SMALL
GASTEIGER

@<TRIPOS>ATOM
      1  N         33.6970   37.7790   27.9100 N.3    24  ILE24      -0.1231
      2  CA        34.2110   36.5090   28.4030 C.3    24  ILE24       0.1692
      3  C         35.5420   36.1380   27.7590 C.2    24  ILE24       0.2593
      4  O         35.9750   34.9870   27.8520 O.2    24  ILE24      -0.2718
      5  CB        33.1840   35.3740   28.2140 C.3    24  ILE24       0.0266
      6  CG1       32.9560   35.1080   26.7200 C.3    24  ILE24       0.0019
      7  CG2       31.8780   35.7190   28.9130 C.3    24  ILE24       0.0020
      8  CD1       32.0530   33.9240   26.4440 C.3    24  ILE24       0.0001
      9  N         36.2040   37.0910   27.1100 N.am   25  GLY25      -0.1942
     10  CA        37.4630   36.8280   26.4460 C.3    25  GLY25       0.2014
     11  C         37.8440   37.9100   25.4600 C.2    25  GLY25       0.2640
     12  O         37.0070   38.3710   24.6800 O.2    25  GLY25      -0.2714
     13  N         39.1050   38.3340   25.5030 N.am   26  SER26      -0.1935
     14  CA        39.6160   39.3340   24.5800 C.3    26  SER26       0.2055
     15  C         41.1130   39.1160   24.4100 C.2    26  SER26       0.2643
     16  O         41.7420   38.3560   25.1520 O.2    26  SER26      -0.2714
     17  CB        39.3130   40.7570   25.0670 C.3    26  SER26       0.2130
     18  OG        39.8860   41.0020   26.3390 O.3    26  SER26      -0.2179
     19  N         41.6760   39.7880   23.4160 N.am   27  GLY27      -0.1954
     20  CA        43.0900   39.6870   23.1330 C.3    27  GLY27       0.1869
     21  C         43.4540   38.3880   22.4370 C.2    27  GLY27       0.2309
     22  O         42.7590   37.3760   22.5220 O.2    27  GLY27      -0.2863
     23  N         42.9550   36.9060   19.7540 N.3    29  PHE29      -0.1227
     24  CA        42.1500   36.6830   18.5590 C.3    29  PHE29       0.1736
     25  C         41.0700   37.7500   18.4320 C.2    29  PHE29       0.2596
     26  O         40.9480   38.3990   17.3870 O.2    29  PHE29      -0.2718
     27  CB        41.5250   35.2860   18.5870 C.3    29  PHE29       0.0547
     28  CG        42.5110   34.1690   18.5090 C.ar   29  PHE29      -0.0202
     29  CD1       43.0470   33.7510   17.3190 C.ar   29  PHE29      -0.0042
     30  CD2       42.8580   33.4780   19.6870 C.ar   29  PHE29      -0.0042
     31  CE1       43.9440   32.6800   17.2800 C.ar   29  PHE29      -0.0003
     32  CE2       43.7560   32.4380   19.6660 C.ar   29  PHE29      -0.0003
     33  CZ        44.2990   32.0640   18.4710 C.ar   29  PHE29      -0.0000
     34  N         40.2870   37.9420   19.4840 N.am   30  GLY30      -0.1957
     35  CA        39.2450   38.9460   19.4520 C.3    30  GLY30       0.1869
     36  C         38.4790   38.9670   20.7560 C.2    30  GLY30       0.2309
     37  O         38.5680   38.0420   21.5720 O.2    30  GLY30      -0.2863
     38  N         35.3110   38.4720   22.9260 N.3    32  VAL32      -0.1245
     39  CA        34.1780   37.5550   22.8930 C.3    32  VAL32       0.1561
     40  C         33.2330   37.9090   24.0320 C.2    32  VAL32       0.2260
     41  O         33.6620   38.0510   25.1830 O.2    32  VAL32      -0.2867
     42  CB        34.6260   36.0860   22.9880 C.3    32  VAL32       0.0252
     43  CG1       33.4140   35.1660   22.9630 C.3    32  VAL32       0.0019
     44  CG2       35.5700   35.7540   21.8460 C.3    32  VAL32       0.0019
     45  N         27.4130   33.6700   21.5120 N.3    44  ALA44      -0.1245
     46  CA        28.7230   34.2480   21.7610 C.3    44  ALA44       0.1562
     47  C         29.0430   35.1750   20.6000 C.2    44  ALA44       0.2260
     48  O         28.8700   34.8000   19.4350 O.2    44  ALA44      -0.2867
     49  CB        29.7950   33.1640   21.9020 C.3    44  ALA44       0.0290
     50  N         31.8840   37.4690   18.7980 N.3    46  LYS46      -0.1245
     51  CA        33.3080   37.7450   18.6640 C.3    46  LYS46       0.1561
     52  C         33.4750   39.0950   17.9760 C.2    46  LYS46       0.2260
     53  O         33.1330   39.2500   16.7980 O.2    46  LYS46      -0.2867
     54  CB        34.0190   36.6380   17.8880 C.3    46  LYS46       0.0271
     55  CG        35.5280   36.8530   17.7820 C.3    46  LYS46       0.0035
     56  CD        36.3170   35.5490   17.7700 C.3    46  LYS46       0.0206
     57  CE        36.3760   34.9250   16.3840 C.3    46  LYS46       0.1093
     58  NZ        37.2190   33.6840   16.3540 N.3    46  LYS46      -0.1314
     59  N         31.6050   24.1880   15.7250 N.3    75  VAL75      -0.1245
     60  CA        30.8590   25.2780   16.3670 C.3    75  VAL75       0.1561
     61  C         29.9500   25.9390   15.3370 C.2    75  VAL75       0.2260
     62  O         30.3880   26.2190   14.2040 O.2    75  VAL75      -0.2867
     63  CB        31.8230   26.3010   17.0070 C.3    75  VAL75       0.0252
     64  CG1       32.6490   27.0320   15.9540 C.3    75  VAL75       0.0019
     65  CG2       31.0590   27.2890   17.8790 C.3    75  VAL75       0.0019
     66  N         28.0950   33.1780   17.2930 N.3    91  TYR91      -0.1227
     67  CA        28.0590   31.7310   17.3870 C.3    91  TYR91       0.1736
     68  C         26.9960   31.3180   18.3920 C.2    91  TYR91       0.2595
     69  O         26.6010   32.0980   19.2620 O.2    91  TYR91      -0.2718
     70  CB        29.4200   31.1590   17.8260 C.3    91  TYR91       0.0548
     71  CG        30.6310   31.7240   17.1070 C.ar   91  TYR91      -0.0200
     72  CD1       31.1750   31.0760   16.0010 C.ar   91  TYR91      -0.0009
     73  CD2       31.2430   32.8950   17.5470 C.ar   91  TYR91      -0.0009
     74  CE1       32.2900   31.5860   15.3440 C.ar   91  TYR91       0.0417
     75  CE2       32.3580   33.4120   16.8970 C.ar   91  TYR91       0.0417
     76  CZ        32.8740   32.7540   15.7990 C.ar   91  TYR91       0.1957
     77  OH        33.9730   33.2640   15.1540 O.3    91  TYR91      -0.2866
     78  N         26.5370   30.0770   18.2670 N.am   92  GLU92      -0.1965
     79  CA        25.7400   29.4940   19.3340 C.3    92  GLU92       0.1733
     80  C         26.6050   29.3480   20.5790 C.2    92  GLU92       0.2616
     81  O         27.7720   28.9570   20.5020 O.2    92  GLU92      -0.2715
     82  CB        25.1780   28.1400   18.9040 C.3    92  GLU92       0.0429
     83  CG        24.3570   27.4450   19.9760 C.3    92  GLU92       0.1163
     84  CD        23.7090   26.1710   19.4780 C.2    92  GLU92       0.3649
     85  OE1       23.5130   26.0450   18.2500 O.co2  92  GLU92      -0.2457
     86  OE2       23.4000   25.2960   20.3140 O.co2  92  GLU92      -0.2457
     87  N         26.0370   29.6910   21.7300 N.am   93  PHE93      -0.1960
     88  CA        26.8070   29.6710   22.9660 C.3    93  PHE93       0.1771
     89  C         27.0510   28.2350   23.4190 C.2    93  PHE93       0.2619
     90  O         26.1240   27.4210   23.4740 O.2    93  PHE93      -0.2715
     91  CB        26.0860   30.4580   24.0620 C.3    93  PHE93       0.0574
     92  CG        26.8190   30.4690   25.3740 C.ar   93  PHE93      -0.0200
     93  CD1       27.9020   31.3110   25.5690 C.ar   93  PHE93      -0.0042
     94  CD2       26.4390   29.6260   26.4050 C.ar   93  PHE93      -0.0042
     95  CE1       28.5870   31.3170   26.7710 C.ar   93  PHE93      -0.0003
     96  CE2       27.1210   29.6290   27.6100 C.ar   93  PHE93      -0.0003
     97  CZ        28.1950   30.4750   27.7920 C.ar   93  PHE93      -0.0000
     98  N         28.3040   27.9280   23.7400 N.am   94  MET94      -0.1977
     99  CA        28.6930   26.6290   24.2710 C.3    94  MET94       0.1605
    100  C         28.7690   26.7340   25.7880 C.2    94  MET94       0.2287
    101  O         29.5380   27.5420   26.3210 O.2    94  MET94      -0.2864
    102  CB        30.0280   26.1750   23.6810 C.3    94  MET94       0.0413
    103  CG        29.9980   26.0100   22.1670 C.3    94  MET94       0.0598
    104  SD        28.8260   24.7420   21.6440 S.3    94  MET94      -0.1393
    105  CE        27.9540   25.5830   20.3330 C.3    94  MET94       0.0692
    106  N         32.2250   25.9320   27.7670 N.3    97  GLY97      -0.1210
    107  CA        33.4200   26.6150   27.3090 C.3    97  GLY97       0.1956
    108  C         34.4040   25.6960   26.6040 C.2    97  GLY97       0.2612
    109  O         34.0340   24.7060   25.9680 O.2    97  GLY97      -0.2717
    110  N         35.6840   26.0400   26.7230 N.am   98  SER98      -0.1952
    111  CA        36.7430   25.3410   26.0130 C.3    98  SER98       0.1924
    112  C         37.2440   24.1480   26.8150 C.2    98  SER98       0.2314
    113  O         37.1800   24.1270   28.0480 O.2    98  SER98      -0.2863
    114  CB        37.9100   26.2840   25.7100 C.3    98  SER98       0.2116
    115  OG        38.6410   26.5940   26.8840 O.3    98  SER98      -0.2180
    116  N         40.0620   25.0750   29.3980 N.3   101  ASP101     -0.1239
    117  CA        39.6570   25.6090   30.6940 C.3   101  ASP101      0.1674
    118  C         39.2150   24.5050   31.6420 C.2   101  ASP101      0.2266
    119  O         39.3730   24.6350   32.8610 O.2   101  ASP101     -0.2867
    120  CB        38.5340   26.6310   30.5150 C.3   101  ASP101      0.1410
    121  CG        38.9980   27.8900   29.8150 C.2   101  ASP101      0.3668
    122  OD1       40.1890   28.2450   29.9570 O.co2 101  ASP101     -0.2456
    123  OD2       38.1710   28.5260   29.1280 O.co2 101  ASP101     -0.2456
    124  N         43.7480   22.9540   18.8280 N.3   146  LYS146     -0.1245
    125  CA        44.2780   22.8660   20.1830 C.3   146  LYS146      0.1561
    126  C         43.1030   22.6850   21.1320 C.2   146  LYS146      0.2260
    127  O         41.9410   22.7160   20.7210 O.2   146  LYS146     -0.2867
    128  CB        45.1100   24.0990   20.5520 C.3   146  LYS146      0.0271
    129  CG        44.4410   25.4290   20.2560 C.3   146  LYS146      0.0035
    130  CD        45.3590   26.5740   20.6400 C.3   146  LYS146      0.0206
    131  CE        44.8200   27.9120   20.1680 C.3   146  LYS146      0.1093
    132  NZ        45.7640   29.0110   20.5140 N.3   146  LYS146     -0.1314
    133  N         42.0300   24.6710   23.4450 N.3   148  SER148     -0.1202
    134  CA        41.2190   25.8700   23.6020 C.3   148  SER148      0.2020
    135  C         40.2880   26.0980   22.4200 C.2   148  SER148      0.2618
    136  O         39.3460   26.8890   22.5350 O.2   148  SER148     -0.2717
    137  CB        42.1100   27.0970   23.8020 C.3   148  SER148      0.2103
    138  OG        42.8630   27.3780   22.6380 O.3   148  SER148     -0.2182
    139  N         40.5290   25.4280   21.2920 N.am  149  ASN149     -0.1974
    140  CA        39.6350   25.4750   20.1440 C.3   149  ASN149      0.1688
    141  C         38.7350   24.2490   20.0650 C.2   149  ASN149      0.2292
    142  O         38.2260   23.9230   18.9870 O.2   149  ASN149     -0.2864
    143  CB        40.4340   25.6420   18.8510 C.3   149  ASN149      0.1181
    144  CG        41.0820   27.0080   18.7490 C.2   149  ASN149      0.2629
    145  OD1       40.7600   27.9090   19.5170 O.2   149  ASN149     -0.2716
    146  ND2       41.9910   27.1710   17.7960 N.am  149  ASN149     -0.0877
    147  N         35.3050   23.3500   21.8680 N.3   151  LEU151     -0.1245
    148  CA        34.2520   23.8570   22.7310 C.3   151  LEU151      0.1561
    149  C         33.3520   22.7150   23.1840 C.2   151  LEU151      0.2260
    150  O         33.1140   21.7550   22.4470 O.2   151  LEU151     -0.2867
    151  CB        33.4260   24.9270   22.0170 C.3   151  LEU151      0.0270
    152  CG        34.1980   26.1720   21.5770 C.3   151  LEU151      0.0019
    153  CD1       33.2500   27.2420   21.0500 C.3   151  LEU151      0.0001
    154  CD2       35.0510   26.7110   22.7190 C.3   151  LEU151      0.0001
    155  N         36.2960   24.8250   17.0770 N.3   161  SER161     -0.1202
    156  CA        36.0380   26.2430   16.8810 C.3   161  SER161      0.2020
    157  C         37.2970   26.9490   16.3870 C.2   161  SER161      0.2618
    158  O         38.3450   26.3320   16.1640 O.2   161  SER161     -0.2717
    159  CB        35.5320   26.8920   18.1760 C.3   161  SER161      0.2103
    160  OG        36.5010   26.7980   19.2070 O.3   161  SER161     -0.2182
    161  N         37.1600   28.2670   16.2160 N.am  162  ASP162     -0.1973
    162  CA        38.2190   29.1960   15.8160 C.3   162  ASP162      0.1709
    163  C         38.8120   28.8210   14.4540 C.2   162  ASP162      0.2293
    164  O         39.9570   28.3790   14.3270 O.2   162  ASP162     -0.2864
    165  CB        39.3170   29.2980   16.8800 C.3   162  ASP162      0.1436
    166  CG        40.1250   30.5800   16.7500 C.2   162  ASP162      0.3671
    167  OD1       39.9820   31.2750   15.7200 O.co2 162  ASP162     -0.2456
    168  OD2       40.9020   30.8970   17.6720 O.co2 162  ASP162     -0.2456
@<TRIPOS>BOND
     1    62    61    2
     2   164   163    2
     3   163   162    1
     4    77    76    1
     5    61    60    1
     6    74    76   ar
     7    74    72   ar
     8   167   166   ar
     9    59    60    1
    10    76    75   ar
    11   162   161    1
    12   162   165    1
    13    64    63    1
    14    72    71   ar
    15   158   157    2
    16   161   157   am
    17    58    57    1
    18    60    63    1
    19    57    56    1
    20   157   156    1
    21   166   165    1
    22   166   168   ar
    23    53    52    2
    24   156   155    1
    25   156   159    1
    26    75    73   ar
    27    63    65    1
    28    71    73   ar
    29    71    70    1
    30    31    29   ar
    31    31    33   ar
    32    66    67    1
    33    29    28   ar
    34    67    70    1
    35    67    68    1
    36    26    25    2
    37    56    55    1
    38    55    54    1
    39   146   144   am
    40    54    51    1
    41    52    51    1
    42   159   160    1
    43    85    84   ar
    44    78    68   am
    45    78    79    1
    46    68    69    2
    47    25    24    1
    48    25    34   am
    49    33    32   ar
    50    28    27    1
    51    28    30   ar
    52    24    27    1
    53    24    23    1
    54    51    50    1
    55   144   143    1
    56   144   145    2
    57   124   125    1
    58   143   140    1
    59    82    79    1
    60    82    83    1
    61   142   141    2
    62    79    80    1
    63    48    47    2
    64    35    34    1
    65    35    36    1
    66    84    83    1
    67    84    86   ar
    68    32    30   ar
    69   141   140    1
    70   140   139    1
    71   131   132    1
    72   131   130    1
    73   125   128    1
    74   125   126    1
    75   129   128    1
    76   129   130    1
    77   105   104    1
    78    81    80    2
    79    80    87   am
    80    47    46    1
    81   127   126    2
    82    36    37    2
    83   153   152    1
    84   139   135   am
    85    45    46    1
    86   152   151    1
    87   152   154    1
    88   104   103    1
    89    87    88    1
    90    46    49    1
    91    44    42    1
    92   147   148    1
    93   151   148    1
    94   103   102    1
    95   135   136    2
    96   135   134    1
    97    21    22    2
    98    21    20    1
    99   150   149    2
   100   138   137    1
   101   148   149    1
   102    39    38    1
   103    39    42    1
   104    39    40    1
   105    43    42    1
   106    88    89    1
   107    88    91    1
   108    20    19    1
   109    19    15   am
   110    89    90    2
   111    89    98   am
   112   133   134    1
   113   134   137    1
   114   102    99    1
   115    98    99    1
   116    40    41    2
   117    91    92    1
   118    99   100    1
   119    15    14    1
   120    15    16    2
   121    14    17    1
   122    14    13    1
   123    12    11    2
   124    17    18    1
   125    92    93   ar
   126    92    94   ar
   127    11    13   am
   128    11    10    1
   129    93    95   ar
   130   114   111    1
   131   114   115    1
   132   100   101    2
   133   109   108    2
   134   111   110    1
   135   111   112    1
   136    94    96   ar
   137     8     6    1
   138    10     9    1
   139   108   110   am
   140   108   107    1
   141     6     5    1
   142    95    97   ar
   143   112   113    2
   144     9     3   am
   145   107   106    1
   146    96    97   ar
   147     3     4    2
   148     3     2    1
   149     1     2    1
   150     5     2    1
   151     5     7    1
   152   123   121   ar
   153   116   117    1
   154   121   122   ar
   155   121   120    1
   156   120   117    1
   157   117   118    1
   158   118   119    2
