@<TRIPOS>MOLECULE
tmp/5lq4B01.pdb
 102 97 0 0 0
SMALL
GASTEIGER

@<TRIPOS>ATOM
      1  N        157.5140  107.8740   46.9760 N.3   270  ARG270     -0.1231
      2  CA       156.2580  108.5370   46.6340 C.3   270  ARG270      0.1694
      3  C        156.4540  109.8700   45.9010 C.2   270  ARG270      0.2592
      4  O        157.1670  110.7500   46.3630 O.2   270  ARG270     -0.2718
      5  CB       155.4240  108.7640   47.8920 C.3   270  ARG270      0.0321
      6  CG       154.0290  109.3440   47.6480 C.3   270  ARG270      0.0489
      7  CD       153.6090  110.2670   48.7840 C.3   270  ARG270      0.2205
      8  NE       154.5600  111.3590   48.9470 N.pl3 270  ARG270     -0.0865
      9  CZ       154.6600  112.4200   48.1460 C.cat 270  ARG270      0.5346
     10  NH1      153.8360  112.5830   47.1120 N.pl3 270  ARG270      0.1354
     11  NH2      155.5870  113.3490   48.3980 N.pl3 270  ARG270      0.1354
     12  N        155.7960  109.9770   44.7530 N.am  271  ARG271     -0.1966
     13  CA       155.8250  111.1320   43.8850 C.3   271  ARG271      0.1729
     14  C        154.3900  111.4080   43.4080 C.2   271  ARG271      0.2616
     15  O        153.5560  110.5040   43.3440 O.2   271  ARG271     -0.2715
     16  CB       156.7310  110.7300   42.7150 C.3   271  ARG271      0.0348
     17  CG       157.0770  111.7750   41.6710 C.3   271  ARG271      0.0492
     18  CD       157.6180  111.0810   40.4180 C.3   271  ARG271      0.2205
     19  NE       158.3760  111.9750   39.5360 N.pl3 271  ARG271     -0.0865
     20  CZ       157.9270  112.5630   38.4170 C.cat 271  ARG271      0.5346
     21  NH1      156.6720  112.4180   37.9810 N.pl3 271  ARG271      0.1354
     22  NH2      158.7630  113.3400   37.7220 N.pl3 271  ARG271      0.1354
     23  N        154.1070  112.6570   43.0650 N.am  272  SER272     -0.1950
     24  CA       152.8840  112.9940   42.3360 C.3   272  SER272      0.1924
     25  C        153.2060  112.8520   40.8590 C.2   272  SER272      0.2314
     26  O        154.1280  113.5130   40.3620 O.2   272  SER272     -0.2863
     27  CB       152.4260  114.4210   42.6290 C.3   272  SER272      0.2116
     28  OG       151.9110  114.5250   43.9340 O.3   272  SER272     -0.2180
     29  N        151.6220  112.9640   37.0440 N.3   274  ARG274     -0.1245
     30  CA       150.5310  113.5020   36.2400 C.3   274  ARG274      0.1563
     31  C        150.5850  113.0750   34.7790 C.2   274  ARG274      0.2260
     32  O        149.5770  113.1830   34.0960 O.2   274  ARG274     -0.2867
     33  CB       150.5230  115.0270   36.3400 C.3   274  ARG274      0.0307
     34  CG       150.2880  115.5240   37.7580 C.3   274  ARG274      0.0489
     35  CD       150.7410  116.9610   37.9470 C.3   274  ARG274      0.2205
     36  NE       150.7670  117.3360   39.3680 N.pl3 274  ARG274     -0.0865
     37  CZ       151.7940  117.2810   40.2130 C.cat 274  ARG274      0.5346
     38  NH1      152.9860  116.8530   39.8320 N.pl3 274  ARG274      0.1354
     39  NH2      151.6010  117.6780   41.4710 N.pl3 274  ARG274      0.1354
     40  N        143.2150  121.4360   36.7550 N.3   372  ALA372     -0.1231
     41  CA       143.7530  121.5250   38.1190 C.3   372  ALA372      0.1694
     42  C        145.1050  120.8480   38.3170 C.2   372  ALA372      0.2592
     43  O        145.8270  121.1960   39.2520 O.2   372  ALA372     -0.2718
     44  CB       142.7580  120.9410   39.1150 C.3   372  ALA372      0.0304
     45  N        145.4390  119.8840   37.4550 N.am  373  THR373     -0.1953
     46  CA       146.7210  119.1620   37.5390 C.3   373  THR373      0.1897
     47  C        147.6950  119.6160   36.4480 C.2   373  THR373      0.2313
     48  O        148.5910  118.8590   36.0670 O.2   373  THR373     -0.2863
     49  CB       146.5330  117.6380   37.4340 C.3   373  THR373      0.1794
     50  OG1      145.7300  117.3550   36.2890 O.3   373  THR373     -0.2208
     51  CG2      145.8800  117.0820   38.6840 C.3   373  THR373      0.0378
     52  N        142.4490  113.9180   53.7420 N.3   409  GLY409     -0.1225
     53  CA       143.9020  113.8790   53.7810 C.3   409  GLY409      0.1811
     54  C        144.4570  112.5270   54.1650 C.2   409  GLY409      0.2280
     55  O        145.3980  112.0520   53.5530 O.2   409  GLY409     -0.2866
     56  N        143.9990  110.5210   51.1020 N.3   412  TYR412     -0.1241
     57  CA       144.9830  110.9450   50.1020 C.3   412  TYR412      0.1605
     58  C        146.3370  110.2820   50.2820 C.2   412  TYR412      0.2264
     59  O        146.9020  109.7820   49.3160 O.2   412  TYR412     -0.2867
     60  CB       145.1820  112.4570   50.1550 C.3   412  TYR412      0.0534
     61  CG       144.1130  113.3080   49.4880 C.ar  412  TYR412     -0.0201
     62  CD1      142.9270  112.7570   48.9620 C.ar  412  TYR412     -0.0009
     63  CD2      144.2910  114.6850   49.3940 C.ar  412  TYR412     -0.0009
     64  CE1      141.9740  113.5650   48.3570 C.ar  412  TYR412      0.0417
     65  CE2      143.3520  115.4870   48.7820 C.ar  412  TYR412      0.0417
     66  CZ       142.1950  114.9300   48.2760 C.ar  412  TYR412      0.1957
     67  OH       141.2700  115.7580   47.6900 O.3   412  TYR412     -0.2866
     68  N        148.1530  107.6320   47.9430 N.3   416  TYR416     -0.1241
     69  CA       149.5000  107.9250   47.4400 C.3   416  TYR416      0.1605
     70  C        150.4530  106.7500   47.6240 C.2   416  TYR416      0.2264
     71  O        151.2010  106.3950   46.7000 O.2   416  TYR416     -0.2867
     72  CB       150.0930  109.1610   48.1340 C.3   416  TYR416      0.0534
     73  CG       149.9930  110.4680   47.3620 C.ar  416  TYR416     -0.0201
     74  CD1      150.7670  110.6890   46.2150 C.ar  416  TYR416     -0.0009
     75  CD2      149.1700  111.5070   47.8040 C.ar  416  TYR416     -0.0009
     76  CE1      150.6960  111.8940   45.5160 C.ar  416  TYR416      0.0417
     77  CE2      149.0920  112.7100   47.1120 C.ar  416  TYR416      0.0417
     78  CZ       149.8590  112.9020   45.9800 C.ar  416  TYR416      0.1957
     79  OH       149.7760  114.0970   45.3120 O.3   416  TYR416     -0.2866
     80  N        147.9000  111.6180   41.9860 N.3   427  SER427     -0.1202
     81  CA       147.9880  113.0120   42.4100 C.3   427  SER427      0.2020
     82  C        146.7010  113.4400   43.0800 C.2   427  SER427      0.2619
     83  O        145.6060  113.2060   42.5460 O.2   427  SER427     -0.2717
     84  CB       148.2750  113.9600   41.2350 C.3   427  SER427      0.2103
     85  OG       148.5760  115.2680   41.7080 O.3   427  SER427     -0.2182
     86  N        146.8460  114.0790   44.2390 N.am  428  ALA428     -0.1965
     87  CA       145.7450  114.7590   44.8900 C.3   428  ALA428      0.1728
     88  C        145.3480  115.9790   44.0690 C.2   428  ALA428      0.2616
     89  O        146.1420  116.4940   43.2760 O.2   428  ALA428     -0.2715
     90  CB       146.1200  115.1670   46.3070 C.3   428  ALA428      0.0334
     91  N        144.0950  116.3960   44.2300 N.am  429  ILE429     -0.1963
     92  CA       143.5590  117.5740   43.5480 C.3   429  ILE429      0.1727
     93  C        142.9410  118.4600   44.6210 C.2   429  ILE429      0.2616
     94  O        142.1670  117.9870   45.4600 O.2   429  ILE429     -0.2715
     95  CB       142.5370  117.1860   42.4410 C.3   429  ILE429      0.0290
     96  CG1      143.2070  116.2890   41.3880 C.3   429  ILE429      0.0022
     97  CG2      141.9540  118.4340   41.7750 C.3   429  ILE429      0.0023
     98  CD1      142.2660  115.6930   40.3710 C.3   429  ILE429      0.0001
     99  N        143.2800  119.7420   44.5870 N.am  430  GLY430     -0.1955
    100  CA       142.9450  120.6630   45.6730 C.3   430  GLY430      0.1869
    101  C        141.4910  121.1070   45.7020 C.2   430  GLY430      0.2309
    102  O        140.9250  121.3010   46.7760 O.2   430  GLY430     -0.2863
@<TRIPOS>BOND
     1    32    31    2
     2    31    30    1
     3    48    47    2
     4    30    33    1
     5    30    29    1
     6    50    49    1
     7    33    34    1
     8    47    46    1
     9    40    41    1
    10    49    46    1
    11    49    51    1
    12    45    46    1
    13    45    42   am
    14    22    20    1
    15    34    35    1
    16    35    36    1
    17    21    20    1
    18    41    42    1
    19    41    44    1
    20    42    43    2
    21    20    19    2
    22    36    37    2
    23    19    18    1
    24    38    37    1
    25    37    39    1
    26    26    25    2
    27    98    96    1
    28    18    17    1
    29    25    24    1
    30    84    85    1
    31    84    81    1
    32    96    95    1
    33    17    16    1
    34    97    95    1
    35    80    81    1
    36    24    27    1
    37    24    23    1
    38    81    82    1
    39    95    92    1
    40    83    82    2
    41    27    28    1
    42    16    13    1
    43    23    14   am
    44    82    86   am
    45    89    88    2
    46    15    14    2
    47    14    13    1
    48    92    91    1
    49    92    93    1
    50    13    12    1
    51    88    91   am
    52    88    87    1
    53    86    87    1
    54    99    93   am
    55    99   100    1
    56    93    94    2
    57    12     3   am
    58    87    90    1
    59    79    78    1
    60    76    78   ar
    61    76    74   ar
    62   100   101    1
    63   101   102    2
    64     3     4    2
    65     3     2    1
    66    78    77   ar
    67    74    73   ar
    68     2     1    1
    69     2     5    1
    70    71    70    2
    71    77    75   ar
    72    10     9    1
    73    73    75   ar
    74    73    72    1
    75    69    70    1
    76    69    68    1
    77    69    72    1
    78     6     5    1
    79     6     7    1
    80    67    66    1
    81     9    11    1
    82     9     8    2
    83    66    64   ar
    84    66    65   ar
    85    64    62   ar
    86    65    63   ar
    87     7     8    1
    88    62    61   ar
    89    59    58    2
    90    63    61   ar
    91    61    60    1
    92    57    60    1
    93    57    58    1
    94    57    56    1
    95    55    54    2
    96    52    53    1
    97    53    54    1
