@<TRIPOS>MOLECULE
tmp/5lq4B00.pdb
 126 124 0 0 0
SMALL
GASTEIGER

@<TRIPOS>ATOM
      1  N        130.9300   95.3040   62.9410 N.3   300  TYR300     -0.1241
      2  CA       130.7330   94.9790   64.3470 C.3   300  TYR300      0.1605
      3  C        129.7220   95.9390   64.9530 C.2   300  TYR300      0.2264
      4  O        129.5650   97.0740   64.4900 O.2   300  TYR300     -0.2867
      5  CB       132.0610   95.0500   65.1050 C.3   300  TYR300      0.0534
      6  CG       132.6310   96.4390   65.1900 C.ar  300  TYR300     -0.0201
      7  CD1      133.3670   96.9750   64.1340 C.ar  300  TYR300     -0.0009
      8  CD2      132.4150   97.2380   66.3240 C.ar  300  TYR300     -0.0009
      9  CE1      133.8720   98.2590   64.2050 C.ar  300  TYR300      0.0417
     10  CE2      132.9230   98.5230   66.4030 C.ar  300  TYR300      0.0417
     11  CZ       133.6560   99.0250   65.3450 C.ar  300  TYR300      0.1957
     12  OH       134.1520  100.3110   65.4200 O.3   300  TYR300     -0.2866
     13  N        135.2610   98.5180   60.2880 N.3   314  THR314     -0.1203
     14  CA       136.6900   98.8020   60.2860 C.3   314  THR314      0.1994
     15  C        137.1450   98.8490   58.8110 C.2   314  THR314      0.2617
     16  O        136.6210   98.1220   57.9640 O.2   314  THR314     -0.2717
     17  CB       137.4890   97.8260   61.2100 C.3   314  THR314      0.1784
     18  OG1      138.8840   98.1590   61.1740 O.3   314  THR314     -0.2211
     19  CG2      137.3220   96.3840   60.8280 C.3   314  THR314      0.0376
     20  N        138.0610   99.7680   58.5030 N.am  315  ARG315     -0.1979
     21  CA       138.5630   99.9880   57.1380 C.3   315  ARG315      0.1597
     22  C        140.0860  100.1760   57.1690 C.2   315  ARG315      0.2287
     23  O        140.6610  100.2370   58.2500 O.2   315  ARG315     -0.2864
     24  CB       137.8710  101.2020   56.5210 C.3   315  ARG315      0.0334
     25  CG       136.3630  101.1430   56.6490 C.3   315  ARG315      0.0492
     26  CD       135.6360  102.0750   55.7040 C.3   315  ARG315      0.2205
     27  NE       134.1950  101.8530   55.8070 N.pl3 315  ARG315     -0.0865
     28  CZ       133.2800  102.3580   54.9850 C.cat 315  ARG315      0.5346
     29  NH1      133.6310  103.1440   53.9750 N.pl3 315  ARG315      0.1354
     30  NH2      132.0000  102.0710   55.1730 N.pl3 315  ARG315      0.1354
     31  N        141.9330  102.6830   56.9270 N.3   317  TYR317     -0.1228
     32  CA       142.4080  103.9990   57.3730 C.3   317  TYR317      0.1721
     33  C        141.6890  104.4170   58.6680 C.2   317  TYR317      0.2437
     34  O        140.5710  103.9730   58.9090 O.2   317  TYR317     -0.2733
     35  CB       142.1990  105.0420   56.2670 C.3   317  TYR317      0.0547
     36  CG       140.7680  105.1750   55.8010 C.ar  317  TYR317     -0.0200
     37  CD1      140.2310  104.2780   54.8720 C.ar  317  TYR317     -0.0009
     38  CD2      139.9460  106.1970   56.2840 C.ar  317  TYR317     -0.0009
     39  CE1      138.9160  104.3870   54.4470 C.ar  317  TYR317      0.0417
     40  CE2      138.6280  106.3260   55.8600 C.ar  317  TYR317      0.0417
     41  CZ       138.1160  105.4220   54.9450 C.ar  317  TYR317      0.1957
     42  OH       136.8160  105.5460   54.5250 O.3   317  TYR317     -0.2866
     43  N        142.3390  105.2440   59.5120 N.am  318  PRO318     -0.2718
     44  CA       141.6950  105.7190   60.7320 C.3   318  PRO318      0.1535
     45  C        140.6210  106.7460   60.4290 C.2   318  PRO318      0.2599
     46  O        140.6530  107.3730   59.3750 O.2   318  PRO318     -0.2715
     47  CB       142.8450  106.3760   61.4940 C.3   318  PRO318      0.0310
     48  CG       143.7190  106.8980   60.4100 C.3   318  PRO318      0.0237
     49  CD       143.6880  105.8140   59.3640 C.3   318  PRO318      0.0939
     50  N        139.7000  106.9310   61.3710 N.am  319  SER319     -0.1936
     51  CA       138.5820  107.8540   61.1990 C.3   319  SER319      0.2055
     52  C        137.9840  108.2330   62.5520 C.2   319  SER319      0.2644
     53  O        137.5520  107.3720   63.3210 O.2   319  SER319     -0.2714
     54  CB       137.5140  107.2360   60.2910 C.3   319  SER319      0.2130
     55  OG       136.5930  108.2200   59.8450 O.3   319  SER319     -0.2179
     56  N        138.0860  109.5220   62.8660 N.am  320  GLY320     -0.1939
     57  CA       137.3250  110.2050   63.9120 C.3   320  GLY320      0.2014
     58  C        135.9600  109.6230   64.2120 C.2   320  GLY320      0.2639
     59  O        135.0730  109.6190   63.3600 O.2   320  GLY320     -0.2714
     60  N        135.8160  109.1270   65.4340 N.am  321  GLY321     -0.1939
     61  CA       134.5880  108.5240   65.9090 C.3   321  GLY321      0.2014
     62  C        134.2770  107.1660   65.3260 C.2   321  GLY321      0.2638
     63  O        133.1960  106.6440   65.5640 O.2   321  GLY321     -0.2714
     64  N        135.2430  106.5660   64.6250 N.am  322  ALA322     -0.1977
     65  CA       134.9740  105.4890   63.6630 C.3   322  ALA322      0.1597
     66  C        133.9510  106.0490   62.6590 C.2   322  ALA322      0.2287
     67  O        134.2410  107.0870   62.0310 O.2   322  ALA322     -0.2864
     68  CB       134.5220  104.2120   64.3560 C.3   322  ALA322      0.0319
     69  N        133.0120  106.3920   59.6780 N.3   324  TYR324     -0.1241
     70  CA       133.3750  106.2080   58.2710 C.3   324  TYR324      0.1605
     71  C        132.3190  106.7460   57.2990 C.2   324  TYR324      0.2264
     72  O        131.6290  105.9930   56.6040 O.2   324  TYR324     -0.2867
     73  CB       133.7020  104.7350   57.9990 C.3   324  TYR324      0.0534
     74  CG       134.9970  104.3120   58.6230 C.ar  324  TYR324     -0.0201
     75  CD1      136.2020  104.6620   58.0350 C.ar  324  TYR324     -0.0009
     76  CD2      135.0280  103.5830   59.8100 C.ar  324  TYR324     -0.0009
     77  CE1      137.4020  104.2870   58.5960 C.ar  324  TYR324      0.0417
     78  CE2      136.2280  103.2050   60.3840 C.ar  324  TYR324      0.0417
     79  CZ       137.4090  103.5620   59.7680 C.ar  324  TYR324      0.1957
     80  OH       138.6090  103.2150   60.3250 O.3   324  TYR324     -0.2866
     81  N        129.3500  115.2470   66.3730 N.3   396  TYR396     -0.1241
     82  CA       130.2420  116.4030   66.4840 C.3   396  TYR396      0.1605
     83  C        129.5470  117.7380   66.1620 C.2   396  TYR396      0.2264
     84  O        129.2420  118.0370   65.0180 O.2   396  TYR396     -0.2867
     85  CB       131.4860  116.1840   65.6200 C.3   396  TYR396      0.0534
     86  CG       132.2420  114.9230   66.0100 C.ar  396  TYR396     -0.0201
     87  CD1      133.0150  114.8780   67.1730 C.ar  396  TYR396     -0.0009
     88  CD2      132.1610  113.7610   65.2310 C.ar  396  TYR396     -0.0009
     89  CE1      133.6910  113.7200   67.5410 C.ar  396  TYR396      0.0417
     90  CE2      132.8370  112.6010   65.5910 C.ar  396  TYR396      0.0417
     91  CZ       133.6010  112.5880   66.7460 C.ar  396  TYR396      0.1957
     92  OH       134.2740  111.4400   67.1050 O.3   396  TYR396     -0.2866
     93  N        136.9680  117.4740   60.8560 N.3   403  LEU403     -0.1245
     94  CA       137.2920  116.0360   60.8460 C.3   403  LEU403      0.1561
     95  C        137.2280  115.4450   59.4420 C.2   403  LEU403      0.2260
     96  O        138.1490  114.7370   59.0270 O.2   403  LEU403     -0.2867
     97  CB       136.3570  115.2480   61.7520 C.3   403  LEU403      0.0270
     98  CG       136.6300  115.3500   63.2390 C.3   403  LEU403      0.0019
     99  CD1      135.4580  114.7230   63.9700 C.3   403  LEU403      0.0001
    100  CD2      137.9390  114.6640   63.5980 C.3   403  LEU403      0.0001
    101  N        140.2430  116.3580   57.3640 N.3   406  LYS406     -0.1231
    102  CA       141.3800  115.5390   57.8120 C.3   406  LYS406      0.1693
    103  C        141.2760  114.0840   57.3700 C.2   406  LYS406      0.2592
    104  O        142.3040  113.4540   57.1010 O.2   406  LYS406     -0.2718
    105  CB       141.5350  115.5800   59.3230 C.3   406  LYS406      0.0285
    106  CG       141.9780  116.9260   59.8420 C.3   406  LYS406      0.0035
    107  CD       141.9320  116.9440   61.3430 C.3   406  LYS406      0.0206
    108  CE       142.1140  118.3470   61.8380 C.3   406  LYS406      0.1093
    109  NZ       142.1040  118.3340   63.3170 N.3   406  LYS406     -0.1314
    110  N        140.0520  113.5600   57.2960 N.am  407  HIS407     -0.1976
    111  CA       139.8280  112.2320   56.7200 C.3   407  HIS407      0.1656
    112  C        140.1770  112.1710   55.2270 C.2   407  HIS407      0.2291
    113  O        140.7100  111.1630   54.7580 O.2   407  HIS407     -0.2864
    114  CB       138.3850  111.7450   56.9330 C.3   407  HIS407      0.0771
    115  CG       137.9910  111.6440   58.3680 C.ar  407  HIS407      0.0820
    116  ND1      136.6810  111.7170   58.7880 N.ar  407  HIS407     -0.2267
    117  CD2      138.7350  111.5070   59.4860 C.ar  407  HIS407      0.1154
    118  CE1      136.6320  111.6150   60.1020 C.ar  407  HIS407      0.1986
    119  NE2      137.8670  111.4850   60.5490 N.ar  407  HIS407     -0.2212
    120  N        143.8760  111.9260   55.1990 N.3   410  VAL410     -0.1245
    121  CA       144.2320  110.5690   55.6280 C.3   410  VAL410      0.1561
    122  C        144.1050  109.5970   54.4560 C.2   410  VAL410      0.2260
    123  O        144.9590  108.7270   54.2630 O.2   410  VAL410     -0.2867
    124  CB       143.3470  110.1100   56.8170 C.3   410  VAL410      0.0252
    125  CG1      143.3890  108.5940   57.0040 C.3   410  VAL410      0.0019
    126  CG2      143.7830  110.8160   58.0980 C.3   410  VAL410      0.0019
@<TRIPOS>BOND
     1    29    28    1
     2   123   122    2
     3    39    37   ar
     4    39    41   ar
     5   122   121    1
     6    42    41    1
     7   113   112    2
     8    37    36   ar
     9    41    40   ar
    10    28    30    1
    11    28    27    2
    12   120   121    1
    13   112   111    1
    14   121   124    1
    15    26    27    1
    16    26    25    1
    17    36    35    1
    18    36    38   ar
    19    40    38   ar
    20    35    32    1
    21    24    25    1
    22    24    21    1
    23    72    71    2
    24   111   114    1
    25   111   110    1
    26   124   125    1
    27   124   126    1
    28    31    32    1
    29   114   115    1
    30   104   103    2
    31    21    22    1
    32    21    20    1
    33    22    23    2
    34   110   103   am
    35    71    70    1
    36   101   102    1
    37   103   102    1
    38    32    33    1
    39   102   105    1
    40    16    15    2
    41    73    70    1
    42    73    74    1
    43    75    77   ar
    44    75    74   ar
    45    70    69    1
    46   115   116   ar
    47   115   117   ar
    48    20    15   am
    49    77    79   ar
    50    74    76   ar
    51    33    34    2
    52    33    43   am
    53   116   118   ar
    54    15    14    1
    55    96    95    2
    56   105   106    1
    57    49    43    1
    58    49    48    1
    59    46    45    2
    60    95    94    1
    61   117   119   ar
    62    43    44    1
    63    79    80    1
    64    79    78   ar
    65    76    78   ar
    66   106   107    1
    67    55    54    1
    68   118   119   ar
    69    14    13    1
    70    14    17    1
    71    54    51    1
    72    48    47    1
    73    45    44    1
    74    45    50   am
    75    44    47    1
    76    19    17    1
    77    94    93    1
    78    94    97    1
    79    18    17    1
    80    51    50    1
    81    51    52    1
    82   107   108    1
    83    97    98    1
    84   108   109    1
    85    67    66    2
    86    52    56   am
    87    52    53    2
    88    66    65    1
    89    56    57    1
    90     1     2    1
    91    98   100    1
    92    98    99    1
    93    59    58    2
    94    65    68    1
    95    65    64    1
    96    57    58    1
    97     7     9   ar
    98     7     6   ar
    99     9    11   ar
   100    58    60   am
   101     2     3    1
   102     2     5    1
   103     4     3    2
   104    64    62   am
   105    84    83    2
   106     5     6    1
   107     6     8   ar
   108    88    90   ar
   109    88    86   ar
   110    62    63    2
   111    62    61    1
   112    11    12    1
   113    11    10   ar
   114    60    61    1
   115    90    91   ar
   116    85    86    1
   117    85    82    1
   118    86    87   ar
   119    83    82    1
   120     8    10   ar
   121    81    82    1
   122    91    92    1
   123    91    89   ar
   124    87    89   ar
