@<TRIPOS>MOLECULE
tmp/5lq7A00.pdb
 93 91 0 0 0
SMALL
GASTEIGER

@<TRIPOS>ATOM
      1  N         15.2920   25.2220   16.3470 N.3    65  ASN65      -0.1225
      2  CA        14.5160   26.0170   17.2850 C.3    65  ASN65       0.1785
      3  C         13.9070   27.1840   16.4860 C.2    65  ASN65       0.2597
      4  O         14.6290   27.9150   15.8470 O.2    65  ASN65      -0.2718
      5  CB        15.3830   26.5960   18.4210 C.3    65  ASN65       0.1169
      6  CG        14.5740   27.2280   19.5530 C.2    65  ASN65       0.2627
      7  OD1       13.5810   27.9610   19.3470 O.2    65  ASN65      -0.2716
      8  ND2       14.9600   26.9490   20.7470 N.am   65  ASN65      -0.0877
      9  N         12.6110   27.2690   16.5570 N.am   66  ALA66      -0.1966
     10  CA        11.8630   28.2510   15.7590 C.3    66  ALA66       0.1728
     11  C         12.3050   29.6930   16.0100 C.2    66  ALA66       0.2616
     12  O         12.1670   30.5310   15.1170 O.2    66  ALA66      -0.2715
     13  CB        10.3960   28.1330   16.0240 C.3    66  ALA66       0.0334
     14  N         12.7480   30.0330   17.2130 N.am   67  VAL67      -0.1977
     15  CA        13.1210   31.4100   17.4870 C.3    67  VAL67       0.1596
     16  C         14.3230   31.7980   16.6350 C.2    67  VAL67       0.2287
     17  O         14.3620   32.9080   16.0640 O.2    67  VAL67      -0.2864
     18  CB        13.4720   31.6310   18.9630 C.3    67  VAL67       0.0276
     19  CG1       13.8550   33.1230   19.1710 C.3    67  VAL67       0.0022
     20  CG2       12.2820   31.2970   19.8330 C.3    67  VAL67       0.0022
     21  N         14.5130   22.2050   20.6520 N.3    92  PRO92      -0.2102
     22  CA        13.5660   23.1030   19.9110 C.3    92  PRO92       0.1504
     23  C         12.8200   24.0330   20.8160 C.2    92  PRO92       0.2576
     24  O         12.3070   25.0350   20.3650 O.2    92  PRO92      -0.2718
     25  CB        12.6120   22.1160   19.2180 C.3    92  PRO92       0.0282
     26  CG        13.4280   20.8170   19.1190 C.3    92  PRO92       0.0208
     27  CD        14.2310   20.7750   20.3800 C.3    92  PRO92       0.0893
     28  N         12.7530   23.7120   22.1220 N.am   93  THR93      -0.1953
     29  CA        11.8760   24.4210   23.0100 C.3    93  THR93       0.1897
     30  C         12.5890   25.3040   24.0120 C.2    93  THR93       0.2313
     31  O         12.2030   26.4530   24.2130 O.2    93  THR93      -0.2863
     32  CB        10.9340   23.4510   23.7370 C.3    93  THR93       0.1794
     33  OG1       10.1640   22.7250   22.7940 O.3    93  THR93      -0.2208
     34  CG2        9.9600   24.1840   24.7110 C.3    93  THR93       0.0378
     35  N          0.9180   27.7110   20.5820 N.3   145  TYR145     -0.1241
     36  CA         0.9820   26.9370   19.3730 C.3   145  TYR145      0.1605
     37  C          1.0350   25.4500   19.7510 C.2   145  TYR145      0.2264
     38  O          1.8200   25.0490   20.5990 O.2   145  TYR145     -0.2867
     39  CB         2.2620   27.3340   18.6100 C.3   145  TYR145      0.0534
     40  CG         2.5430   26.5740   17.3500 C.ar  145  TYR145     -0.0201
     41  CD1        1.9740   26.9160   16.1520 C.ar  145  TYR145     -0.0009
     42  CD2        3.4090   25.4720   17.3810 C.ar  145  TYR145     -0.0009
     43  CE1        2.2730   26.2080   14.9670 C.ar  145  TYR145      0.0417
     44  CE2        3.6570   24.7280   16.2370 C.ar  145  TYR145      0.0417
     45  CZ         3.1260   25.1080   15.0320 C.ar  145  TYR145      0.1957
     46  OH         3.4140   24.3620   13.8940 O.3   145  TYR145     -0.2866
     47  N          2.3540   22.1230   19.2250 N.3   147  ALA147     -0.1245
     48  CA         3.4340   21.4390   18.5520 C.3   147  ALA147      0.1562
     49  C          3.2810   19.9330   18.7730 C.2   147  ALA147      0.2260
     50  O          2.6180   19.5220   19.7620 O.2   147  ALA147     -0.2867
     51  CB         4.7680   21.8770   19.0570 C.3   147  ALA147      0.0290
     52  N          4.4810   17.6980   22.3630 N.3   150  ILE150     -0.1245
     53  CA         4.5620   18.5770   23.5240 C.3   150  ILE150      0.1561
     54  C          3.3350   19.4600   23.7530 C.2   150  ILE150      0.2260
     55  O          3.1010   19.9400   24.8380 O.2   150  ILE150     -0.2867
     56  CB         5.8410   19.4390   23.5180 C.3   150  ILE150      0.0252
     57  CG1        5.8350   20.4800   22.3990 C.3   150  ILE150      0.0019
     58  CG2        7.0910   18.5940   23.4150 C.3   150  ILE150      0.0019
     59  CD1        6.9910   21.4420   22.5000 C.3   150  ILE150      0.0001
     60  N          2.7510   25.5180   23.2360 N.3   153  SER153     -0.1202
     61  CA         4.0760   26.0010   23.4590 C.3   153  SER153      0.2020
     62  C          4.2640   27.3290   22.7110 C.2   153  SER153      0.2619
     63  O          3.5180   27.6310   21.7840 O.2   153  SER153     -0.2717
     64  CB         5.1180   24.9880   22.9860 C.3   153  SER153      0.2103
     65  OG         4.8740   24.6160   21.6600 O.3   153  SER153     -0.2182
     66  N          5.2560   28.1000   23.1100 N.am  154  GLY154     -0.1942
     67  CA         5.5650   29.3370   22.4010 C.3   154  GLY154      0.2014
     68  C          6.1920   28.9890   21.0810 C.2   154  GLY154      0.2638
     69  O          6.9370   28.0290   20.9820 O.2   154  GLY154     -0.2714
     70  N          5.8770   29.7670   20.0520 N.am  155  HIS155     -0.1973
     71  CA         6.3820   29.4660   18.7180 C.3   155  HIS155      0.1656
     72  C          6.5880   30.7790   17.9640 C.2   155  HIS155      0.2291
     73  O          5.7820   31.6500   18.0940 O.2   155  HIS155     -0.2864
     74  CB         5.4070   28.5790   18.0040 C.3   155  HIS155      0.0771
     75  CG         5.8960   28.0310   16.6900 C.ar  155  HIS155      0.0820
     76  ND1        7.1320   27.4010   16.5110 N.ar  155  HIS155     -0.2267
     77  CD2        5.3330   28.0660   15.4620 C.ar  155  HIS155      0.1154
     78  CE1        7.2320   27.0280   15.2560 C.ar  155  HIS155      0.1986
     79  NE2        6.1530   27.4220   14.6120 N.ar  155  HIS155     -0.2212
     80  N         10.3590   26.0810   10.4390 N.3   177  TRP177     -0.1241
     81  CA        10.4910   24.9590   11.4090 C.3   177  TRP177      0.1605
     82  C          9.5960   23.7920   11.0710 C.2   177  TRP177      0.2264
     83  O          9.9450   22.6160   11.2910 O.2   177  TRP177     -0.2867
     84  CB        10.2030   25.4790   12.8150 C.3   177  TRP177      0.0550
     85  CG        10.2980   24.4550   13.8650 C.ar  177  TRP177      0.0003
     86  CD1       11.4250   24.0470   14.5100 C.ar  177  TRP177      0.0946
     87  CD2        9.2400   23.6810   14.4070 C.ar  177  TRP177      0.0152
     88  NE1       11.1520   23.1150   15.3960 N.ar  177  TRP177     -0.2442
     89  CE2        9.8340   22.8110   15.3630 C.ar  177  TRP177      0.0810
     90  CE3        7.8730   23.6150   14.1780 C.ar  177  TRP177      0.0012
     91  CZ2        9.0800   21.9210   16.1260 C.ar  177  TRP177      0.0191
     92  CZ3        7.1050   22.6660   14.9850 C.ar  177  TRP177      0.0001
     93  CH2        7.7180   21.8820   15.9080 C.ar  177  TRP177      0.0015
@<TRIPOS>BOND
     1    80    81    1
     2    82    83    2
     3    82    81    1
     4    81    84    1
     5    84    85    1
     6    85    87   ar
     7    85    86   ar
     8    46    45    1
     9    90    87   ar
    10    90    92   ar
    11    87    89   ar
    12    86    88   ar
    13    79    78   ar
    14    79    77   ar
    15    43    45   ar
    16    43    41   ar
    17    92    93   ar
    18    45    44   ar
    19    12    11    2
    20    78    76   ar
    21    89    88   ar
    22    89    91   ar
    23    77    75   ar
    24    10    11    1
    25    10    13    1
    26    10     9    1
    27     4     3    2
    28    93    91   ar
    29    11    14   am
    30    17    16    2
    31    41    40   ar
    32    44    42   ar
    33     1     2    1
    34     3     9   am
    35     3     2    1
    36    76    75   ar
    37    16    15    1
    38    75    74    1
    39    14    15    1
    40     2     5    1
    41    40    42   ar
    42    40    39    1
    43    15    18    1
    44    72    73    2
    45    72    71    1
    46    74    71    1
    47     5     6    1
    48    48    49    1
    49    48    51    1
    50    48    47    1
    51    39    36    1
    52    71    70    1
    53    49    50    2
    54    18    19    1
    55    18    20    1
    56    26    25    1
    57    26    27    1
    58    25    22    1
    59     7     6    2
    60    36    37    1
    61    36    35    1
    62     6     8   am
    63    37    38    2
    64    22    21    1
    65    22    23    1
    66    70    68   am
    67    24    23    2
    68    27    21    1
    69    23    28   am
    70    69    68    2
    71    68    67    1
    72    65    64    1
    73    63    62    2
    74    28    29    1
    75    52    53    1
    76    57    59    1
    77    57    56    1
    78    67    66    1
    79    62    66   am
    80    62    61    1
    81    33    32    1
    82    64    61    1
    83    29    32    1
    84    29    30    1
    85    60    61    1
    86    58    56    1
    87    56    53    1
    88    53    54    1
    89    32    34    1
    90    54    55    2
    91    30    31    2
