@<TRIPOS>MOLECULE
tmp/5lqdD00.pdb
 104 100 0 0 0
SMALL
GASTEIGER

@<TRIPOS>ATOM
      1  N         26.0650    4.0790   23.8440 N.3    77  TYR77      -0.1241
      2  CA        26.1170    4.8440   22.6280 C.3    77  TYR77       0.1605
      3  C         26.9160    4.0910   21.5720 C.2    77  TYR77       0.2264
      4  O         26.3660    3.7940   20.5110 O.2    77  TYR77      -0.2867
      5  CB        26.6840    6.2380   22.8670 C.3    77  TYR77       0.0534
      6  CG        26.8760    7.0610   21.6220 C.ar   77  TYR77      -0.0201
      7  CD1       25.8130    7.7830   21.0700 C.ar   77  TYR77      -0.0009
      8  CD2       28.1340    7.1380   21.0020 C.ar   77  TYR77      -0.0009
      9  CE1       25.9670    8.5290   19.9220 C.ar   77  TYR77       0.0417
     10  CE2       28.3170    7.8990   19.8390 C.ar   77  TYR77       0.0417
     11  CZ        27.2200    8.5890   19.2970 C.ar   77  TYR77       0.1957
     12  OH        27.3530    9.3830   18.1630 O.3    77  TYR77      -0.2866
     13  N         24.9080    2.3300   18.4130 N.3    82  ASN82      -0.1240
     14  CA        25.5940    2.4100   17.1100 C.3    82  ASN82       0.1653
     15  C         26.0680    1.1040   16.5030 C.2    82  ASN82       0.2266
     16  O         26.4560    1.1130   15.3320 O.2    82  ASN82      -0.2867
     17  CB        26.7520    3.3940   17.1530 C.3    82  ASN82       0.1155
     18  CG        26.2810    4.8180   17.2030 C.2    82  ASN82       0.2627
     19  OD1       25.0960    5.1180   17.0070 O.2    82  ASN82      -0.2716
     20  ND2       27.1930    5.7080   17.5280 N.am   82  ASN82      -0.0877
     21  N         21.9300   -0.2150   15.1580 N.3    86  TRP86      -0.1241
     22  CA        22.3780    0.1160   13.8180 C.3    86  TRP86       0.1605
     23  C         22.3730   -1.1170   12.8870 C.2    86  TRP86       0.2264
     24  O         21.7840   -1.0750   11.7940 O.2    86  TRP86      -0.2867
     25  CB        23.7680    0.7740   13.8300 C.3    86  TRP86       0.0550
     26  CG        24.1740    1.2810   12.4700 C.ar   86  TRP86       0.0003
     27  CD1       24.8780    0.5890   11.5040 C.ar   86  TRP86       0.0946
     28  CD2       23.9010    2.5590   11.9190 C.ar   86  TRP86       0.0152
     29  NE1       25.0470    1.3630   10.3890 N.ar   86  TRP86      -0.2442
     30  CE2       24.4570    2.5800   10.6120 C.ar   86  TRP86       0.0810
     31  CE3       23.2360    3.6950   12.3920 C.ar   86  TRP86       0.0012
     32  CZ2       24.3640    3.7120    9.7690 C.ar   86  TRP86       0.0191
     33  CZ3       23.1390    4.8170   11.5570 C.ar   86  TRP86       0.0001
     34  CH2       23.7080    4.8170   10.2640 C.ar   86  TRP86       0.0015
     35  N         17.4030    6.5570   17.2430 N.3   138  TYR138     -0.1241
     36  CA        17.5140    5.2280   17.8820 C.3   138  TYR138      0.1605
     37  C         18.2980    5.2070   19.2090 C.2   138  TYR138      0.2264
     38  O         18.0860    4.3310   20.0360 O.2   138  TYR138     -0.2867
     39  CB        18.0530    4.1770   16.8820 C.3   138  TYR138      0.0534
     40  CG        19.4630    4.4910   16.4030 C.ar  138  TYR138     -0.0201
     41  CD1       20.5760    4.0990   17.1410 C.ar  138  TYR138     -0.0009
     42  CD2       19.6780    5.2280   15.2290 C.ar  138  TYR138     -0.0009
     43  CE1       21.8600    4.4580   16.7400 C.ar  138  TYR138      0.0417
     44  CE2       20.9630    5.5740   14.8050 C.ar  138  TYR138      0.0417
     45  CZ        22.0450    5.1950   15.5510 C.ar  138  TYR138      0.1957
     46  OH        23.3190    5.5390   15.1130 O.3   138  TYR138     -0.2866
     47  N         31.2500    7.9560    3.3590 N.3   258  ARG258     -0.1245
     48  CA        32.2480    7.2380    4.1320 C.3   258  ARG258      0.1563
     49  C         32.0210    5.7270    3.9890 C.2   258  ARG258      0.2260
     50  O         30.9220    5.2690    3.6010 O.2   258  ARG258     -0.2867
     51  CB        32.1860    7.6270    5.6050 C.3   258  ARG258      0.0307
     52  CG        32.4420    9.1090    5.8980 C.3   258  ARG258      0.0489
     53  CD        32.5320    9.3700    7.3940 C.3   258  ARG258      0.2205
     54  NE        32.8720   10.7620    7.6840 N.pl3 258  ARG258     -0.0865
     55  CZ        33.1170   11.3170    8.8770 C.cat 258  ARG258      0.5346
     56  NH1       33.1100   10.6440   10.0350 N.pl3 258  ARG258      0.1354
     57  NH2       33.3900   12.6020    8.8960 N.pl3 258  ARG258      0.1354
     58  N         30.8960    3.1520    5.2610 N.3   260  GLU260     -0.1245
     59  CA        29.9050    2.5440    6.1370 C.3   260  GLU260      0.1567
     60  C         29.3300    1.3280    5.4240 C.2   260  GLU260      0.2260
     61  O         29.1100    1.3580    4.2260 O.2   260  GLU260     -0.2867
     62  CB        28.8830    3.6090    6.5530 C.3   260  GLU260      0.0388
     63  CG        27.4390    3.1690    6.7880 C.3   260  GLU260      0.1160
     64  CD        27.2470    2.1940    7.9090 C.2   260  GLU260      0.3649
     65  OE1       28.0370    2.1820    8.8720 O.co2 260  GLU260     -0.2457
     66  OE2       26.2590    1.4560    7.8210 O.co2 260  GLU260     -0.2457
     67  N         26.4620    1.4230    2.8610 N.3   263  LYS263     -0.1245
     68  CA        26.5180    2.3730    1.7210 C.3   263  LYS263      0.1561
     69  C         26.5940    1.6940    0.3470 C.2   263  LYS263      0.2260
     70  O         26.2400    2.3140   -0.6640 O.2   263  LYS263     -0.2867
     71  CB        27.6840    3.3610    1.8550 C.3   263  LYS263      0.0271
     72  CG        27.6070    4.2890    3.0650 C.3   263  LYS263      0.0035
     73  CD        26.4980    5.3270    2.9460 C.3   263  LYS263      0.0206
     74  CE        26.5570    6.2660    4.1500 C.3   263  LYS263      0.1093
     75  NZ        25.3710    7.1370    4.2820 N.3   263  LYS263     -0.1314
     76  N         34.5100    4.9710    8.1020 N.3   295  SER295     -0.1202
     77  CA        33.2820    5.2290    8.8750 C.3   295  SER295      0.2020
     78  C         33.5300    4.9770   10.3640 C.2   295  SER295      0.2618
     79  O         33.2250    5.8220   11.2070 O.2   295  SER295     -0.2717
     80  CB        32.1440    4.3430    8.3630 C.3   295  SER295      0.2103
     81  OG        30.9840    4.5310    9.1390 O.3   295  SER295     -0.2182
     82  N         34.1100    3.8100   10.6600 N.am  296  ARG296     -0.1979
     83  CA        34.5750    3.4490   12.0010 C.3   296  ARG296      0.1597
     84  C         35.9100    2.7350   11.9130 C.2   296  ARG296      0.2287
     85  O         36.1830    2.0750   10.9180 O.2   296  ARG296     -0.2864
     86  CB        33.5920    2.4890   12.7020 C.3   296  ARG296      0.0334
     87  CG        32.1550    2.9860   12.8500 C.3   296  ARG296      0.0492
     88  CD        31.2610    1.9510   13.5410 C.3   296  ARG296      0.2205
     89  NE        31.6470    1.6220   14.9180 N.pl3 296  ARG296     -0.0865
     90  CZ        30.8440    1.0750   15.8440 C.cat 296  ARG296      0.5346
     91  NH1       29.5540    0.8250   15.5950 N.pl3 296  ARG296      0.1354
     92  NH2       31.3230    0.8150   17.0720 N.pl3 296  ARG296      0.1354
     93  N         34.2920   -3.0590    9.9140 N.3   302  TYR302     -0.1241
     94  CA        34.4490   -1.7200    9.3470 C.3   302  TYR302      0.1605
     95  C         35.8610   -1.5260    8.8080 C.2   302  TYR302      0.2264
     96  O         36.0180   -1.0080    7.7260 O.2   302  TYR302     -0.2867
     97  CB        34.0500   -0.6270   10.3470 C.3   302  TYR302      0.0534
     98  CG        32.5380   -0.3830   10.3930 C.ar  302  TYR302     -0.0201
     99  CD1       31.6740   -1.2860   11.0420 C.ar  302  TYR302     -0.0009
    100  CD2       31.9720    0.7550    9.7880 C.ar  302  TYR302     -0.0009
    101  CE1       30.3210   -1.0520   11.1010 C.ar  302  TYR302      0.0417
    102  CE2       30.5890    0.9870    9.8240 C.ar  302  TYR302      0.0417
    103  CZ        29.7640    0.0880   10.4810 C.ar  302  TYR302      0.1957
    104  OH        28.3780    0.2900   10.5380 O.3   302  TYR302     -0.2866
@<TRIPOS>BOND
     1    70    69    2
     2    69    68    1
     3    68    71    1
     4    68    67    1
     5    71    72    1
     6    73    72    1
     7    73    74    1
     8    47    48    1
     9    50    49    2
    10    49    48    1
    11    48    51    1
    12    74    75    1
    13    61    60    2
    14    58    59    1
    15    60    59    1
    16    51    52    1
    17    52    53    1
    18    59    62    1
    19    62    63    1
    20    63    64    1
    21    53    54    1
    22    54    55    2
    23    96    95    2
    24    66    64   ar
    25    64    65   ar
    26    76    77    1
    27    80    77    1
    28    80    81    1
    29    95    94    1
    30    77    78    1
    31    55    57    1
    32    55    56    1
    33    94    93    1
    34    94    97    1
    35    32    34   ar
    36    32    30   ar
    37   100   102   ar
    38   100    98   ar
    39   102   103   ar
    40    34    33   ar
    41    97    98    1
    42    78    82   am
    43    78    79    2
    44    29    30   ar
    45    29    27   ar
    46    98    99   ar
    47   103   104    1
    48   103   101   ar
    49    30    28   ar
    50    82    83    1
    51    85    84    2
    52    99   101   ar
    53    27    26   ar
    54    33    31   ar
    55    24    23    2
    56    84    83    1
    57    28    31   ar
    58    28    26   ar
    59    83    86    1
    60    26    25    1
    61    86    87    1
    62    87    88    1
    63    23    22    1
    64    88    89    1
    65    22    25    1
    66    22    21    1
    67    44    42   ar
    68    44    45   ar
    69    89    90    2
    70    46    45    1
    71    42    40   ar
    72    16    15    2
    73    45    43   ar
    74    91    90    1
    75    90    92    1
    76    40    39    1
    77    40    41   ar
    78    15    14    1
    79    43    41   ar
    80    39    36    1
    81    19    18    2
    82    14    17    1
    83    14    13    1
    84    17    18    1
    85    18    20   am
    86    35    36    1
    87    36    37    1
    88    12    11    1
    89    37    38    2
    90    11    10   ar
    91    11     9   ar
    92    10     8   ar
    93     9     7   ar
    94     4     3    2
    95     8     6   ar
    96     7     6   ar
    97     3     2    1
    98     6     5    1
    99     2     5    1
   100     2     1    1
