@<TRIPOS>MOLECULE
tmp/5lqjB00.pdb
 100 95 0 0 0
SMALL
GASTEIGER

@<TRIPOS>ATOM
      1  N         17.4960  -29.8940   -4.5820 N.3    59  LEU59      -0.1231
      2  CA        16.5220  -30.9370   -4.8950 C.3    59  LEU59       0.1693
      3  C         15.8370  -31.3420   -3.6000 C.2    59  LEU59       0.2592
      4  O         16.4760  -31.9130   -2.7060 O.2    59  LEU59      -0.2718
      5  CB        17.1740  -32.1520   -5.5470 C.3    59  LEU59       0.0284
      6  CG        17.8790  -31.9890   -6.8930 C.3    59  LEU59       0.0019
      7  CD1       18.6920  -33.2560   -7.2070 C.3    59  LEU59       0.0001
      8  CD2       16.8870  -31.6500   -8.0200 C.3    59  LEU59       0.0001
      9  N         14.5440  -31.0470   -3.4990 N.am   60  VAL60      -0.1966
     10  CA        13.7570  -31.3870   -2.3290 C.3    60  VAL60       0.1727
     11  C         12.7230  -32.4170   -2.7360 C.2    60  VAL60       0.2616
     12  O         12.0570  -32.2700   -3.7690 O.2    60  VAL60      -0.2715
     13  CB        13.0880  -30.1550   -1.7080 C.3    60  VAL60       0.0290
     14  CG1       12.4400  -30.5350   -0.3740 C.3    60  VAL60       0.0023
     15  CG2       14.1090  -29.0490   -1.5250 C.3    60  VAL60       0.0023
     16  N         12.6100  -33.4660   -1.9320 N.am   61  LEU61      -0.1977
     17  CA        11.5720  -34.4780   -2.0590 C.3    61  LEU61       0.1596
     18  C         10.6010  -34.3100   -0.8920 C.2    61  LEU61       0.2287
     19  O         10.9940  -34.4500    0.2790 O.2    61  LEU61      -0.2864
     20  CB        12.1820  -35.8800   -2.0720 C.3    61  LEU61       0.0297
     21  CG        11.2010  -37.0320   -2.2060 C.3    61  LEU61       0.0022
     22  CD1       10.5590  -37.0240   -3.5850 C.3    61  LEU61       0.0001
     23  CD2       11.9220  -38.3430   -1.9420 C.3    61  LEU61       0.0001
     24  N         14.4660  -27.3200   -7.3670 N.3    83  ARG83      -0.1231
     25  CA        13.2370  -27.9850   -7.7650 C.3    83  ARG83       0.1694
     26  C         12.7070  -28.8070   -6.6020 C.2    83  ARG83       0.2592
     27  O         13.4760  -29.4090   -5.8490 O.2    83  ARG83      -0.2718
     28  CB        13.4600  -28.8920   -8.9760 C.3    83  ARG83       0.0321
     29  CG        14.3740  -28.3240  -10.0260 C.3    83  ARG83       0.0489
     30  CD        13.6200  -27.4830  -11.0300 C.3    83  ARG83       0.2205
     31  NE        13.1120  -28.2790  -12.1440 N.pl3  83  ARG83      -0.0865
     32  CZ        11.8330  -28.3340  -12.5170 C.cat  83  ARG83       0.5346
     33  NH1       11.4750  -29.1010  -13.5440 N.pl3  83  ARG83       0.1354
     34  NH2       10.9130  -27.6170  -11.8780 N.pl3  83  ARG83       0.1354
     35  N         11.3870  -28.8310   -6.4640 N.am   84  LEU84      -0.1966
     36  CA        10.7190  -29.5680   -5.4100 C.3    84  LEU84       0.1728
     37  C          9.8420  -30.6140   -6.0700 C.2    84  LEU84       0.2616
     38  O          9.0700  -30.3010   -6.9790 O.2    84  LEU84      -0.2715
     39  CB         9.8970  -28.6320   -4.5150 C.3    84  LEU84       0.0311
     40  CG         8.9100  -29.3280   -3.5760 C.3    84  LEU84       0.0022
     41  CD1        9.6420  -30.0330   -2.4850 C.3    84  LEU84       0.0001
     42  CD2        7.9320  -28.3470   -2.9900 C.3    84  LEU84       0.0001
     43  N          9.9910  -31.8580   -5.6410 N.am   85  LEU85      -0.1977
     44  CA         9.2020  -32.9540   -6.1680 C.3    85  LEU85       0.1596
     45  C          8.3390  -33.4640   -5.0270 C.2    85  LEU85       0.2287
     46  O          8.8610  -33.8010   -3.9620 O.2    85  LEU85      -0.2864
     47  CB        10.0920  -34.0620   -6.7340 C.3    85  LEU85       0.0297
     48  CG         9.3080  -35.3130   -7.1720 C.3    85  LEU85       0.0022
     49  CD1        8.2090  -34.9890   -8.1650 C.3    85  LEU85       0.0001
     50  CD2       10.2500  -36.3140   -7.7650 C.3    85  LEU85       0.0001
     51  N          7.1000  -30.0400   -9.0030 N.3   111  THR111     -0.1218
     52  CA         6.4250  -31.0880   -9.7470 C.3   111  THR111      0.1862
     53  C          5.7070  -31.9760   -8.7540 C.2   111  THR111      0.2287
     54  O          6.2860  -32.3630   -7.7320 O.2   111  THR111     -0.2866
     55  CB         7.4020  -31.9110  -10.5810 C.3   111  THR111      0.1770
     56  OG1        8.1200  -31.0390  -11.4520 O.3   111  THR111     -0.2211
     57  CG2        6.6510  -32.9190  -11.4050 C.3   111  THR111      0.0375
     58  N         12.9070  -42.6990   -9.3980 N.3   124  LEU124     -0.1245
     59  CA        13.3840  -41.3210   -9.5240 C.3   124  LEU124      0.1561
     60  C         14.6310  -41.2190  -10.3760 C.2   124  LEU124      0.2260
     61  O         14.7750  -40.2830  -11.1740 O.2   124  LEU124     -0.2867
     62  CB        13.6910  -40.7300   -8.1510 C.3   124  LEU124      0.0270
     63  CG        12.5190  -40.3680   -7.2670 C.3   124  LEU124      0.0019
     64  CD1       13.0500  -39.6000   -6.0910 C.3   124  LEU124      0.0001
     65  CD2       11.4750  -39.5640   -8.0510 C.3   124  LEU124      0.0001
     66  N         14.5760  -39.0060  -13.7640 N.3   128  TYR128     -0.1227
     67  CA        14.8530  -37.5820  -13.6390 C.3   128  TYR128      0.1736
     68  C         16.3020  -37.1650  -13.7990 C.2   128  TYR128      0.2595
     69  O         16.5550  -35.9650  -13.9460 O.2   128  TYR128     -0.2718
     70  CB        14.3690  -37.0570  -12.2830 C.3   128  TYR128      0.0548
     71  CG        12.8940  -36.8070  -12.2620 C.ar  128  TYR128     -0.0200
     72  CD1       12.0540  -37.5850  -11.4730 C.ar  128  TYR128     -0.0009
     73  CD2       12.3280  -35.8080  -13.0470 C.ar  128  TYR128     -0.0009
     74  CE1       10.6890  -37.3690  -11.4500 C.ar  128  TYR128      0.0417
     75  CE2       10.9620  -35.5870  -13.0340 C.ar  128  TYR128      0.0417
     76  CZ        10.1480  -36.3760  -12.2290 C.ar  128  TYR128      0.1957
     77  OH         8.7860  -36.1860  -12.2060 O.3   128  TYR128     -0.2866
     78  N         17.2530  -38.0870  -13.7860 N.am  129  ASP129     -0.1960
     79  CA        18.6740  -37.7300  -13.7440 C.3   129  ASP129      0.1840
     80  C         18.9820  -36.9450  -12.4670 C.2   129  ASP129      0.2621
     81  O         19.1880  -35.7290  -12.4370 O.2   129  ASP129     -0.2715
     82  CB        19.1420  -36.9460  -14.9760 C.3   129  ASP129      0.1450
     83  CG        20.5900  -36.4990  -14.8460 C.2   129  ASP129      0.3671
     84  OD1       21.4550  -37.3650  -14.5700 O.co2 129  ASP129     -0.2456
     85  OD2       20.8560  -35.2890  -14.9920 O.co2 129  ASP129     -0.2456
     86  N         18.9900  -37.7120  -11.4050 N.am  130  VAL130     -0.1977
     87  CA        19.2970  -37.2430  -10.0800 C.3   130  VAL130      0.1596
     88  C         20.3830  -38.1560   -9.5570 C.2   130  VAL130      0.2287
     89  O         20.3810  -39.3630   -9.8300 O.2   130  VAL130     -0.2864
     90  CB        18.0450  -37.2760   -9.1880 C.3   130  VAL130      0.0276
     91  CG1       18.4130  -37.1050   -7.7360 C.3   130  VAL130      0.0022
     92  CG2       17.0880  -36.2040   -9.6460 C.3   130  VAL130      0.0022
     93  N         19.4490  -36.5660   -3.3110 N.3   133  LEU133     -0.1245
     94  CA        18.6320  -35.4580   -2.8560 C.3   133  LEU133      0.1561
     95  C         19.3870  -34.6490   -1.8050 C.2   133  LEU133      0.2260
     96  O         20.3080  -35.1410   -1.1440 O.2   133  LEU133     -0.2867
     97  CB        17.3120  -35.9610   -2.2780 C.3   133  LEU133      0.0270
     98  CG        16.5590  -36.9840   -3.1240 C.3   133  LEU133      0.0019
     99  CD1       15.6290  -37.8340   -2.2470 C.3   133  LEU133      0.0001
    100  CD2       15.7780  -36.2780   -4.2100 C.3   133  LEU133      0.0001
@<TRIPOS>BOND
     1    85    83   ar
     2    82    83    1
     3    82    79    1
     4    83    84   ar
     5    69    68    2
     6    68    78   am
     7    68    67    1
     8    78    79    1
     9    66    67    1
    10    79    80    1
    11    67    70    1
    12    33    32    1
    13    73    75   ar
    14    73    71   ar
    15    75    76   ar
    16    32    31    2
    17    32    34    1
    18    80    81    2
    19    80    86   am
    20    70    71    1
    21    71    72   ar
    22    76    77    1
    23    76    74   ar
    24    31    30    1
    25    72    74   ar
    26    56    55    1
    27    57    55    1
    28    86    87    1
    29    61    60    2
    30    30    29    1
    31    55    52    1
    32    60    59    1
    33    87    88    1
    34    87    90    1
    35    29    28    1
    36    89    88    2
    37    52    51    1
    38    52    53    1
    39    92    90    1
    40    59    58    1
    41    59    62    1
    42    90    91    1
    43    28    25    1
    44    53    54    2
    45    49    48    1
    46    62    63    1
    47    65    63    1
    48     8     6    1
    49    25    24    1
    50    25    26    1
    51    50    48    1
    52    63    64    1
    53     7     6    1
    54    48    47    1
    55    38    37    2
    56     6     5    1
    57    47    44    1
    58    26    35   am
    59    26    27    2
    60    35    36    1
    61    44    43    1
    62    44    45    1
    63    37    43   am
    64    37    36    1
    65     5     2    1
    66    36    39    1
    67    45    46    2
    68     2     1    1
    69     2     3    1
    70    39    40    1
    71   100    98    1
    72    12    11    2
    73     3     9   am
    74     3     4    2
    75    22    21    1
    76    40    42    1
    77    40    41    1
    78     9    10    1
    79    93    94    1
    80    98    97    1
    81    98    99    1
    82    94    97    1
    83    94    95    1
    84    11    10    1
    85    11    16   am
    86    10    13    1
    87    21    20    1
    88    21    23    1
    89    20    17    1
    90    17    16    1
    91    17    18    1
    92    95    96    2
    93    13    15    1
    94    13    14    1
    95    18    19    2
