@<TRIPOS>MOLECULE
tmp/5lqkA00.pdb
 207 201 0 0 0
SMALL
GASTEIGER

@<TRIPOS>ATOM
      1  N          1.7600    5.2440   30.5230 N.3    37  TRP37      -0.1241
      2  CA         2.5110    5.1020   29.2630 C.3    37  TRP37       0.1605
      3  C          2.7690    6.4910   28.6830 C.2    37  TRP37       0.2264
      4  O          1.9020    7.3650   28.7680 O.2    37  TRP37      -0.2867
      5  CB         1.7500    4.2260   28.2480 C.3    37  TRP37       0.0550
      6  CG         2.4790    4.0110   26.9190 C.ar   37  TRP37       0.0003
      7  CD1        3.2350    2.9190   26.5590 C.ar   37  TRP37       0.0946
      8  CD2        2.5040    4.9020   25.7870 C.ar   37  TRP37       0.0152
      9  NE1        3.7310    3.0800   25.2740 N.ar   37  TRP37      -0.2442
     10  CE2        3.3040    4.2870   24.7830 C.ar   37  TRP37       0.0810
     11  CE3        1.9300    6.1580   25.5210 C.ar   37  TRP37       0.0012
     12  CZ2        3.5400    4.8890   23.5420 C.ar   37  TRP37       0.0191
     13  CZ3        2.1580    6.7460   24.2970 C.ar   37  TRP37       0.0001
     14  CH2        2.9600    6.1140   23.3200 C.ar   37  TRP37       0.0015
     15  N          5.1760    8.4720   25.1690 N.3    39  MET39      -0.1196
     16  CA         5.8550    8.2580   23.8840 C.3    39  MET39       0.1786
     17  C          7.3710    8.5220   23.9030 C.2    39  MET39       0.2306
     18  O          7.9110    9.0940   22.9490 O.2    39  MET39      -0.2863
     19  CB         5.1890    9.0900   22.7750 C.2    39  MET39       0.0070
     20  CG         5.3630   10.6250   22.9130 C.2    39  MET39       0.0282
     21  SD         4.3330   11.6480   21.8200 S.3    39  MET39      -0.1125
     22  CE         5.3270   13.1400   21.7700 C.3    39  MET39       0.0742
     23  N         11.9330   16.7380   17.4420 N.3    65  GLY65      -0.1225
     24  CA        11.0360   16.2450   18.4930 C.3    65  GLY65       0.1811
     25  C         11.8040   15.8760   19.7540 C.2    65  GLY65       0.2280
     26  O         12.5370   14.8780   19.7750 O.2    65  GLY65      -0.2866
     27  N         10.1470   16.1990   23.1200 N.3    67  TYR67      -0.1241
     28  CA         9.1470   15.7260   24.0640 C.3    67  TYR67       0.1605
     29  C          9.6210   15.9780   25.5010 C.2    67  TYR67       0.2264
     30  O          9.7110   17.1390   25.9110 O.2    67  TYR67      -0.2867
     31  CB         8.7150   14.2630   23.7800 C.3    67  TYR67       0.0534
     32  CG         7.5360   13.8270   24.6400 C.ar   67  TYR67      -0.0201
     33  CD1        6.3980   14.6230   24.7390 C.ar   67  TYR67      -0.0009
     34  CD2        7.5800   12.6540   25.3800 C.ar   67  TYR67      -0.0009
     35  CE1        5.3390   14.2620   25.5570 C.ar   67  TYR67       0.0417
     36  CE2        6.5150   12.2770   26.1980 C.ar   67  TYR67       0.0417
     37  CZ         5.4000   13.0900   26.2770 C.ar   67  TYR67       0.1957
     38  OH         4.3550   12.7300   27.0720 O.3    67  TYR67      -0.2866
     39  N         15.0800   20.4620   18.4000 N.3    88  MET88      -0.1230
     40  CA        13.9590   21.2910   17.9570 C.3    88  MET88       0.1702
     41  C         12.6360   20.7420   18.4980 C.2    88  MET88       0.2592
     42  O         12.2960   19.5720   18.2770 O.2    88  MET88      -0.2718
     43  CB        13.8970   21.3170   16.4210 C.3    88  MET88       0.0401
     44  CG        15.1540   21.8580   15.7240 C.3    88  MET88       0.0596
     45  SD        15.0100   21.8660   13.9090 S.3    88  MET88      -0.1393
     46  CE        16.6310   22.4830   13.4420 C.3    88  MET88       0.0692
     47  N         11.8920   21.6020   19.1940 N.am   89  GLU89      -0.1966
     48  CA        10.6640   21.2270   19.8560 C.3    89  GLU89       0.1733
     49  C          9.6400   22.3630   19.7740 C.2    89  GLU89       0.2616
     50  O          9.8260   23.4090   20.3960 O.2    89  GLU89      -0.2715
     51  CB        10.9580   20.8890   21.3200 C.3    89  GLU89       0.0429
     52  CG         9.7130   20.6400   22.1790 C.3    89  GLU89       0.1163
     53  CD         8.8320   19.5270   21.6280 C.2    89  GLU89       0.3649
     54  OE1        9.3180   18.3750   21.6100 O.co2  89  GLU89      -0.2457
     55  OE2        7.6620   19.8090   21.2340 O.co2  89  GLU89      -0.2457
     56  N          8.5430   22.1070   19.0600 N.am   90  ILE90      -0.1963
     57  CA         7.5210   23.1040   18.7310 C.3    90  ILE90       0.1727
     58  C          6.6090   23.4300   19.9200 C.2    90  ILE90       0.2616
     59  O          5.9600   24.4820   19.9450 O.2    90  ILE90      -0.2715
     60  CB         6.6300   22.5960   17.5570 C.3    90  ILE90       0.0290
     61  CG1        5.8540   23.7420   16.8950 C.3    90  ILE90       0.0022
     62  CG2        5.6680   21.4970   18.0490 C.3    90  ILE90       0.0023
     63  CD1        5.2610   23.3840   15.5270 C.3    90  ILE90       0.0001
     64  N          6.5410   22.5250   20.8940 N.am   91  ASN91      -0.1972
     65  CA         5.7480   22.7640   22.1050 C.3    91  ASN91       0.1688
     66  C          6.6070   23.3840   23.2120 C.2    91  ASN91       0.2292
     67  O          7.5880   22.7720   23.6580 O.2    91  ASN91      -0.2864
     68  CB         5.0990   21.4670   22.6000 C.3    91  ASN91       0.1181
     69  CG         3.9570   21.7190   23.5810 C.2    91  ASN91       0.2629
     70  OD1        4.1660   22.1910   24.6970 O.2    91  ASN91      -0.2716
     71  ND2        2.7450   21.4110   23.1610 N.am   91  ASN91      -0.0877
     72  N          6.7730   21.2880   26.4920 N.3    94  CYS94      -0.1235
     73  CA         7.7450   20.1940   26.3250 C.3    94  CYS94       0.1677
     74  C          9.1770   20.6940   26.3340 C.2    94  CYS94       0.2270
     75  O         10.0520   20.0680   26.9450 O.2    94  CYS94      -0.2867
     76  CB         7.4820   19.4410   25.0180 C.3    94  CYS94       0.0956
     77  SG         6.0720   18.3010   25.1120 S.3    94  CYS94      -0.0801
     78  N         10.5660   25.8880   18.3980 N.3   116  GLY116     -0.1210
     79  CA         9.8220   26.2410   17.1970 C.3   116  GLY116      0.1956
     80  C          9.6720   25.0790   16.2300 C.2   116  GLY116      0.2612
     81  O         10.3400   24.0550   16.3650 O.2   116  GLY116     -0.2717
     82  N          8.7840   25.2490   15.2560 N.am  117  ALA117     -0.1965
     83  CA         8.5480   24.2510   14.2130 C.3   117  ALA117      0.1728
     84  C          9.8270   23.9890   13.4480 C.2   117  ALA117      0.2617
     85  O         10.4800   24.9250   12.9980 O.2   117  ALA117     -0.2715
     86  CB         7.4500   24.7310   13.2530 C.3   117  ALA117      0.0334
     87  N         10.1710   22.7140   13.2770 N.am  118  SER118     -0.1936
     88  CA        11.4170   22.3350   12.6110 C.3   118  SER118      0.2055
     89  C         11.5310   22.8690   11.1720 C.2   118  SER118      0.2642
     90  O         12.6270   23.1510   10.7050 O.2   118  SER118     -0.2714
     91  CB        11.5930   20.8120   12.6390 C.3   118  SER118      0.2130
     92  OG        10.6110   20.1760   11.8430 O.3   118  SER118     -0.2179
     93  N         10.4030   23.0160   10.4820 N.am  119  GLN119     -0.1976
     94  CA        10.4000   23.4820    9.0850 C.3   119  GLN119      0.1601
     95  C         10.7770   24.9690    8.9700 C.2   119  GLN119      0.2287
     96  O         11.3090   25.4090    7.9510 O.2   119  GLN119     -0.2864
     97  CB         9.0490   23.2020    8.4060 C.3   119  GLN119      0.0394
     98  CG         7.8190   23.7660    9.1150 C.3   119  GLN119      0.0908
     99  CD         7.1640   22.7700   10.0630 C.2   119  GLN119      0.2608
    100  OE1        7.8370   22.1400   10.8800 O.2   119  GLN119     -0.2717
    101  NE2        5.8390   22.6340    9.9650 N.am  119  GLN119     -0.0878
    102  N         12.0210   11.9470   15.5610 N.3   140  ASP140     -0.1225
    103  CA        10.9870   11.3630   16.4230 C.3   140  ASP140      0.1805
    104  C          9.7940   12.3200   16.6780 C.2   140  ASP140      0.2598
    105  O          9.0380   12.1340   17.6410 O.2   140  ASP140     -0.2718
    106  CB        11.6190   10.9260   17.7510 C.3   140  ASP140      0.1424
    107  CG        10.7670    9.9150   18.5240 C.2   140  ASP140      0.3668
    108  OD1        9.8730    9.2690   17.9290 O.co2 140  ASP140     -0.2456
    109  OD2       11.0050    9.7450   19.7350 O.co2 140  ASP140     -0.2456
    110  N          9.6130   13.3100   15.8010 N.am  141  HIS141     -0.1961
    111  CA         8.4660   14.2330   15.8660 C.3   141  HIS141      0.1787
    112  C          7.2600   13.6950   15.0580 C.2   141  HIS141      0.2620
    113  O          7.1240   12.4680   14.8950 O.2   141  HIS141     -0.2715
    114  CB         8.8860   15.6660   15.4540 C.3   141  HIS141      0.0785
    115  CG         9.4680   15.7870   14.0750 C.ar  141  HIS141      0.0821
    116  ND1       10.1250   14.7540   13.4400 N.ar  141  HIS141     -0.2267
    117  CD2        9.5290   16.8430   13.2320 C.ar  141  HIS141      0.1154
    118  CE1       10.5480   15.1610   12.2570 C.ar  141  HIS141      0.1986
    119  NE2       10.1890   16.4230   12.1010 N.ar  141  HIS141     -0.2212
    120  N          6.3790   14.5820   14.5770 N.am  142  TRP142     -0.1960
    121  CA         5.2160   14.1510   13.8070 C.3   142  TRP142      0.1771
    122  C          5.6670   13.3530   12.5900 C.2   142  TRP142      0.2619
    123  O          6.5660   13.7600   11.8430 O.2   142  TRP142     -0.2715
    124  CB         4.3610   15.3260   13.3310 C.3   142  TRP142      0.0590
    125  CG         3.6250   16.1230   14.3920 C.ar  142  TRP142      0.0006
    126  CD1        3.3240   17.4600   14.3280 C.ar  142  TRP142      0.0946
    127  CD2        3.1180   15.6630   15.6680 C.ar  142  TRP142      0.0152
    128  NE1        2.6600   17.8560   15.4700 N.ar  142  TRP142     -0.2442
    129  CE2        2.5170   16.7780   16.3050 C.ar  142  TRP142      0.0810
    130  CE3        3.0990   14.4220   16.3230 C.ar  142  TRP142      0.0012
    131  CZ2        1.9090   16.6930   17.5700 C.ar  142  TRP142      0.0191
    132  CZ3        2.4810   14.3260   17.5750 C.ar  142  TRP142      0.0001
    133  CH2        1.9010   15.4610   18.1940 C.ar  142  TRP142      0.0015
    134  N          5.0000   12.2270   12.3830 N.am  143  LYS143     -0.1977
    135  CA         5.3910   11.2630   11.3680 C.3   143  LYS143      0.1596
    136  C          5.2540   11.8190    9.9530 C.2   143  LYS143      0.2287
    137  O          6.0420   11.4450    9.0780 O.2   143  LYS143     -0.2864
    138  CB         4.6040    9.9570   11.5610 C.3   143  LYS143      0.0298
    139  CG         4.6420    9.4130   13.0190 C.3   143  LYS143      0.0038
    140  CD         6.0570    9.4800   13.6670 C.3   143  LYS143      0.0206
    141  CE         6.0490    9.3520   15.1920 C.3   143  LYS143      0.1093
    142  NZ         7.3570    9.7830   15.8180 N.3   143  LYS143     -0.1314
    143  N          6.1620   14.7160    9.1040 N.3   145  ARG145     -0.1245
    144  CA         7.2540   15.6880    8.9330 C.3   145  ARG145      0.1563
    145  C          8.5670   15.0570    8.5380 C.2   145  ARG145      0.2260
    146  O          9.4520   15.7710    8.0990 O.2   145  ARG145     -0.2867
    147  CB         7.4660   16.5330   10.1990 C.3   145  ARG145      0.0307
    148  CG         6.3970   17.6210   10.4590 C.3   145  ARG145      0.0489
    149  CD         6.0900   18.5230    9.2320 C.3   145  ARG145      0.2205
    150  NE         7.2780   18.9190    8.4460 N.pl3 145  ARG145     -0.0865
    151  CZ         7.2370   19.6990    7.3540 C.cat 145  ARG145      0.5346
    152  NH1        6.0870   20.2120    6.9190 N.pl3 145  ARG145      0.1354
    153  NH2        8.3640   20.0010    6.7030 N.pl3 145  ARG145      0.1354
    154  N         12.7090    6.8840   14.2760 N.3   168  ASP168     -0.1225
    155  CA        11.8570    6.0760   15.1510 C.3   168  ASP168      0.1805
    156  C         10.5110    5.8530   14.4590 C.2   168  ASP168      0.2597
    157  O         10.0750    6.6830   13.6390 O.2   168  ASP168     -0.2718
    158  CB        11.5930    6.7980   16.4980 C.3   168  ASP168      0.1424
    159  CG        11.0050    5.8700   17.5710 C.2   168  ASP168      0.3668
    160  OD1       11.2760    4.6570   17.5000 O.co2 168  ASP168     -0.2456
    161  OD2       10.2830    6.3380   18.4910 O.co2 168  ASP168     -0.2456
    162  N          9.8590    4.7470   14.8070 N.am  169  ASN169     -0.1974
    163  CA         8.4250    4.5850   14.5560 C.3   169  ASN169      0.1688
    164  C          8.0810    4.2300   13.1100 C.2   169  ASN169      0.2292
    165  O          6.9970    4.5900   12.6270 O.2   169  ASN169     -0.2864
    166  CB         7.6570    5.8560   14.9940 C.3   169  ASN169      0.1181
    167  CG         7.6080    6.0270   16.5070 C.2   169  ASN169      0.2629
    168  OD1        7.9450    7.0910   17.0380 O.2   169  ASN169     -0.2716
    169  ND2        7.1470    4.9910   17.2060 N.am  169  ASN169     -0.0877
    170  N          5.2770    1.2150   13.5780 N.3   172  VAL172     -0.1231
    171  CA         4.1110    1.7290   14.3090 C.3   172  VAL172      0.1678
    172  C          4.4410    2.9990   15.1190 C.2   172  VAL172      0.2434
    173  O          5.4130    3.0300   15.8560 O.2   172  VAL172     -0.2733
    174  CB         3.5040    0.6130   15.2360 C.3   172  VAL172      0.0265
    175  CG1        2.9320   -0.5080   14.3840 C.3   172  VAL172      0.0020
    176  CG2        4.5420    0.0580   16.1950 C.3   172  VAL172      0.0020
    177  N          3.6720    4.0940   14.9460 N.am  173  PRO173     -0.2729
    178  CA         2.5710    4.4270   14.0340 C.3   173  PRO173      0.1401
    179  C          2.8780    4.2180   12.5520 C.2   173  PRO173      0.2269
    180  O          1.9620    4.0950   11.7550 O.2   173  PRO173     -0.2865
    181  CB         2.3590    5.9310   14.2660 C.3   173  PRO173      0.0296
    182  CG         3.0640    6.2820   15.4700 C.3   173  PRO173      0.0237
    183  CD         3.9790    5.2070   15.8690 C.3   173  PRO173      0.0939
    184  N          7.6470   -1.4180   20.2880 N.3   197  LEU197     -0.1231
    185  CA         7.1370   -0.0910   20.6730 C.3   197  LEU197      0.1693
    186  C          7.3860    0.0910   22.1700 C.2   197  LEU197      0.2591
    187  O          7.2430   -0.8430   22.9580 O.2   197  LEU197     -0.2718
    188  CB         5.6500    0.0910   20.3110 C.3   197  LEU197      0.0284
    189  CG         4.9010    1.4210   20.5820 C.3   197  LEU197      0.0019
    190  CD1        5.3180    2.5510   19.6350 C.3   197  LEU197      0.0001
    191  CD2        3.3790    1.1940   20.4940 C.3   197  LEU197      0.0001
    192  N          7.8310    1.2930   22.5260 N.am  198  GLU198     -0.1979
    193  CA         8.1230    1.6510   23.9010 C.3   198  GLU198      0.1602
    194  C          7.0650    1.1400   24.8930 C.2   198  GLU198      0.2287
    195  O          5.8770    1.4130   24.7380 O.2   198  GLU198     -0.2864
    196  CB         8.2940    3.1760   24.0340 C.3   198  GLU198      0.0415
    197  CG         7.1550    4.0290   23.4580 C.3   198  GLU198      0.1163
    198  CD         7.4410    4.5980   22.0710 C.2   198  GLU198      0.3649
    199  OE1        8.0830    3.9010   21.2440 O.co2 198  GLU198     -0.2457
    200  OE2        6.9970    5.7390   21.8020 O.co2 198  GLU198     -0.2457
    201  N          4.5820   -4.8190   21.0950 N.3   202  VAL202     -0.1245
    202  CA         4.1360   -4.6070   19.7280 C.3   202  VAL202      0.1561
    203  C          5.3780   -4.2980   18.8940 C.2   202  VAL202      0.2260
    204  O          6.1950   -3.4380   19.2640 O.2   202  VAL202     -0.2867
    205  CB         3.1030   -3.4730   19.6670 C.3   202  VAL202      0.0252
    206  CG1        2.5820   -3.2870   18.2540 C.3   202  VAL202      0.0019
    207  CG2        1.9440   -3.7650   20.6200 C.3   202  VAL202      0.0019
@<TRIPOS>BOND
     1   153   151    1
     2   152   151    1
     3   151   150    2
     4    96    95    2
     5   146   145    2
     6    97    94    1
     7    97    98    1
     8   150   149    1
     9   145   144    1
    10   144   143    1
    11   144   147    1
    12    95    94    1
    13   137   136    2
    14    94    93    1
    15    98    99    1
    16   149   148    1
    17   136   135    1
    18   101    99   am
    19    99   100    2
    20   147   148    1
    21    93    89   am
    22    90    89    2
    23    89    88    1
    24   135   138    1
    25   135   134    1
    26   138   139    1
    27   180   179    2
    28    92    91    1
    29   123   122    2
    30   119   118   ar
    31   119   117   ar
    32   118   116   ar
    33   134   122   am
    34   179   178    1
    35   122   121    1
    36    88    91    1
    37    88    87    1
    38   165   164    2
    39    85    84    2
    40   139   140    1
    41   164   163    1
    42   117   115   ar
    43    86    83    1
    44    87    84   am
    45   124   121    1
    46   124   125    1
    47   116   115   ar
    48    46    45    1
    49    84    83    1
    50   170   171    1
    51   157   156    2
    52   140   141    1
    53   121   120    1
    54    45    44    1
    55   178   181    1
    56   178   177    1
    57   115   114    1
    58    83    82    1
    59   181   182    1
    60   154   155    1
    61   171   172    1
    62   171   174    1
    63   126   125   ar
    64   126   128   ar
    65   175   174    1
    66   125   127   ar
    67   156   162   am
    68   156   155    1
    69   163   162    1
    70   163   166    1
    71   120   112   am
    72   113   112    2
    73   177   172   am
    74   177   183    1
    75   166   167    1
    76   112   111    1
    77   172   173    2
    78   155   158    1
    79   141   142    1
    80   174   176    1
    81    82    80   am
    82   114   111    1
    83   182   183    1
    84   128   129   ar
    85    63    61    1
    86   102   103    1
    87   127   129   ar
    88   127   130   ar
    89    44    43    1
    90   110   111    1
    91   110   104   am
    92    80    81    2
    93    80    79    1
    94   129   131   ar
    95   130   132   ar
    96    43    40    1
    97   103   104    1
    98   103   106    1
    99   158   159    1
   100   167   168    2
   101   167   169   am
   102   104   105    2
   103    61    60    1
   104    79    78    1
   105    23    24    1
   106   160   159   ar
   107    60    62    1
   108    60    57    1
   109   131   133   ar
   110   159   161   ar
   111   132   133   ar
   112   106   107    1
   113   108   107   ar
   114    40    39    1
   115    40    41    1
   116   206   205    1
   117    42    41    2
   118    24    25    1
   119    41    47   am
   120   107   109   ar
   121    57    56    1
   122    57    58    1
   123   203   204    2
   124   203   202    1
   125    56    49   am
   126    47    48    1
   127   190   189    1
   128   205   202    1
   129   205   207    1
   130   202   201    1
   131    25    26    2
   132    49    48    1
   133    49    50    2
   134    48    51    1
   135    58    59    2
   136    58    64   am
   137   184   185    1
   138   188   189    1
   139   188   185    1
   140   191   189    1
   141   185   186    1
   142    64    65    1
   143    55    53   ar
   144   199   198   ar
   145    51    52    1
   146    54    53   ar
   147    53    52    1
   148    22    21    1
   149   200   198   ar
   150    21    20    1
   151   198   197    1
   152    65    68    1
   153    65    66    1
   154   186   192   am
   155   186   187    2
   156   192   193    1
   157    68    69    1
   158    19    20    2
   159    19    16    1
   160    18    17    2
   161    27    28    1
   162    71    69   am
   163    66    67    2
   164    14    12   ar
   165    14    13   ar
   166   197   196    1
   167    12    10   ar
   168    69    70    2
   169    31    28    1
   170    31    32    1
   171    16    17    1
   172    16    15    1
   173   193   196    1
   174   193   194    1
   175    28    29    1
   176    13    11   ar
   177    32    33   ar
   178    32    34   ar
   179   195   194    2
   180    33    35   ar
   181    10     9   ar
   182    10     8   ar
   183    76    77    1
   184    76    73    1
   185     9     7   ar
   186    34    36   ar
   187    29    30    2
   188    11     8   ar
   189    35    37   ar
   190     8     6   ar
   191    36    37   ar
   192    37    38    1
   193    73    74    1
   194    73    72    1
   195    74    75    2
   196     7     6   ar
   197     6     5    1
   198     5     2    1
   199     3     4    2
   200     3     2    1
   201     2     1    1
