@<TRIPOS>MOLECULE
tmp/5lqmA00.pdb
 139 132 0 0 0
SMALL
GASTEIGER

@<TRIPOS>ATOM
      1  N          4.2220   -2.3290   17.4210 N.3    24  HIS24      -0.1241
      2  CA         4.8920   -1.9080   16.2180 C.3    24  HIS24       0.1621
      3  C          4.1370   -2.3870   14.9700 C.2    24  HIS24       0.2264
      4  O          3.5270   -3.4730   14.9750 O.2    24  HIS24      -0.2867
      5  CB         6.3630   -2.3860   16.2330 C.3    24  HIS24       0.0745
      6  CG         7.1720   -1.8020   15.1180 C.ar   24  HIS24       0.0817
      7  ND1        7.2940   -2.4060   13.8890 N.ar   24  HIS24      -0.2268
      8  CD2        7.7610   -0.5970   14.9950 C.ar   24  HIS24       0.1154
      9  CE1        7.9570   -1.6200   13.0790 C.ar   24  HIS24       0.1986
     10  NE2        8.2620   -0.5190   13.7260 N.ar   24  HIS24      -0.2212
     11  N          5.1620   -4.0050   12.4840 N.3    26  PHE26      -0.1241
     12  CA         5.5760   -5.2830   11.9280 C.3    26  PHE26       0.1605
     13  C          5.0320   -6.4350   12.7420 C.2    26  PHE26       0.2264
     14  O          5.3320   -7.5910   12.4370 O.2    26  PHE26      -0.2867
     15  CB         7.1070   -5.4190   11.8650 C.3    26  PHE26       0.0534
     16  CG         7.7930   -4.4150   10.9800 C.ar   26  PHE26      -0.0203
     17  CD1        7.0970   -3.6720   10.0310 C.ar   26  PHE26      -0.0042
     18  CD2        9.1850   -4.2570   11.0700 C.ar   26  PHE26      -0.0042
     19  CE1        7.7640   -2.7820    9.2140 C.ar   26  PHE26      -0.0003
     20  CE2        9.8570   -3.3580   10.2520 C.ar   26  PHE26      -0.0003
     21  CZ         9.1260   -2.6180    9.3130 C.ar   26  PHE26      -0.0000
     22  N          5.1750    3.3360   14.1840 N.3    40  ASP40      -0.1225
     23  CA         6.6070    3.2030   14.0510 C.3    40  ASP40       0.1805
     24  C          7.3300    3.5820   15.3110 C.2    40  ASP40       0.2598
     25  O          6.7190    3.9260   16.3100 O.2    40  ASP40      -0.2718
     26  CB         7.1360    3.9340   12.8050 C.3    40  ASP40       0.1424
     27  CG         7.2140    5.4450   12.9280 C.2    40  ASP40       0.3668
     28  OD1        6.9080    6.0000   14.0090 O.co2  40  ASP40      -0.2456
     29  OD2        7.6000    6.0870   11.8940 O.co2  40  ASP40      -0.2456
     30  N          8.6560    3.4880   15.2960 N.am   41  SER41      -0.1952
     31  CA         9.3780    3.6860   16.5420 C.3    41  SER41       0.1924
     32  C          9.2190    5.1040   17.0740 C.2    41  SER41       0.2314
     33  O          9.1600    5.2850   18.2990 O.2    41  SER41      -0.2863
     34  CB        10.8400    3.3220   16.4040 C.3    41  SER41       0.2116
     35  OG        10.9850    1.9630   16.0690 O.3    41  SER41      -0.2180
     36  N         12.9070   -1.3500   21.6340 N.3    64  MET64      -0.1245
     37  CA        11.6980   -0.5170   21.6570 C.3    64  MET64       0.1570
     38  C         11.0080   -0.6030   23.0410 C.2    64  MET64       0.2261
     39  O         10.6860    0.4090   23.6780 O.2    64  MET64      -0.2867
     40  CB        10.7050   -0.9760   20.5760 C.3    64  MET64       0.0387
     41  CG        11.1720   -1.0240   19.1140 C.3    64  MET64       0.0595
     42  SD         9.9070   -1.7260   17.9910 S.3    64  MET64      -0.1393
     43  CE        10.7870   -1.4320   16.4710 C.3    64  MET64       0.0692
     44  N         20.8650    5.1810   16.1130 N.3   112  TYR112     -0.1227
     45  CA        19.5600    4.7810   15.6570 C.3   112  TYR112      0.1736
     46  C         18.8630    4.1550   16.8590 C.2   112  TYR112      0.2595
     47  O         19.5030    3.5270   17.6900 O.2   112  TYR112     -0.2718
     48  CB        19.7370    3.7090   14.5760 C.3   112  TYR112      0.0548
     49  CG        18.5420    3.3700   13.7200 C.ar  112  TYR112     -0.0200
     50  CD1       17.4410    4.2260   13.6060 C.ar  112  TYR112     -0.0009
     51  CD2       18.5540    2.2160   12.9600 C.ar  112  TYR112     -0.0009
     52  CE1       16.3720    3.8980   12.7880 C.ar  112  TYR112      0.0417
     53  CE2       17.5060    1.9010   12.1030 C.ar  112  TYR112      0.0417
     54  CZ        16.4150    2.7500   12.0280 C.ar  112  TYR112      0.1957
     55  OH        15.3640    2.4640   11.1820 O.3   112  TYR112     -0.2866
     56  N         17.5410    4.2960   16.9270 N.am  113  VAL113     -0.1966
     57  CA        16.8020    3.6670   17.9830 C.3   113  VAL113      0.1727
     58  C         17.0410    2.1590   18.1240 C.2   113  VAL113      0.2616
     59  O         17.0140    1.6230   19.2450 O.2   113  VAL113     -0.2715
     60  CB        15.2910    4.0230   17.8460 C.3   113  VAL113      0.0290
     61  CG1       14.6540    3.3090   16.6630 C.3   113  VAL113      0.0023
     62  CG2       14.5560    3.7600   19.1310 C.3   113  VAL113      0.0023
     63  N         17.3020    1.4800   17.0060 N.am  114  ASN114     -0.1972
     64  CA        17.7020    0.0940   17.0110 C.3   114  ASN114      0.1688
     65  C         19.1590   -0.0050   17.5490 C.2   114  ASN114      0.2292
     66  O         20.1030   -0.1480   16.7640 O.2   114  ASN114     -0.2864
     67  CB        17.6290   -0.5440   15.5830 C.3   114  ASN114      0.1181
     68  CG        16.3580   -0.1660   14.7870 C.2   114  ASN114      0.2629
     69  OD1       15.8970    0.9740   14.8240 O.2   114  ASN114     -0.2716
     70  ND2       15.8240   -1.1170   14.0440 N.am  114  ASN114     -0.0877
     71  N         15.2920    7.9760   14.9370 N.3   128  THR128     -0.1203
     72  CA        14.6350    6.8920   14.2190 C.3   128  THR128      0.1994
     73  C         14.7840    7.2060   12.7350 C.2   128  THR128      0.2618
     74  O         15.3270    8.2570   12.3800 O.2   128  THR128     -0.2717
     75  CB        13.1350    6.7950   14.5730 C.3   128  THR128      0.1784
     76  OG1       12.3990    7.7800   13.8450 O.3   128  THR128     -0.2211
     77  CG2       12.9000    6.9410   16.0870 C.3   128  THR128      0.0376
     78  N         14.2730    6.3320   11.8730 N.am  129  SER129     -0.1951
     79  CA        14.3840    6.5730   10.4340 C.3   129  SER129      0.1924
     80  C         13.5840    7.7820    9.9810 C.2   129  SER129      0.2314
     81  O         13.9500    8.3990    9.0010 O.2   129  SER129     -0.2863
     82  CB        14.0070    5.3420    9.6000 C.3   129  SER129      0.2116
     83  OG        12.6860    4.9310    9.7820 O.3   129  SER129     -0.2180
     84  N         20.1820   -4.2150    8.1290 N.3   173  CYS173     -0.1235
     85  CA        19.0270   -5.0450    8.3650 C.3   173  CYS173      0.1677
     86  C         18.8510   -6.0160    7.2030 C.2   173  CYS173      0.2270
     87  O         18.5040   -5.5680    6.1020 O.2   173  CYS173     -0.2867
     88  CB        17.7990   -4.1700    8.4360 C.3   173  CYS173      0.0956
     89  SG        16.2790   -5.1460    8.5460 S.3   173  CYS173     -0.0801
     90  N         15.4300   -5.7530    4.9250 N.3   176  HIS176     -0.1241
     91  CA        15.3110   -4.6620    3.9630 C.3   176  HIS176      0.1621
     92  C         16.2930   -4.7450    2.7880 C.2   176  HIS176      0.2264
     93  O         16.3380   -3.8190    1.9700 O.2   176  HIS176     -0.2867
     94  CB        15.4630   -3.3330    4.7010 C.3   176  HIS176      0.0745
     95  CG        14.2420   -2.9640    5.4730 C.ar  176  HIS176      0.0817
     96  ND1       14.0750   -3.2730    6.8070 N.ar  176  HIS176     -0.2268
     97  CD2       13.1030   -2.3570    5.0840 C.ar  176  HIS176      0.1154
     98  CE1       12.8890   -2.8420    7.2120 C.ar  176  HIS176      0.1986
     99  NE2       12.2760   -2.2880    6.1840 N.ar  176  HIS176     -0.2212
    100  N         11.8830    1.7300    2.5330 N.3   198  HIS198     -0.1241
    101  CA        12.4540    2.1670    3.8040 C.3   198  HIS198      0.1621
    102  C         13.8750    2.6900    3.6030 C.2   198  HIS198      0.2264
    103  O         14.5930    2.1680    2.7480 O.2   198  HIS198     -0.2867
    104  CB        12.5020    0.9760    4.7480 C.3   198  HIS198      0.0745
    105  CG        12.5370    1.3700    6.1750 C.ar  198  HIS198      0.0817
    106  ND1       13.7030    1.6830    6.8290 N.ar  198  HIS198     -0.2268
    107  CD2       11.5370    1.5760    7.0570 C.ar  198  HIS198      0.1154
    108  CE1       13.4240    2.0260    8.0800 C.ar  198  HIS198      0.1986
    109  NE2       12.1210    1.9870    8.2270 N.ar  198  HIS198     -0.2212
    110  N         16.3890    1.9650    5.3820 N.3   200  GLU200     -0.1245
    111  CA        17.2470    0.8250    5.6940 C.3   200  GLU200      0.1567
    112  C         17.5660   -0.0190    4.4480 C.2   200  GLU200      0.2260
    113  O         18.4410   -0.8820    4.4870 O.2   200  GLU200     -0.2867
    114  CB        16.6090   -0.0920    6.7480 C.3   200  GLU200      0.0388
    115  CG        16.7120    0.4220    8.2030 C.3   200  GLU200      0.1160
    116  CD        15.9670   -0.4530    9.2090 C.2   200  GLU200      0.3649
    117  OE1       15.7390   -1.6430    8.9380 O.co2 200  GLU200     -0.2457
    118  OE2       15.5750    0.0380   10.2710 O.co2 200  GLU200     -0.2457
    119  N         10.3490    6.1130    6.8930 N.3   214  SER214     -0.1202
    120  CA         9.9160    5.1830    7.9250 C.3   214  SER214      0.2020
    121  C          8.5070    4.6450    7.6510 C.2   214  SER214      0.2619
    122  O          7.7150    5.2430    6.9130 O.2   214  SER214     -0.2717
    123  CB         9.8640    5.8860    9.2930 C.3   214  SER214      0.2103
    124  OG         8.7280    6.7280    9.4070 O.3   214  SER214     -0.2182
    125  N          8.1340    3.5920    8.3630 N.am  215  THR215     -0.1952
    126  CA         6.7890    3.0410    8.1960 C.3   215  THR215      0.1897
    127  C          5.7210    4.0920    8.5270 C.2   215  THR215      0.2313
    128  O          4.7040    4.1890    7.8320 O.2   215  THR215     -0.2863
    129  CB         6.5930    1.7260    8.9660 C.3   215  THR215      0.1794
    130  OG1        6.7560    1.9610   10.3630 O.3   215  THR215     -0.2208
    131  CG2        7.5900    0.6580    8.5270 C.3   215  THR215      0.0378
    132  N         10.1550   -9.9460   15.0170 N.3   262  MET262     -0.1245
    133  CA         8.8240   -9.3010   15.1260 C.3   262  MET262      0.1570
    134  C          7.6820  -10.3460   15.1480 C.2   262  MET262      0.2261
    135  O          6.6460  -10.1100   15.7290 O.2   262  MET262     -0.2867
    136  CB         8.6320   -8.3130   13.9870 C.3   262  MET262      0.0387
    137  CG         9.4500   -7.0470   14.1520 C.3   262  MET262      0.0595
    138  SD         8.7340   -5.9780   15.4030 S.3   262  MET262     -0.1393
    139  CE         9.6820   -4.4540   15.2770 C.3   262  MET262      0.0692
@<TRIPOS>BOND
     1    93    92    2
     2   100   101    1
     3   103   102    2
     4    92    91    1
     5   102   101    1
     6   101   104    1
     7    91    94    1
     8    91    90    1
     9   112   113    2
    10   112   111    1
    11    94    95    1
    12   104   105    1
    13    97    95   ar
    14    97    99   ar
    15   110   111    1
    16    95    96   ar
    17   111   114    1
    18    87    86    2
    19   105   106   ar
    20   105   107   ar
    21    99    98   ar
    22   114   115    1
    23    96    98   ar
    24   106   108   ar
    25   119   120    1
    26   122   121    2
    27   107   109   ar
    28    86    85    1
    29   121   120    1
    30   121   125   am
    31   128   127    2
    32   120   123    1
    33   108   109   ar
    34    84    85    1
    35   126   125    1
    36   126   127    1
    37   126   129    1
    38   115   116    1
    39    85    88    1
    40    88    89    1
    41   131   129    1
    42   117   116   ar
    43   129   130    1
    44    81    80    2
    45   116   118   ar
    46    19    21   ar
    47    19    17   ar
    48   123   124    1
    49    21    20   ar
    50    82    83    1
    51    82    79    1
    52    80    79    1
    53    17    16   ar
    54    20    18   ar
    55    79    78    1
    56    16    18   ar
    57    16    15    1
    58    55    54    1
    59    15    12    1
    60    78    73   am
    61    29    27   ar
    62    12    11    1
    63    12    13    1
    64    54    53   ar
    65    54    52   ar
    66    53    51   ar
    67    74    73    2
    68    14    13    2
    69    73    72    1
    70    52    50   ar
    71    26    27    1
    72    26    23    1
    73    27    28   ar
    74    51    49   ar
    75     9    10   ar
    76     9     7   ar
    77    50    49   ar
    78    49    48    1
    79    10     8   ar
    80    76    75    1
    81     7     6   ar
    82   136   137    1
    83   136   133    1
    84    70    68   am
    85    23    22    1
    86    23    24    1
    87   137   138    1
    88    72    75    1
    89    72    71    1
    90    75    77    1
    91    48    45    1
    92    68    69    2
    93    68    67    1
    94     3     4    2
    95     3     2    1
    96     8     6   ar
    97   132   133    1
    98     6     5    1
    99   133   134    1
   100   134   135    2
   101   139   138    1
   102    30    24   am
   103    30    31    1
   104    24    25    2
   105    67    64    1
   106    45    44    1
   107    45    46    1
   108    35    34    1
   109     2     5    1
   110     2     1    1
   111    34    31    1
   112    43    42    1
   113    31    32    1
   114    61    60    1
   115    66    65    2
   116    46    56   am
   117    46    47    2
   118    56    57    1
   119    63    64    1
   120    63    58   am
   121    64    65    1
   122    32    33    2
   123    60    57    1
   124    60    62    1
   125    57    58    1
   126    42    41    1
   127    58    59    2
   128    41    40    1
   129    40    37    1
   130    36    37    1
   131    37    38    1
   132    38    39    2
