@<TRIPOS>MOLECULE
tmp/5lqnA00.pdb
 108 106 0 0 0
SMALL
GASTEIGER

@<TRIPOS>ATOM
      1  N         15.0300    8.0500   13.4650 N.3    63  LEU63      -0.1231
      2  CA        16.4040    7.7760   13.0250 C.3    63  LEU63       0.1693
      3  C         16.6260    6.2620   12.8900 C.2    63  LEU63       0.2592
      4  O         16.6620    5.5500   13.8960 O.2    63  LEU63      -0.2718
      5  CB        17.3770    8.4440   14.0280 C.3    63  LEU63       0.0284
      6  CG        17.1240    9.9190   14.3330 C.3    63  LEU63       0.0019
      7  CD1       18.0710   10.5020   15.3640 C.3    63  LEU63       0.0001
      8  CD2       17.2340   10.7710   13.0200 C.3    63  LEU63       0.0001
      9  N         16.8080    5.8080   11.6440 N.am   64  GLY64      -0.1957
     10  CA        16.9630    4.4130   11.2660 C.3    64  GLY64       0.1869
     11  C         15.6590    3.8300   10.8130 C.2    64  GLY64       0.2309
     12  O         14.7490    3.7120   11.6150 O.2    64  GLY64      -0.2863
     13  N         15.5950    0.7820    8.4320 N.3    66  TYR66      -0.1241
     14  CA        15.7430   -0.6460    8.1520 C.3    66  TYR66       0.1605
     15  C         14.7300   -1.1260    7.0870 C.2    66  TYR66       0.2264
     16  O         14.6720   -0.5250    6.0050 O.2    66  TYR66      -0.2867
     17  CB        15.7340   -1.4730    9.4520 C.3    66  TYR66       0.0534
     18  CG        16.6720   -0.9210   10.4660 C.ar   66  TYR66      -0.0201
     19  CD1       18.0150   -1.2790   10.4600 C.ar   66  TYR66      -0.0009
     20  CD2       16.2320   -0.0210   11.4230 C.ar   66  TYR66      -0.0009
     21  CE1       18.9100   -0.7460   11.3880 C.ar   66  TYR66       0.0417
     22  CE2       17.1110    0.5260   12.3490 C.ar   66  TYR66       0.0417
     23  CZ        18.4470    0.1210   12.3520 C.ar   66  TYR66       0.1957
     24  OH        19.3420    0.6580   13.2670 O.3    66  TYR66      -0.2866
     25  N         14.7390    8.8680    8.6230 N.3    87  MET87      -0.1230
     26  CA        16.0560    9.0030    8.0180 C.3    87  MET87       0.1702
     27  C         16.6950    7.6290    7.9650 C.2    87  MET87       0.2592
     28  O         16.6470    6.8880    8.9610 O.2    87  MET87      -0.2718
     29  CB        16.9340    9.9390    8.8420 C.3    87  MET87       0.0401
     30  CG        16.4630   11.3590    8.9010 C.3    87  MET87       0.0596
     31  SD        17.5270   12.4540    9.8660 S.3    87  MET87      -0.1393
     32  CE        16.5910   14.0060    9.6520 C.3    87  MET87       0.0692
     33  N         17.2880    7.3070    6.8070 N.am   88  GLU88      -0.1966
     34  CA        17.8960    6.0050    6.5470 C.3    88  GLU88       0.1733
     35  C         19.1830    6.1690    5.7450 C.2    88  GLU88       0.2616
     36  O         19.1560    6.7160    4.6400 O.2    88  GLU88      -0.2715
     37  CB        16.9170    5.0730    5.7900 C.3    88  GLU88       0.0429
     38  CG        17.5020    3.7320    5.3220 C.3    88  GLU88       0.1163
     39  CD        18.1910    2.9420    6.4210 C.2    88  GLU88       0.3649
     40  OE1       17.5490    2.6880    7.4830 O.co2  88  GLU88      -0.2457
     41  OE2       19.3830    2.5580    6.2130 O.co2  88  GLU88      -0.2457
     42  N         20.2810    5.6520    6.2940 N.am   89  ILE89      -0.1977
     43  CA        21.6120    5.8490    5.6930 C.3    89  ILE89       0.1596
     44  C         21.8660    4.9660    4.4850 C.2    89  ILE89       0.2287
     45  O         22.6450    5.3530    3.6230 O.2    89  ILE89      -0.2864
     46  CB        22.7340    5.6290    6.7140 C.3    89  ILE89       0.0276
     47  CG1       24.0170    6.3820    6.2720 C.3    89  ILE89       0.0022
     48  CG2       22.9580    4.1310    7.0010 C.3    89  ILE89       0.0022
     49  CD1       25.0200    6.5400    7.4120 C.3    89  ILE89       0.0001
     50  N         20.1870    9.4470    3.8090 N.3   115  GLY115     -0.1210
     51  CA        21.4630   10.0330    4.2690 C.3   115  GLY115      0.1956
     52  C         21.7250    9.7740    5.7570 C.2   115  GLY115      0.2612
     53  O         20.9570    9.0560    6.4620 O.2   115  GLY115     -0.2717
     54  N         22.8100   10.3900    6.2230 N.am  116  ALA116     -0.1965
     55  CA        23.2490   10.3340    7.6060 C.3   116  ALA116      0.1728
     56  C         22.5560   11.3970    8.4320 C.2   116  ALA116      0.2617
     57  O         22.3960   12.5550    7.9950 O.2   116  ALA116     -0.2715
     58  CB        24.7800   10.5370    7.6870 C.3   116  ALA116      0.0334
     59  N         22.1930   11.0180    9.6580 N.am  117  SER117     -0.1936
     60  CA        21.4740   11.9000   10.5730 C.3   117  SER117      0.2055
     61  C         22.2220   13.2430   10.7500 C.2   117  SER117      0.2642
     62  O         21.6000   14.3290   10.7360 O.2   117  SER117     -0.2714
     63  CB        21.2900   11.2330   11.9280 C.3   117  SER117      0.2130
     64  OG        22.5230   10.7230   12.4210 O.3   117  SER117     -0.2179
     65  N         23.5400   13.1820   10.9310 N.am  118  GLN118     -0.1976
     66  CA        24.2580   14.4590   11.1910 C.3   118  GLN118      0.1601
     67  C         24.2870   15.3940    9.9670 C.2   118  GLN118      0.2287
     68  O         24.4260   16.6080   10.1340 O.2   118  GLN118     -0.2864
     69  CB        25.6450   14.2590   11.7670 C.3   118  GLN118      0.0394
     70  CG        26.6550   13.8070   10.7520 C.3   118  GLN118      0.0908
     71  CD        26.6040   12.3470   10.4420 C.2   118  GLN118      0.2608
     72  OE1       25.8550   11.5740   11.0640 O.2   118  GLN118     -0.2717
     73  NE2       27.3860   11.9420    9.4630 N.am  118  GLN118     -0.0878
     74  N         19.0650    4.1480   15.4960 N.3   140  HIS140     -0.1226
     75  CA        20.0980    4.0780   14.4620 C.3   140  HIS140      0.1752
     76  C         21.3820    3.5680   15.1400 C.2   140  HIS140      0.2596
     77  O         21.3020    2.6950   16.0140 O.2   140  HIS140     -0.2718
     78  CB        20.2470    5.4380   13.7100 C.3   140  HIS140      0.0759
     79  CG        20.5590    6.6100   14.5730 C.ar  140  HIS140      0.0818
     80  ND1       20.0840    6.7490   15.8620 N.ar  140  HIS140     -0.2268
     81  CD2       21.3130    7.7190   14.3320 C.ar  140  HIS140      0.1154
     82  CE1       20.5410    7.8840   16.3780 C.ar  140  HIS140      0.1986
     83  NE2       21.2940    8.4830   15.4720 N.ar  140  HIS140     -0.2212
     84  N         22.5520    4.1110   14.8110 N.am  141  TRP141     -0.1976
     85  CA        23.7930    3.6140   15.4250 C.3   141  TRP141      0.1640
     86  C         23.8980    4.1180   16.8840 C.2   141  TRP141      0.2290
     87  O         23.7970    5.3100   17.1370 O.2   141  TRP141     -0.2864
     88  CB        25.0190    4.0800   14.6170 C.3   141  TRP141      0.0576
     89  CG        25.1070    3.5580   13.2090 C.ar  141  TRP141      0.0006
     90  CD1       24.4170    2.5000   12.6580 C.ar  141  TRP141      0.0946
     91  CD2       25.9940    4.0320   12.1850 C.ar  141  TRP141      0.0152
     92  NE1       24.7980    2.3190   11.3330 N.ar  141  TRP141     -0.2442
     93  CE2       25.7700    3.2420   11.0280 C.ar  141  TRP141      0.0810
     94  CE3       26.9520    5.0580   12.1310 C.ar  141  TRP141      0.0012
     95  CZ2       26.4570    3.4610    9.8300 C.ar  141  TRP141      0.0191
     96  CZ3       27.6260    5.2660   10.9400 C.ar  141  TRP141      0.0001
     97  CH2       27.3770    4.4760    9.8110 C.ar  141  TRP141      0.0015
     98  N         25.7670    7.1200   18.1500 N.3   144  ARG144     -0.1245
     99  CA        25.2550    8.4390   17.6950 C.3   144  ARG144      0.1563
    100  C         24.0540    8.9950   18.4620 C.2   144  ARG144      0.2260
    101  O         23.6480   10.1150   18.1720 O.2   144  ARG144     -0.2867
    102  CB        24.9980    8.4850   16.1860 C.3   144  ARG144      0.0307
    103  CG        26.0980    7.8510   15.3310 C.3   144  ARG144      0.0489
    104  CD        27.4500    8.5000   15.5940 C.3   144  ARG144      0.2205
    105  NE        27.4160    9.9480   15.4160 N.pl3 144  ARG144     -0.0865
    106  CZ        28.3920   10.7940   15.7610 C.cat 144  ARG144      0.5346
    107  NH1       29.5180   10.3490   16.2960 N.pl3 144  ARG144      0.1354
    108  NH2       28.2140   12.0910   15.6030 N.pl3 144  ARG144      0.1354
@<TRIPOS>BOND
     1    45    44    2
     2    50    51    1
     3    51    52    1
     4    44    43    1
     5    36    35    2
     6    38    37    1
     7    38    39    1
     8    43    42    1
     9    43    46    1
    10    35    42   am
    11    35    34    1
    12    52    54   am
    13    52    53    2
    14    37    34    1
    15    16    15    2
    16    41    39   ar
    17    54    55    1
    18    47    46    1
    19    47    49    1
    20    39    40   ar
    21    34    33    1
    22    46    48    1
    23    33    27   am
    24    15    14    1
    25    55    58    1
    26    55    56    1
    27    27    26    1
    28    27    28    2
    29    57    56    2
    30    26    25    1
    31    26    29    1
    32    14    13    1
    33    14    17    1
    34    56    59   am
    35    29    30    1
    36    30    31    1
    37    17    18    1
    38    73    71   am
    39    32    31    1
    40    59    60    1
    41    97    95   ar
    42    97    96   ar
    43    95    93   ar
    44    67    68    2
    45    67    66    1
    46    71    70    1
    47    71    72    2
    48    19    18   ar
    49    19    21   ar
    50    18    20   ar
    51    60    61    1
    52    60    63    1
    53    62    61    2
    54    61    65   am
    55    70    69    1
    56    11    10    1
    57    11    12    2
    58    65    66    1
    59    96    94   ar
    60    93    92   ar
    61    93    91   ar
    62    66    69    1
    63    10     9    1
    64    92    90   ar
    65    21    23   ar
    66    20    22   ar
    67     9     3   am
    68    63    64    1
    69    94    91   ar
    70    91    89   ar
    71    22    23   ar
    72    23    24    1
    73    90    89   ar
    74     3     2    1
    75     3     4    2
    76     8     6    1
    77     2     1    1
    78     2     5    1
    79    89    88    1
    80    78    75    1
    81    78    79    1
    82     5     6    1
    83    81    79   ar
    84    81    83   ar
    85     6     7    1
    86    75    76    1
    87    75    74    1
    88    79    80   ar
    89    88    85    1
    90    84    76   am
    91    84    85    1
    92    76    77    2
    93   103   104    1
    94   103   102    1
    95   105   104    1
    96   105   106    2
    97    85    86    1
    98    83    82   ar
    99   108   106    1
   100   106   107    1
   101    80    82   ar
   102   102    99    1
   103    86    87    2
   104    99    98    1
   105    99   100    1
   106   101   100    2
