@<TRIPOS>MOLECULE
tmp/5lqqA05.pdb
 167 168 0 0 0
SMALL
GASTEIGER

@<TRIPOS>ATOM
      1  N        -10.0360  -23.8580   12.3900 N.3    23  LEU23      -0.1245
      2  CA       -11.3790  -24.2240   11.9110 C.3    23  LEU23       0.1561
      3  C        -12.1300  -25.2340   12.8000 C.2    23  LEU23       0.2260
      4  O        -13.1800  -25.7420   12.3940 O.2    23  LEU23      -0.2867
      5  CB       -11.2560  -24.7800   10.4840 C.3    23  LEU23       0.0270
      6  CG       -12.4520  -24.7280    9.5300 C.3    23  LEU23       0.0019
      7  CD1      -12.9390  -23.3020    9.3160 C.3    23  LEU23       0.0001
      8  CD2      -12.0540  -25.3660    8.2080 C.3    23  LEU23       0.0001
      9  N        -16.0460  -24.6000   13.7740 N.3    26  SER26      -0.1202
     10  CA       -17.0060  -24.9030   12.7030 C.3    26  SER26       0.2020
     11  C        -17.2690  -26.4120   12.5600 C.2    26  SER26       0.2618
     12  O        -18.3730  -26.8160   12.1790 O.2    26  SER26      -0.2717
     13  CB       -16.5180  -24.3100   11.3850 C.3    26  SER26       0.2103
     14  OG       -16.3440  -22.9090   11.5130 O.3    26  SER26      -0.2182
     15  N        -16.2580  -27.2280   12.8780 N.am   27  TYR27      -0.1975
     16  CA       -16.3910  -28.6970   12.9580 C.3    27  TYR27       0.1639
     17  C        -16.7000  -29.2300   14.3830 C.2    27  TYR27       0.2290
     18  O        -16.6200  -30.4400   14.6120 O.2    27  TYR27      -0.2864
     19  CB       -15.1150  -29.3780   12.4200 C.3    27  TYR27       0.0560
     20  CG       -14.9720  -29.3890   10.9080 C.ar   27  TYR27      -0.0198
     21  CD1      -15.6030  -30.3680   10.1330 C.ar   27  TYR27      -0.0009
     22  CD2      -14.1770  -28.4450   10.2540 C.ar   27  TYR27      -0.0009
     23  CE1      -15.4600  -30.3920    8.7510 C.ar   27  TYR27       0.0417
     24  CE2      -14.0260  -28.4620    8.8750 C.ar   27  TYR27       0.0417
     25  CZ       -14.6670  -29.4330    8.1260 C.ar   27  TYR27       0.1957
     26  OH       -14.5130  -29.4420    6.7570 O.3    27  TYR27      -0.2866
     27  N        -18.8000  -16.9000   -3.2960 N.3   155  PHE155     -0.1241
     28  CA       -18.1170  -18.1990   -3.3880 C.3   155  PHE155      0.1605
     29  C        -17.5970  -18.5420   -4.7870 C.2   155  PHE155      0.2264
     30  O        -16.5140  -19.1150   -4.9040 O.2   155  PHE155     -0.2867
     31  CB       -18.9910  -19.3340   -2.8220 C.3   155  PHE155      0.0534
     32  CG       -18.8460  -19.5330   -1.3260 C.ar  155  PHE155     -0.0203
     33  CD1      -18.7640  -18.4460   -0.4490 C.ar  155  PHE155     -0.0042
     34  CD2      -18.7990  -20.8170   -0.7870 C.ar  155  PHE155     -0.0042
     35  CE1      -18.6290  -18.6410    0.9270 C.ar  155  PHE155     -0.0003
     36  CE2      -18.6700  -21.0170    0.5900 C.ar  155  PHE155     -0.0003
     37  CZ       -18.5870  -19.9270    1.4450 C.ar  155  PHE155     -0.0000
     38  N        -14.4900  -15.9810   -5.0320 N.3   158  LEU158     -0.1231
     39  CA       -13.4260  -16.3280   -4.1040 C.3   158  LEU158      0.1693
     40  C        -12.6930  -17.5700   -4.5740 C.2   158  LEU158      0.2592
     41  O        -11.4690  -17.5930   -4.5760 O.2   158  LEU158     -0.2718
     42  CB       -13.9590  -16.5210   -2.6740 C.3   158  LEU158      0.0284
     43  CG       -14.2090  -15.2280   -1.8920 C.3   158  LEU158      0.0019
     44  CD1      -14.8510  -15.5400   -0.5430 C.3   158  LEU158      0.0001
     45  CD2      -12.9250  -14.4280   -1.6950 C.3   158  LEU158      0.0001
     46  N        -13.4400  -18.5880   -4.9850 N.am  159  TYR159     -0.1976
     47  CA       -12.8280  -19.8230   -5.4630 C.3   159  TYR159      0.1639
     48  C        -12.2300  -19.6760   -6.8780 C.2   159  TYR159      0.2290
     49  O        -11.3370  -20.4450   -7.2440 O.2   159  TYR159     -0.2864
     50  CB       -13.8230  -20.9850   -5.3860 C.3   159  TYR159      0.0560
     51  CG       -13.1830  -22.3550   -5.3740 C.ar  159  TYR159     -0.0198
     52  CD1      -12.1820  -22.6760   -4.4530 C.ar  159  TYR159     -0.0009
     53  CD2      -13.5930  -23.3420   -6.2590 C.ar  159  TYR159     -0.0009
     54  CE1      -11.5950  -23.9320   -4.4370 C.ar  159  TYR159      0.0417
     55  CE2      -13.0150  -24.5990   -6.2520 C.ar  159  TYR159      0.0417
     56  CZ       -12.0130  -24.8920   -5.3390 C.ar  159  TYR159      0.1957
     57  OH       -11.4250  -26.1370   -5.3130 O.3   159  TYR159     -0.2866
     58  N         -8.7610  -18.4700   -6.0780 N.3   162  ALA162     -0.1245
     59  CA        -7.9450  -19.5970   -5.6220 C.3   162  ALA162      0.1562
     60  C         -7.4820  -20.5430   -6.7330 C.2   162  ALA162      0.2260
     61  O         -6.4370  -21.1690   -6.5880 O.2   162  ALA162     -0.2867
     62  CB        -8.6880  -20.3860   -4.5500 C.3   162  ALA162      0.0290
     63  N        -21.5130  -27.7960    2.1350 N.3   193  LYS193     -0.1231
     64  CA       -20.3700  -27.0860    1.5370 C.3   193  LYS193      0.1693
     65  C        -18.9770  -27.5850    1.9580 C.2   193  LYS193      0.2592
     66  O        -18.0170  -27.4240    1.2080 O.2   193  LYS193     -0.2718
     67  CB       -20.4730  -25.5770    1.8040 C.3   193  LYS193      0.0285
     68  CG       -20.4740  -25.1910    3.2760 C.3   193  LYS193      0.0035
     69  CD       -20.4060  -23.6890    3.4660 C.3   193  LYS193      0.0206
     70  CE       -20.3590  -23.3450    4.9440 C.3   193  LYS193      0.1093
     71  NZ       -20.1170  -21.8950    5.1750 N.3   193  LYS193     -0.1314
     72  N        -18.8690  -28.1690    3.1500 N.am  194  PHE194     -0.1976
     73  CA       -17.6040  -28.7440    3.6190 C.3   194  PHE194      0.1639
     74  C        -17.2260  -30.0550    2.9130 C.2   194  PHE194      0.2290
     75  O        -16.0520  -30.4290    2.8980 O.2   194  PHE194     -0.2864
     76  CB       -17.6280  -28.9260    5.1400 C.3   194  PHE194      0.0560
     77  CG       -17.7410  -27.6300    5.8950 C.ar  194  PHE194     -0.0200
     78  CD1      -16.6100  -26.8650    6.1680 C.ar  194  PHE194     -0.0042
     79  CD2      -18.9800  -27.1610    6.3200 C.ar  194  PHE194     -0.0042
     80  CE1      -16.7120  -25.6630    6.8580 C.ar  194  PHE194     -0.0003
     81  CE2      -19.0890  -25.9610    7.0080 C.ar  194  PHE194     -0.0003
     82  CZ       -17.9540  -25.2100    7.2790 C.ar  194  PHE194     -0.0000
     83  N        -15.9250  -32.1870    0.1590 N.3   196  HIS196     -0.1241
     84  CA       -14.9520  -31.8470   -0.8940 C.3   196  HIS196      0.1621
     85  C        -15.4190  -32.1350   -2.3340 C.2   196  HIS196      0.2264
     86  O        -14.8660  -31.5630   -3.2760 O.2   196  HIS196     -0.2867
     87  CB       -13.6040  -32.5500   -0.6530 C.3   196  HIS196      0.0745
     88  CG       -12.8030  -31.9710    0.4730 C.ar  196  HIS196      0.0817
     89  ND1      -11.8470  -32.6970    1.1520 N.ar  196  HIS196     -0.2268
     90  CD2      -12.8110  -30.7400    1.0390 C.ar  196  HIS196      0.1154
     91  CE1      -11.3000  -31.9380    2.0850 C.ar  196  HIS196      0.1986
     92  NE2      -11.8660  -30.7450    2.0360 N.ar  196  HIS196     -0.2212
     93  N        -15.9440  -29.1510   -4.7970 N.3   199  TRP199     -0.1241
     94  CA       -14.8500  -28.2210   -5.0890 C.3   199  TRP199      0.1605
     95  C        -13.8670  -28.8260   -6.0860 C.2   199  TRP199      0.2264
     96  O        -13.1370  -29.7620   -5.7480 O.2   199  TRP199     -0.2867
     97  CB       -14.1330  -27.8400   -3.7830 C.3   199  TRP199      0.0550
     98  CG       -15.0650  -27.2760   -2.7420 C.ar  199  TRP199      0.0003
     99  CD1      -15.8480  -27.9860   -1.8680 C.ar  199  TRP199      0.0946
    100  CD2      -15.3230  -25.8910   -2.4730 C.ar  199  TRP199      0.0152
    101  NE1      -16.5730  -27.1280   -1.0770 N.ar  199  TRP199     -0.2442
    102  CE2      -16.2730  -25.8380   -1.4270 C.ar  199  TRP199      0.0810
    103  CE3      -14.8400  -24.6910   -3.0080 C.ar  199  TRP199      0.0012
    104  CZ2      -16.7490  -24.6320   -0.9090 C.ar  199  TRP199      0.0191
    105  CZ3      -15.3160  -23.4860   -2.4920 C.ar  199  TRP199      0.0001
    106  CH2      -16.2610  -23.4690   -1.4520 C.ar  199  TRP199      0.0015
    107  N         -6.9660  -25.3200   -5.9110 N.3   203  PRO203     -0.2116
    108  CA        -6.7510  -24.0210   -5.2780 C.3   203  PRO203      0.1372
    109  C         -5.2890  -23.8160   -4.8710 C.2   203  PRO203      0.2244
    110  O         -4.5480  -24.7950   -4.7200 O.2   203  PRO203     -0.2868
    111  CB        -7.6830  -24.0540   -4.0620 C.3   203  PRO203      0.0268
    112  CG        -7.8600  -25.4960   -3.7500 C.3   203  PRO203      0.0207
    113  CD        -7.7820  -26.2150   -5.0670 C.3   203  PRO203      0.0892
    114  N         -3.5640  -23.1460   -2.2390 N.3   205  TRP205     -0.1227
    115  CA        -3.0530  -23.8530   -1.0490 C.3   205  TRP205      0.1737
    116  C         -2.6870  -25.3150   -1.3290 C.2   205  TRP205      0.2595
    117  O         -1.6910  -25.8120   -0.7950 O.2   205  TRP205     -0.2718
    118  CB        -4.0080  -23.7290    0.1690 C.3   205  TRP205      0.0564
    119  CG        -5.4180  -24.2390   -0.0330 C.ar  205  TRP205      0.0003
    120  CD1       -5.8710  -25.5100    0.1840 C.ar  205  TRP205      0.0946
    121  CD2       -6.5550  -23.4770   -0.4680 C.ar  205  TRP205      0.0152
    122  NE1       -7.2130  -25.5920   -0.1070 N.ar  205  TRP205     -0.2442
    123  CE2       -7.6570  -24.3610   -0.5150 C.ar  205  TRP205      0.0810
    124  CE3       -6.7450  -22.1370   -0.8420 C.ar  205  TRP205      0.0012
    125  CZ2       -8.9320  -23.9490   -0.9220 C.ar  205  TRP205      0.0191
    126  CZ3       -8.0110  -21.7260   -1.2470 C.ar  205  TRP205      0.0001
    127  CH2       -9.0890  -22.6300   -1.2820 C.ar  205  TRP205      0.0015
    128  N         -3.4600  -25.9890   -2.1810 N.am  206  ILE206     -0.1980
    129  CA        -3.1230  -27.3570   -2.6050 C.3   206  ILE206      0.1595
    130  C         -1.9320  -27.3470   -3.5740 C.2   206  ILE206      0.2287
    131  O         -1.0570  -28.2170   -3.4930 O.2   206  ILE206     -0.2864
    132  CB        -4.3270  -28.0870   -3.2510 C.3   206  ILE206      0.0276
    133  CG1       -5.5120  -28.1730   -2.2670 C.3   206  ILE206      0.0022
    134  CG2       -3.9330  -29.4810   -3.7360 C.3   206  ILE206      0.0022
    135  CD1       -5.2320  -28.8950   -0.9610 C.3   206  ILE206      0.0001
    136  N         -8.5440  -20.8090    6.3940 N.3   219  PHE219     -0.1227
    137  CA        -9.9300  -20.6650    6.8310 C.3   219  PHE219      0.1736
    138  C        -10.0740  -20.5110    8.3320 C.2   219  PHE219      0.2595
    139  O         -9.3770  -21.1630    9.1030 O.2   219  PHE219     -0.2718
    140  CB       -10.7250  -21.8620    6.3360 C.3   219  PHE219      0.0547
    141  CG       -10.5340  -22.1090    4.8800 C.ar  219  PHE219     -0.0202
    142  CD1      -11.1430  -21.2810    3.9480 C.ar  219  PHE219     -0.0042
    143  CD2       -9.6860  -23.1150    4.4370 C.ar  219  PHE219     -0.0042
    144  CE1      -10.9470  -21.4780    2.5930 C.ar  219  PHE219     -0.0003
    145  CE2       -9.4820  -23.3160    3.0820 C.ar  219  PHE219     -0.0003
    146  CZ       -10.1170  -22.4970    2.1600 C.ar  219  PHE219     -0.0000
    147  N        -11.0270  -19.6620    8.7110 N.am  220  TRP220     -0.1976
    148  CA       -11.2190  -19.2100   10.0770 C.3   220  TRP220      0.1640
    149  C        -12.6930  -19.3040   10.4500 C.2   220  TRP220      0.2290
    150  O        -13.5540  -18.8380    9.6980 O.2   220  TRP220     -0.2864
    151  CB       -10.7440  -17.7590   10.1830 C.3   220  TRP220      0.0576
    152  CG        -9.2550  -17.6290   10.0930 C.ar  220  TRP220      0.0006
    153  CD1       -8.5080  -17.3640    8.9750 C.ar  220  TRP220      0.0946
    154  CD2       -8.3310  -17.7840   11.1660 C.ar  220  TRP220      0.0152
    155  NE1       -7.1700  -17.3320    9.2970 N.ar  220  TRP220     -0.2442
    156  CE2       -7.0360  -17.5830   10.6380 C.ar  220  TRP220      0.0810
    157  CE3       -8.4730  -18.0540   12.5360 C.ar  220  TRP220      0.0012
    158  CZ2       -5.8880  -17.6600   11.4300 C.ar  220  TRP220      0.0191
    159  CZ3       -7.3330  -18.1290   13.3230 C.ar  220  TRP220      0.0001
    160  CH2       -6.0580  -17.9340   12.7680 C.ar  220  TRP220      0.0015
    161  N        -16.0600  -18.1840   12.1580 N.3   222  VAL222     -0.1245
    162  CA       -16.5730  -16.8040   12.3010 C.3   222  VAL222      0.1561
    163  C        -16.6150  -16.3320   13.7620 C.2   222  VAL222      0.2260
    164  O        -16.6290  -15.1270   14.0350 O.2   222  VAL222     -0.2867
    165  CB       -17.9580  -16.6090   11.6250 C.3   222  VAL222      0.0252
    166  CG1      -17.8880  -16.9820   10.1440 C.3   222  VAL222      0.0019
    167  CG2      -19.0620  -17.3850   12.3450 C.3   222  VAL222      0.0019
@<TRIPOS>BOND
     1    49    48    2
     2    48    47    1
     3    60    61    2
     4    60    59    1
     5    53    55   ar
     6    53    51   ar
     7    55    56   ar
     8    95    96    2
     9    95    94    1
    10    58    59    1
    11   107   108    1
    12   107   113    1
    13    59    62    1
    14    47    50    1
    15    47    46    1
    16    50    51    1
    17    51    52   ar
    18    56    57    1
    19    56    54   ar
    20   108   109    1
    21   108   111    1
    22    94    93    1
    23    94    97    1
    24   113   112    1
    25    38    39    1
    26    46    40   am
    27    30    29    2
    28   109   110    2
    29    29    28    1
    30    41    40    2
    31    40    39    1
    32    52    54   ar
    33    39    42    1
    34   111   112    1
    35    97    98    1
    36   134   132    1
    37   130   131    2
    38   130   129    1
    39    28    27    1
    40    28    31    1
    41    86    85    2
    42   132   129    1
    43   132   133    1
    44   103   105   ar
    45   103   100   ar
    46    31    32    1
    47    98   100   ar
    48    98    99   ar
    49    42    43    1
    50   129   128    1
    51   105   106   ar
    52   100   102   ar
    53    85    84    1
    54   133   135    1
    55   114   115    1
    56   128   116   am
    57    43    45    1
    58    43    44    1
    59    99   101   ar
    60   106   104   ar
    61   102   101   ar
    62   102   104   ar
    63   116   115    1
    64   116   117    2
    65    32    34   ar
    66    32    33   ar
    67   127   126   ar
    68   127   125   ar
    69   126   124   ar
    70   115   118    1
    71   125   123   ar
    72    84    87    1
    73    84    83    1
    74   124   121   ar
    75    34    36   ar
    76    87    88    1
    77   123   121   ar
    78   123   122   ar
    79   121   119   ar
    80    33    35   ar
    81   122   120   ar
    82   119   118    1
    83   119   120   ar
    84    88    90   ar
    85    88    89   ar
    86    36    37   ar
    87    35    37   ar
    88    90    92   ar
    89    89    91   ar
    90    66    65    2
    91    64    67    1
    92    64    65    1
    93    64    63    1
    94    67    68    1
    95    65    72   am
    96    92    91   ar
    97   146   144   ar
    98   146   145   ar
    99   144   142   ar
   100    75    74    2
   101    74    73    1
   102   145   143   ar
   103    72    73    1
   104    68    69    1
   105    69    70    1
   106    73    76    1
   107   142   141   ar
   108   143   141   ar
   109   141   140    1
   110    70    71    1
   111    76    77    1
   112    77    78   ar
   113    77    79   ar
   114    78    80   ar
   115    79    81   ar
   116   140   137    1
   117   136   137    1
   118    26    25    1
   119   137   138    1
   120    80    82   ar
   121    81    82   ar
   122    25    23   ar
   123    25    24   ar
   124     8     6    1
   125   138   147   am
   126   138   139    2
   127   147   148    1
   128    23    21   ar
   129    24    22   ar
   130   153   155   ar
   131   153   152   ar
   132   155   156   ar
   133     7     6    1
   134     6     5    1
   135   150   149    2
   136   148   151    1
   137   148   149    1
   138   152   151    1
   139   152   154   ar
   140    21    20   ar
   141   166   165    1
   142    22    20   ar
   143     5     2    1
   144   156   154   ar
   145   156   158   ar
   146    20    19    1
   147   154   157   ar
   148    13    14    1
   149    13    10    1
   150   158   160   ar
   151   165   162    1
   152   165   167    1
   153     2     1    1
   154     2     3    1
   155   161   162    1
   156    12    11    2
   157   162   163    1
   158     4     3    2
   159    19    16    1
   160   157   159   ar
   161    11    10    1
   162    11    15   am
   163    10     9    1
   164   160   159   ar
   165    15    16    1
   166    16    17    1
   167   163   164    2
   168    17    18    2
