@<TRIPOS>MOLECULE
tmp/5lqrA01.pdb
 222 218 0 0 0
SMALL
GASTEIGER

@<TRIPOS>ATOM
      1  N          5.4660   14.0930   25.4650 N.3    36  TRP36      -0.1241
      2  CA         5.3740   13.9800   23.9910 C.3    36  TRP36       0.1605
      3  C          4.3620   14.9750   23.4790 C.2    36  TRP36       0.2264
      4  O          3.2990   15.1790   24.0620 O.2    36  TRP36      -0.2867
      5  CB         4.9500   12.5400   23.6150 C.3    36  TRP36       0.0550
      6  CG         5.0030   12.3040   22.0990 C.ar   36  TRP36       0.0003
      7  CD1        6.0640   11.8230   21.3920 C.ar   36  TRP36       0.0946
      8  CD2        3.9860   12.5530   21.1520 C.ar   36  TRP36       0.0152
      9  NE1        5.7600   11.7490   20.0680 N.ar   36  TRP36      -0.2442
     10  CE2        4.4930   12.1850   19.8670 C.ar   36  TRP36       0.0810
     11  CE3        2.6820   13.0380   21.2170 C.ar   36  TRP36       0.0012
     12  CZ2        3.7280   12.3740   18.6780 C.ar   36  TRP36       0.0191
     13  CZ3        1.9630   13.1660   20.0880 C.ar   36  TRP36       0.0001
     14  CH2        2.4830   12.8120   18.8200 C.ar   36  TRP36       0.0015
     15  N          2.9240   16.5930   19.3270 N.3    38  MET38      -0.1230
     16  CA         2.8880   16.3780   17.8850 C.3    38  MET38       0.1702
     17  C          3.5900   17.4620   17.1140 C.2    38  MET38       0.2592
     18  O          3.1040   17.8930   16.0520 O.2    38  MET38      -0.2718
     19  CB         1.4760   16.1360   17.3730 C.3    38  MET38       0.0401
     20  CG         0.5600   17.2830   17.6980 C.3    38  MET38       0.0596
     21  SD        -1.1130   16.8770   17.0250 S.3    38  MET38      -0.1393
     22  CE        -2.0110   18.3610   17.5110 C.3    38  MET38       0.0692
     23  N          4.7450   17.8960   17.5720 N.am   39  ASN39      -0.1974
     24  CA         5.5660   18.7800   16.7820 C.3    39  ASN39       0.1688
     25  C          6.2620   17.9910   15.6690 C.2    39  ASN39       0.2292
     26  O          6.4410   16.7760   15.9030 O.2    39  ASN39      -0.2864
     27  CB         6.6690   19.4210   17.6390 C.3    39  ASN39       0.1181
     28  CG         6.1430   20.1140   18.8760 C.2    39  ASN39       0.2629
     29  OD1        6.5870   19.7480   20.0200 O.2    39  ASN39      -0.2716
     30  ND2        5.1750   20.9790   18.7580 N.am   39  ASN39      -0.0877
     31  N         -0.5030   24.5990    7.0070 N.3    63  LEU63      -0.1231
     32  CA        -1.8200   24.1980    7.5380 C.3    63  LEU63       0.1693
     33  C         -1.6480   23.4530    8.8170 C.2    63  LEU63       0.2592
     34  O         -1.0930   22.3370    8.8280 O.2    63  LEU63      -0.2718
     35  CB        -2.5470   23.3290    6.4990 C.3    63  LEU63       0.0284
     36  CG        -2.6830   23.9290    5.1120 C.3    63  LEU63       0.0019
     37  CD1       -3.3270   22.9320    4.1090 C.3    63  LEU63       0.0001
     38  CD2       -3.4480   25.2750    5.1560 C.3    63  LEU63       0.0001
     39  N         -2.0150   24.0910    9.9430 N.am   64  GLY64      -0.1957
     40  CA        -1.8930   23.4900   11.2300 C.3    64  GLY64       0.1869
     41  C         -0.6520   23.9810   11.9680 C.2    64  GLY64       0.2309
     42  O          0.2460   23.1460   12.2150 O.2    64  GLY64      -0.2863
     43  N         -0.2610   24.4750   15.3290 N.3    66  TYR66      -0.1241
     44  CA        -0.1340   23.8480   16.6650 C.3    66  TYR66       0.1605
     45  C          0.5500   24.7710   17.6560 C.2    66  TYR66       0.2264
     46  O         -0.0240   25.8170   17.9670 O.2    66  TYR66      -0.2867
     47  CB         0.4170   22.4030   16.5730 C.3    66  TYR66       0.0534
     48  CG         0.3890   21.6420   17.9080 C.ar   66  TYR66      -0.0201
     49  CD1       -0.7760   21.5710   18.6680 C.ar   66  TYR66      -0.0009
     50  CD2        1.5060   20.9390   18.3600 C.ar   66  TYR66      -0.0009
     51  CE1       -0.7960   20.8530   19.8080 C.ar   66  TYR66       0.0417
     52  CE2        1.4810   20.2320   19.5220 C.ar   66  TYR66       0.0417
     53  CZ         0.3490   20.2240   20.2400 C.ar   66  TYR66       0.1957
     54  OH         0.3100   19.5170   21.4590 O.3    66  TYR66      -0.2866
     55  N         -2.0520   28.6330    9.3220 N.3    87  MET87      -0.1230
     56  CA        -3.4580   28.5940    9.6760 C.3    87  MET87       0.1702
     57  C         -3.6120   27.6860   10.8360 C.2    87  MET87       0.2592
     58  O         -3.0680   26.5620   10.8610 O.2    87  MET87      -0.2718
     59  CB        -4.2910   28.1130    8.4760 C.3    87  MET87       0.0401
     60  CG        -4.3250   29.1090    7.3070 C.3    87  MET87       0.0596
     61  SD        -5.2330   28.4590    5.9010 S.3    87  MET87      -0.1393
     62  CE        -5.1190   29.8930    4.7930 C.3    87  MET87       0.0692
     63  N         -4.3760   28.1560   11.8170 N.am   88  GLU88      -0.1966
     64  CA        -4.6080   27.4120   13.0480 C.3    88  GLU88       0.1733
     65  C         -5.9960   27.6880   13.6070 C.2    88  GLU88       0.2616
     66  O         -6.3120   28.8150   13.9570 O.2    88  GLU88      -0.2715
     67  CB        -3.6000   27.7860   14.1140 C.3    88  GLU88       0.0429
     68  CG        -3.7060   27.1000   15.4350 C.3    88  GLU88       0.1163
     69  CD        -3.9560   25.6360   15.3470 C.2    88  GLU88       0.3649
     70  OE1       -3.0290   24.9310   14.8340 O.co2  88  GLU88      -0.2457
     71  OE2       -5.0180   25.1960   15.7730 O.co2  88  GLU88      -0.2457
     72  N         -6.8700   26.6630   13.6260 N.am   89  MET89      -0.1963
     73  CA        -8.2350   26.8210   14.0040 C.3    89  MET89       0.1736
     74  C         -8.4080   27.0380   15.4990 C.2    89  MET89       0.2616
     75  O         -9.4490   27.6140   15.8990 O.2    89  MET89      -0.2715
     76  CB        -9.0430   25.6050   13.5110 C.3    89  MET89       0.0427
     77  CG        -8.7610   24.3750   14.2340 C.3    89  MET89       0.0599
     78  SD        -9.5690   22.9070   13.5610 S.3    89  MET89      -0.1393
     79  CE       -11.3270   23.2550   13.7360 C.3    89  MET89       0.0692
     80  N         -7.5390   26.5120   16.3280 N.am   90  ASN90      -0.1972
     81  CA        -7.7090   26.5410   17.7370 C.3    90  ASN90       0.1688
     82  C         -7.1760   27.8790   18.2470 C.2    90  ASN90       0.2292
     83  O         -6.0310   28.1800   18.0920 O.2    90  ASN90      -0.2864
     84  CB        -6.9690   25.3780   18.3400 C.3    90  ASN90       0.1181
     85  CG        -7.0990   25.2470   19.8350 C.2    90  ASN90       0.2629
     86  OD1       -7.0470   26.2940   20.5310 O.2    90  ASN90      -0.2716
     87  ND2       -7.3160   24.0140   20.3790 N.am   90  ASN90      -0.0877
     88  N         -4.2010   27.6720   20.5940 N.3    93  TYR93      -0.1241
     89  CA        -2.9680   27.2880   19.9050 C.3    93  TYR93       0.1605
     90  C         -2.4500   28.4220   19.0320 C.2    93  TYR93       0.2264
     91  O         -1.2440   28.5990   18.8790 O.2    93  TYR93      -0.2867
     92  CB        -3.1110   25.9900   19.1230 C.3    93  TYR93       0.0534
     93  CG        -3.5430   24.7860   19.8830 C.ar   93  TYR93      -0.0201
     94  CD1       -3.5130   24.7300   21.2780 C.ar   93  TYR93      -0.0009
     95  CD2       -3.9080   23.6550   19.2060 C.ar   93  TYR93      -0.0009
     96  CE1       -3.9150   23.5690   21.9290 C.ar   93  TYR93       0.0417
     97  CE2       -4.2580   22.5140   19.8270 C.ar   93  TYR93       0.0417
     98  CZ        -4.2570   22.5060   21.2090 C.ar   93  TYR93       0.1957
     99  OH        -4.6770   21.3020   21.9030 O.3    93  TYR93      -0.2866
    100  N         -8.3810   30.4680   12.2150 N.3   115  GLY115     -0.1210
    101  CA        -9.5740   30.0220   11.6420 C.3   115  GLY115      0.1956
    102  C         -9.3680   28.6090   11.0200 C.2   115  GLY115      0.2612
    103  O         -8.2100   28.1210   11.0410 O.2   115  GLY115     -0.2717
    104  N        -10.4140   28.0380   10.4810 N.am  116  ALA116     -0.1965
    105  CA       -10.3480   26.7220    9.8020 C.3   116  ALA116      0.1728
    106  C         -9.8180   26.9650    8.4020 C.2   116  ALA116      0.2617
    107  O        -10.2250   27.9220    7.7160 O.2   116  ALA116     -0.2715
    108  CB       -11.7090   26.0950    9.6940 C.3   116  ALA116      0.0334
    109  N         -8.9260   26.1040    7.9270 N.am  117  SER117     -0.1936
    110  CA        -8.3460   26.2890    6.6370 C.3   117  SER117      0.2055
    111  C         -9.3880   26.3700    5.5050 C.2   117  SER117      0.2642
    112  O         -9.1930   27.0740    4.5530 O.2   117  SER117     -0.2714
    113  CB        -7.3280   25.1440    6.3560 C.3   117  SER117      0.2130
    114  OG        -7.9530   23.8930    6.5190 O.3   117  SER117     -0.2179
    115  N        -10.4580   25.5950    5.5960 N.am  118  GLN118     -0.1976
    116  CA       -11.4300   25.6220    4.5390 C.3   118  GLN118      0.1601
    117  C        -12.1400   26.9600    4.4420 C.2   118  GLN118      0.2287
    118  O        -12.6600   27.2920    3.4100 O.2   118  GLN118     -0.2864
    119  CB       -12.4470   24.4750    4.6650 C.3   118  GLN118      0.0394
    120  CG       -13.3850   24.4750    5.8260 C.3   118  GLN118      0.0908
    121  CD       -12.7830   23.8290    7.0460 C.2   118  GLN118      0.2608
    122  OE1      -11.5970   23.6820    7.2240 O.2   118  GLN118     -0.2717
    123  NE2      -13.6830   23.4330    8.0040 N.am  118  GLN118     -0.0878
    124  N          0.0680   19.8280    7.7870 N.3   139  ASP139     -0.1225
    125  CA         0.3080   19.1990    9.0760 C.3   139  ASP139      0.1805
    126  C         -0.8770   19.3610   10.0090 C.2   139  ASP139      0.2598
    127  O         -0.7040   19.3610   11.2460 O.2   139  ASP139     -0.2718
    128  CB         1.6130   19.6890    9.6800 C.3   139  ASP139      0.1424
    129  CG         2.1100   18.9170   10.8560 C.2   139  ASP139      0.3668
    130  OD1        1.7800   17.6590   10.9220 O.co2 139  ASP139     -0.2456
    131  OD2        2.8270   19.5040   11.7120 O.co2 139  ASP139     -0.2456
    132  N         -2.0910   19.4010    9.4380 N.am  140  HIS140     -0.1961
    133  CA        -3.3030   19.6160   10.2390 C.3   140  HIS140      0.1787
    134  C         -4.0220   18.2410   10.3340 C.2   140  HIS140      0.2620
    135  O         -3.3940   17.1790   10.2730 O.2   140  HIS140     -0.2715
    136  CB        -4.0860   20.7720    9.6810 C.3   140  HIS140      0.0785
    137  CG        -4.5510   20.6440    8.2640 C.ar  140  HIS140      0.0821
    138  ND1       -3.8210   19.9600    7.3290 N.ar  140  HIS140     -0.2267
    139  CD2       -5.5950   21.2600    7.5980 C.ar  140  HIS140      0.1154
    140  CE1       -4.4510   20.0630    6.1530 C.ar  140  HIS140      0.1986
    141  NE2       -5.4880   20.8970    6.2570 N.ar  140  HIS140     -0.2212
    142  N         -5.3210   18.2240   10.4720 N.am  141  TRP141     -0.1960
    143  CA        -6.0190   16.9470   10.5960 C.3   141  TRP141      0.1771
    144  C         -5.8480   16.1930    9.2670 C.2   141  TRP141      0.2619
    145  O         -5.9680   16.7370    8.1770 O.2   141  TRP141     -0.2715
    146  CB        -7.5090   17.1570   10.8920 C.3   141  TRP141      0.0590
    147  CG        -7.7780   17.6540   12.3060 C.ar  141  TRP141      0.0006
    148  CD1       -6.9970   17.4480   13.3840 C.ar  141  TRP141      0.0946
    149  CD2       -8.9160   18.3880   12.7520 C.ar  141  TRP141      0.0152
    150  NE1       -7.5700   18.0420   14.4950 N.ar  141  TRP141     -0.2442
    151  CE2       -8.7420   18.6030   14.1070 C.ar  141  TRP141      0.0810
    152  CE3      -10.0670   18.8580   12.1130 C.ar  141  TRP141      0.0012
    153  CZ2       -9.7280   19.2060   14.8990 C.ar  141  TRP141      0.0191
    154  CZ3      -11.0960   19.4860   12.9250 C.ar  141  TRP141      0.0001
    155  CH2      -10.8520   19.6910   14.2780 C.ar  141  TRP141      0.0015
    156  N         -5.5320   14.8960    9.3740 N.am  142  LYS142     -0.1977
    157  CA        -5.0420   14.1430    8.2240 C.3   142  LYS142      0.1596
    158  C         -6.1440   13.9550    7.1580 C.2   142  LYS142      0.2287
    159  O         -5.7990   13.8780    5.9650 O.2   142  LYS142     -0.2864
    160  CB        -4.4130   12.8590    8.6680 C.3   142  LYS142      0.0298
    161  CG        -3.3500   12.9700    9.7510 C.3   142  LYS142      0.0038
    162  CD        -2.3610   14.1060    9.5010 C.3   142  LYS142      0.0206
    163  CE        -1.5560   14.4210   10.7400 C.3   142  LYS142      0.1093
    164  NZ        -0.8820   15.7670   10.6120 N.3   142  LYS142     -0.1314
    165  N         -8.0460   16.2110    6.2130 N.3   144  ARG144     -0.1245
    166  CA        -8.1940   17.5100    5.5290 C.3   144  ARG144      0.1563
    167  C         -7.1470   17.7590    4.5210 C.2   144  ARG144      0.2260
    168  O         -7.2060   18.7420    3.7870 O.2   144  ARG144     -0.2867
    169  CB        -8.2610   18.6550    6.5500 C.3   144  ARG144      0.0307
    170  CG        -9.3900   18.4830    7.6130 C.3   144  ARG144      0.0489
    171  CD       -10.7710   18.1870    7.0530 C.3   144  ARG144      0.2205
    172  NE       -11.1990   19.2570    6.2210 N.pl3 144  ARG144     -0.0865
    173  CZ       -12.4450   19.4740    5.6830 C.cat 144  ARG144      0.5346
    174  NH1      -13.3910   18.5710    5.9820 N.pl3 144  ARG144      0.1354
    175  NH2      -12.6720   20.4040    4.8460 N.pl3 144  ARG144      0.1354
    176  N          3.4120   16.2580    6.1100 N.3   167  ASP167     -0.1225
    177  CA         3.8440   15.4680    7.2330 C.3   167  ASP167      0.1805
    178  C          2.9620   14.2340    7.4250 C.2   167  ASP167      0.2597
    179  O          1.7790   14.2200    7.0510 O.2   167  ASP167     -0.2718
    180  CB         3.7710   16.3100    8.5560 C.3   167  ASP167      0.1424
    181  CG         4.5580   15.6450    9.6930 C.2   167  ASP167      0.3668
    182  OD1        5.4860   14.8810    9.4180 O.co2 167  ASP167     -0.2456
    183  OD2        4.2460   15.9250   10.8790 O.co2 167  ASP167     -0.2456
    184  N          3.4860   13.2080    8.0850 N.am  168  ASN168     -0.1974
    185  CA         2.6940   12.0960    8.6320 C.3   168  ASN168      0.1688
    186  C          2.1110   11.2280    7.5720 C.2   168  ASN168      0.2292
    187  O          1.0340   10.6330    7.7900 O.2   168  ASN168     -0.2864
    188  CB         1.6460   12.5930    9.5740 C.3   168  ASN168      0.1181
    189  CG         2.2030   13.4060   10.7060 C.2   168  ASN168      0.2629
    190  OD1        1.8140   14.6090   10.8830 O.2   168  ASN168     -0.2716
    191  ND2        3.0700   12.8480   11.4920 N.am  168  ASN168     -0.0877
    192  N          2.6320    7.6440    9.4980 N.3   171  VAL171     -0.1231
    193  CA         1.9250    7.6030   10.7500 C.3   171  VAL171      0.1678
    194  C          1.5540    9.0280   11.1960 C.2   171  VAL171      0.2434
    195  O          2.4230    9.8810   11.2760 O.2   171  VAL171     -0.2733
    196  CB         2.7760    6.9840   11.8550 C.3   171  VAL171      0.0265
    197  CG1        4.1160    7.4320   12.0030 C.3   171  VAL171      0.0020
    198  CG2        2.0140    6.9100   13.1750 C.3   171  VAL171      0.0020
    199  N          0.2600    9.3340   11.4560 N.am  172  PRO172     -0.2729
    200  CA        -0.8790    8.4110   11.3540 C.3   172  PRO172      0.1401
    201  C         -1.2580    8.0130    9.9960 C.2   172  PRO172      0.2269
    202  O         -2.0320    7.0500    9.8020 O.2   172  PRO172     -0.2865
    203  CB        -2.0250    9.1740   11.9860 C.3   172  PRO172      0.0296
    204  CG        -1.4070   10.1310   12.8110 C.3   172  PRO172      0.0237
    205  CD        -0.0810   10.5600   12.1810 C.3   172  PRO172      0.0939
    206  N          8.8970    9.3800   13.2320 N.3   196  LEU196     -0.1231
    207  CA         7.9180   10.1020   14.0440 C.3   196  LEU196      0.1693
    208  C          8.6390   10.8560   15.1400 C.2   196  LEU196      0.2591
    209  O          9.5880   10.4000   15.7520 O.2   196  LEU196     -0.2718
    210  CB         7.0040    9.0660   14.7010 C.3   196  LEU196      0.0284
    211  CG         5.8690    9.5240   15.6130 C.3   196  LEU196      0.0019
    212  CD1        4.9350   10.4710   14.8810 C.3   196  LEU196      0.0001
    213  CD2        5.0940    8.3480   16.1900 C.3   196  LEU196      0.0001
    214  N          8.1830   12.0820   15.3270 N.am  197  GLU197     -0.1979
    215  CA         8.7650   12.9600   16.3710 C.3   197  GLU197      0.1602
    216  C          8.8800   12.2340   17.6720 C.2   197  GLU197      0.2287
    217  O          7.9490   11.6460   18.2020 O.2   197  GLU197     -0.2864
    218  CB         7.8960   14.2700   16.4860 C.3   197  GLU197      0.0415
    219  CG         6.4390   14.0640   16.6640 C.3   197  GLU197      0.1163
    220  CD         5.5970   14.1210   15.4470 C.2   197  GLU197      0.3649
    221  OE1        6.0790   13.7170   14.3440 O.co2 197  GLU197     -0.2457
    222  OE2        4.4120   14.6050   15.5450 O.co2 197  GLU197     -0.2457
@<TRIPOS>BOND
     1   118   117    2
     2   168   167    2
     3    37    36    1
     4   117   116    1
     5   167   166    1
     6   116   119    1
     7   116   115    1
     8   112   111    2
     9   119   120    1
    10    62    61    1
    11   175   173    1
    12    36    38    1
    13    36    35    1
    14   111   115   am
    15   111   110    1
    16   166   165    1
    17   166   169    1
    18   173   174    1
    19   173   172    2
    20   120   121    1
    21    61    60    1
    22   159   158    2
    23   176   177    1
    24   140   141   ar
    25   140   138   ar
    26   172   171    1
    27   141   139   ar
    28   113   114    1
    29   113   110    1
    30    35    32    1
    31   169   170    1
    32   110   109    1
    33    31    32    1
    34   121   122    2
    35   121   123   am
    36   179   178    2
    37   171   170    1
    38   158   157    1
    39   177   178    1
    40   177   180    1
    41    60    59    1
    42   138   137   ar
    43   178   184   am
    44    32    33    1
    45   186   187    2
    46   186   185    1
    47   139   137   ar
    48   107   106    2
    49   124   125    1
    50   109   106   am
    51   184   185    1
    52   145   144    2
    53   157   160    1
    54   157   156    1
    55   137   136    1
    56   106   105    1
    57    59    56    1
    58   180   181    1
    59   185   188    1
    60   160   161    1
    61    33    34    2
    62    33    39   am
    63   125   128    1
    64   125   126    1
    65   144   156   am
    66   144   143    1
    67    55    56    1
    68   182   181   ar
    69   132   126   am
    70   132   133    1
    71   192   193    1
    72   162   161    1
    73   162   163    1
    74   188   189    1
    75    56    57    1
    76   128   129    1
    77   136   133    1
    78   181   183   ar
    79   108   105    1
    80   202   201    2
    81   105   104    1
    82    39    40    1
    83   201   200    1
    84   126   127    2
    85   133   134    1
    86   135   134    2
    87   134   142   am
    88   142   143    1
    89   104   102   am
    90   143   146    1
    91   164   163    1
    92   189   190    2
    93   189   191   am
    94   193   194    1
    95   193   196    1
    96    57    58    2
    97    57    63   am
    98   129   130   ar
    99   129   131   ar
   100   146   147    1
   101   102   103    2
   102   102   101    1
   103   194   195    2
   104   194   199   am
   105    40    41    1
   106   200   199    1
   107   200   203    1
   108   199   205    1
   109   101   100    1
   110    63    64    1
   111   196   197    1
   112   196   198    1
   113    41    42    2
   114   203   204    1
   115   152   149   ar
   116   152   154   ar
   117   205   204    1
   118   147   149   ar
   119   147   148   ar
   120   149   151   ar
   121   154   155   ar
   122    64    65    1
   123    64    67    1
   124   206   207    1
   125   148   150   ar
   126    76    73    1
   127    76    77    1
   128    78    79    1
   129    78    77    1
   130    65    72   am
   131    65    66    2
   132    72    73    1
   133    73    74    1
   134   207   210    1
   135   207   208    1
   136   151   150   ar
   137   151   153   ar
   138    67    68    1
   139   155   153   ar
   140   221   220   ar
   141   210   211    1
   142    70    69   ar
   143   212   211    1
   144   208   214   am
   145   208   209    2
   146   214   215    1
   147    43    44    1
   148    69    68    1
   149    69    71   ar
   150   220   222   ar
   151   220   219    1
   152    74    75    2
   153    74    80   am
   154   211   213    1
   155    25    26    2
   156    25    24    1
   157    18    17    2
   158    80    81    1
   159   215   218    1
   160   215   216    1
   161   218   219    1
   162    47    44    1
   163    47    48    1
   164    44    45    1
   165    24    23    1
   166    24    27    1
   167    21    22    1
   168    21    20    1
   169    17    23   am
   170    17    16    1
   171    19    20    1
   172    19    16    1
   173    27    28    1
   174    45    46    2
   175   216   217    2
   176    81    82    1
   177    81    84    1
   178    16    15    1
   179    48    50   ar
   180    48    49   ar
   181    83    82    2
   182    84    85    1
   183    50    52   ar
   184    49    51   ar
   185    12    14   ar
   186    12    10   ar
   187    30    28   am
   188    14    13   ar
   189    28    29    2
   190    91    90    2
   191    90    89    1
   192    92    93    1
   193    92    89    1
   194    95    97   ar
   195    95    93   ar
   196    52    53   ar
   197    51    53   ar
   198    97    98   ar
   199    85    87   am
   200    85    86    2
   201    10     9   ar
   202    10     8   ar
   203    93    94   ar
   204    89    88    1
   205     9     7   ar
   206    13    11   ar
   207    53    54    1
   208     8    11   ar
   209     8     6   ar
   210    98    99    1
   211    98    96   ar
   212    94    96   ar
   213     7     6   ar
   214     6     5    1
   215     3     2    1
   216     3     4    2
   217     5     2    1
   218     2     1    1
