@<TRIPOS>MOLECULE
tmp/5lr1A00.pdb
 152 144 0 0 0
SMALL
GASTEIGER

@<TRIPOS>ATOM
      1  N         15.9490   18.8660   26.0990 N.3     7  PHE7       -0.1241
      2  CA        15.6360   17.5450   25.5630 C.3     7  PHE7        0.1605
      3  C         16.8800   16.6560   25.5960 C.2     7  PHE7        0.2264
      4  O         18.0050   17.1640   25.4940 O.2     7  PHE7       -0.2867
      5  CB        15.2210   17.6490   24.0790 C.3     7  PHE7        0.0534
      6  CG        13.8240   18.1710   23.8520 C.ar    7  PHE7       -0.0203
      7  CD1       12.7150   17.4060   24.2060 C.ar    7  PHE7       -0.0042
      8  CD2       13.6170   19.4140   23.2720 C.ar    7  PHE7       -0.0042
      9  CE1       11.4100   17.8800   23.9970 C.ar    7  PHE7       -0.0003
     10  CE2       12.3180   19.9120   23.0910 C.ar    7  PHE7       -0.0003
     11  CZ        11.2240   19.1210   23.4110 C.ar    7  PHE7       -0.0000
     12  N         -1.0470   11.6100   16.2700 N.3    33  LEU33      -0.1245
     13  CA        -1.5990   12.1350   17.5070 C.3    33  LEU33       0.1561
     14  C         -2.8810   11.4020   17.8920 C.2    33  LEU33       0.2260
     15  O         -3.0670   11.0940   19.0790 O.2    33  LEU33      -0.2867
     16  CB        -1.8360   13.6470   17.3980 C.3    33  LEU33       0.0270
     17  CG        -0.5300   14.4620   17.1850 C.3    33  LEU33       0.0019
     18  CD1       -0.8900   15.9310   17.0160 C.3    33  LEU33       0.0001
     19  CD2        0.4480   14.2840   18.3610 C.3    33  LEU33       0.0001
     20  N         -1.8680    8.1390   19.3930 N.3    36  ASN36      -0.1225
     21  CA        -1.4370    8.2770   20.7800 C.3    36  ASN36       0.1785
     22  C         -2.6480    8.4220   21.7020 C.2    36  ASN36       0.2597
     23  O         -2.6500    7.8230   22.7830 O.2    36  ASN36      -0.2718
     24  CB        -0.5360    9.4960   20.9200 C.3    36  ASN36       0.1169
     25  CG         0.8550    9.3040   20.3720 C.2    36  ASN36       0.2627
     26  OD1        1.2760    8.1780   20.0560 O.2    36  ASN36      -0.2716
     27  ND2        1.6000   10.4050   20.2560 N.am   36  ASN36      -0.0877
     28  N         -3.6780    9.1900   21.2780 N.am   37  SER37      -0.1952
     29  CA        -4.8700    9.3470   22.0950 C.3    37  SER37       0.1924
     30  C         -5.5730    7.9900   22.2660 C.2    37  SER37       0.2314
     31  O         -5.9780    7.6550   23.3950 O.2    37  SER37      -0.2863
     32  CB        -5.8250   10.3230   21.4300 C.3    37  SER37       0.2116
     33  OG        -5.3060   11.6460   21.5080 O.3    37  SER37      -0.2180
     34  N         -3.7620    5.9030   24.7580 N.3    40  ALA40      -0.1245
     35  CA        -3.9510    6.4140   26.1150 C.3    40  ALA40       0.1562
     36  C         -5.3600    6.0300   26.6390 C.2    40  ALA40       0.2260
     37  O         -5.5290    5.7690   27.8430 O.2    40  ALA40      -0.2867
     38  CB        -3.7910    7.9270   26.1180 C.3    40  ALA40       0.0290
     39  N         -8.1230   14.2500   24.3520 N.3    78  ASP78      -0.1239
     40  CA        -8.6010   12.9040   24.6700 C.3    78  ASP78       0.1674
     41  C         -8.8410   12.8150   26.1670 C.2    78  ASP78       0.2266
     42  O         -8.2820   13.6160   26.9400 O.2    78  ASP78      -0.2867
     43  CB        -7.6410   11.7900   24.1860 C.3    78  ASP78       0.1410
     44  CG        -6.3100   11.7910   24.9030 C.2    78  ASP78       0.3668
     45  OD1       -6.2900   11.5000   26.1190 O.co2  78  ASP78      -0.2456
     46  OD2       -5.2870   12.1310   24.2650 O.co2  78  ASP78      -0.2456
     47  N         -5.4550    8.1510   29.7340 N.3    81  ILE81      -0.1231
     48  CA        -4.7860    8.0550   31.0260 C.3    81  ILE81       0.1692
     49  C         -4.0850    9.3570   31.4860 C.2    81  ILE81       0.2593
     50  O         -3.9080    9.5550   32.6870 O.2    81  ILE81      -0.2718
     51  CB        -3.8140    6.8370   31.0130 C.3    81  ILE81       0.0266
     52  CG1       -3.3430    6.4710   32.4370 C.3    81  ILE81       0.0019
     53  CG2       -2.6240    7.0280   30.0510 C.3    81  ILE81       0.0020
     54  CD1       -3.0340    4.9790   32.6510 C.3    81  ILE81       0.0001
     55  N         -3.6480   10.1980   30.5510 N.am   82  GLY82      -0.1942
     56  CA        -2.9070   11.3970   30.9210 C.3    82  GLY82       0.2014
     57  C         -1.4580   11.0790   31.2530 C.2    82  GLY82       0.2638
     58  O         -1.0600    9.9070   31.2890 O.2    82  GLY82      -0.2714
     59  N         -0.6580   12.1270   31.4900 N.am   83  MET83      -0.1976
     60  CA         0.7680   11.9890   31.7970 C.3    83  MET83       0.1605
     61  C          1.0880   12.6100   33.1560 C.2    83  MET83       0.2287
     62  O          0.5490   13.6770   33.4960 O.2    83  MET83      -0.2864
     63  CB         1.6060   12.7080   30.7280 C.3    83  MET83       0.0413
     64  CG         1.6150   11.9550   29.4010 C.3    83  MET83       0.0598
     65  SD         2.1480   12.9610   27.9950 S.3    83  MET83      -0.1393
     66  CE         0.6530   13.8880   27.7940 C.3    83  MET83       0.0692
     67  N          6.4980   11.4700   33.7440 N.3    87  ASP87      -0.1225
     68  CA         6.4250   11.1340   32.3190 C.3    87  ASP87       0.1805
     69  C          6.9430   12.3120   31.4930 C.2    87  ASP87       0.2597
     70  O          7.7590   12.1310   30.5880 O.2    87  ASP87      -0.2718
     71  CB         4.9620   10.9180   31.9100 C.3    87  ASP87       0.1424
     72  CG         4.3260    9.6140   32.3400 C.2    87  ASP87       0.3668
     73  OD1        5.0760    8.6290   32.5820 O.co2  87  ASP87      -0.2456
     74  OD2        3.0960    9.5990   32.5270 O.co2  87  ASP87      -0.2456
     75  N          6.4900   13.5420   31.8160 N.am   88  LEU88      -0.1979
     76  CA         6.8550   14.7070   31.0030 C.3    88  LEU88       0.1596
     77  C          8.3190   15.0680   31.0470 C.2    88  LEU88       0.2287
     78  O          8.9100   15.3660   30.0100 O.2    88  LEU88      -0.2864
     79  CB         6.0210   15.9330   31.4130 C.3    88  LEU88       0.0297
     80  CG         4.5370   15.8300   31.1730 C.3    88  LEU88       0.0022
     81  CD1        3.7720   16.9940   31.8550 C.3    88  LEU88       0.0001
     82  CD2        4.2130   15.8330   29.6860 C.3    88  LEU88       0.0001
     83  N          9.2810    9.8170   29.3120 N.3    92  LEU92      -0.1231
     84  CA         9.0170    9.7970   27.8690 C.3    92  LEU92       0.1693
     85  C         10.2790   10.0110   27.0680 C.2    92  LEU92       0.2592
     86  O         10.4680    9.3590   26.0340 O.2    92  LEU92      -0.2718
     87  CB         7.9150   10.7960   27.4760 C.3    92  LEU92       0.0284
     88  CG         6.5490   10.4150   28.0150 C.3    92  LEU92       0.0019
     89  CD1        5.5720   11.5940   27.9270 C.3    92  LEU92       0.0001
     90  CD2        5.9990    9.1720   27.2720 C.3    92  LEU92       0.0001
     91  N         11.1560   10.9040   27.5410 N.am   93  GLY93      -0.1957
     92  CA        12.4300   11.1340   26.8790 C.3    93  GLY93       0.1869
     93  C         13.3190    9.9060   26.9190 C.2    93  GLY93       0.2309
     94  O         13.9730    9.5880   25.9210 O.2    93  GLY93      -0.2863
     95  N          4.6250   11.4000   18.2670 N.3   123  PHE123     -0.1227
     96  CA         4.2420   12.7160   18.8030 C.3   123  PHE123      0.1736
     97  C          5.0720   13.8300   18.1470 C.2   123  PHE123      0.2595
     98  O          4.5460   14.9160   17.8800 O.2   123  PHE123     -0.2718
     99  CB         4.5200   12.7480   20.3210 C.3   123  PHE123      0.0547
    100  CG         4.4690   14.1380   20.9210 C.ar  123  PHE123     -0.0202
    101  CD1        3.2600   14.7870   21.0900 C.ar  123  PHE123     -0.0042
    102  CD2        5.6380   14.8070   21.2830 C.ar  123  PHE123     -0.0042
    103  CE1        3.2050   16.0820   21.6480 C.ar  123  PHE123     -0.0003
    104  CE2        5.5860   16.1090   21.8250 C.ar  123  PHE123     -0.0003
    105  CZ         4.3660   16.7440   21.9770 C.ar  123  PHE123     -0.0000
    106  N          6.3820   13.5900   17.9380 N.am  124  TYR124     -0.1976
    107  CA         7.2580   14.6630   17.4320 C.3   124  TYR124      0.1639
    108  C          6.9470   15.0680   15.9930 C.2   124  TYR124      0.2290
    109  O          7.3890   16.1520   15.5400 O.2   124  TYR124     -0.2864
    110  CB         8.7630   14.3290   17.6460 C.3   124  TYR124      0.0560
    111  CG         9.0820   14.0890   19.1130 C.ar  124  TYR124     -0.0198
    112  CD1        9.3350   15.1530   19.9740 C.ar  124  TYR124     -0.0009
    113  CD2        9.0170   12.8110   19.6590 C.ar  124  TYR124     -0.0009
    114  CE1        9.5990   14.9390   21.3300 C.ar  124  TYR124      0.0417
    115  CE2        9.2970   12.5800   21.0050 C.ar  124  TYR124      0.0417
    116  CZ         9.5830   13.6500   21.8410 C.ar  124  TYR124      0.1957
    117  OH         9.8200   13.3920   23.1810 O.3   124  TYR124     -0.2866
    118  N          1.0370   21.1870   25.5650 N.3   135  VAL135     -0.1245
    119  CA         0.3350   19.9820   26.0000 C.3   135  VAL135      0.1561
    120  C         -0.2070   20.1790   27.4150 C.2   135  VAL135      0.2260
    121  O          0.5900   20.4060   28.3460 O.2   135  VAL135     -0.2867
    122  CB         1.2460   18.7340   25.9050 C.3   135  VAL135      0.0252
    123  CG1        0.5070   17.5000   26.4410 C.3   135  VAL135      0.0019
    124  CG2        1.7130   18.5080   24.4760 C.3   135  VAL135      0.0019
    125  N          2.9650   21.3990   29.4580 N.3   147  TRP147     -0.1241
    126  CA         4.2570   21.1620   28.8130 C.3   147  TRP147      0.1605
    127  C          4.2650   22.0340   27.5750 C.2   147  TRP147      0.2264
    128  O          3.2190   22.2180   26.9200 O.2   147  TRP147     -0.2867
    129  CB         4.3970   19.6600   28.4360 C.3   147  TRP147      0.0550
    130  CG         5.6230   19.2580   27.6590 C.ar  147  TRP147      0.0003
    131  CD1        6.6760   18.5240   28.1350 C.ar  147  TRP147      0.0946
    132  CD2        5.8380   19.3800   26.2340 C.ar  147  TRP147      0.0152
    133  NE1        7.5450   18.2180   27.1170 N.ar  147  TRP147     -0.2442
    134  CE2        7.0600   18.7310   25.9400 C.ar  147  TRP147      0.0810
    135  CE3        5.1110   19.9660   25.1720 C.ar  147  TRP147      0.0012
    136  CZ2        7.5780   18.6530   24.6310 C.ar  147  TRP147      0.0191
    137  CZ3        5.6240   19.8870   23.8800 C.ar  147  TRP147      0.0001
    138  CH2        6.8420   19.2370   23.6210 C.ar  147  TRP147      0.0015
    139  N         -5.5430   14.3910   28.0210 N.3   169  THR169     -0.1218
    140  CA        -4.5070   15.1900   27.3870 C.3   169  THR169      0.1862
    141  C         -5.0710   16.0460   26.2870 C.2   169  THR169      0.2287
    142  O         -5.9300   15.6110   25.5030 O.2   169  THR169     -0.2866
    143  CB        -3.3960   14.2580   26.8280 C.3   169  THR169      0.1770
    144  OG1       -2.8410   13.5160   27.9080 O.3   169  THR169     -0.2211
    145  CG2       -2.2750   15.0160   26.0920 C.3   169  THR169      0.0375
    146  N         -3.4270   18.2830   23.1630 N.3   171  VAL171     -0.1245
    147  CA        -2.2350   18.6610   22.4020 C.3   171  VAL171      0.1561
    148  C         -2.6590   19.8500   21.5280 C.2   171  VAL171      0.2260
    149  O         -3.4950   19.6820   20.6160 O.2   171  VAL171     -0.2867
    150  CB        -1.6870   17.5090   21.5320 C.3   171  VAL171      0.0252
    151  CG1       -0.5120   17.9880   20.6770 C.3   171  VAL171      0.0019
    152  CG2       -1.2760   16.3000   22.3710 C.3   171  VAL171      0.0019
@<TRIPOS>BOND
     1   109   108    2
     2   108   107    1
     3    12    13    1
     4    18    17    1
     5    17    16    1
     6    17    19    1
     7    16    13    1
     8   107   110    1
     9   107   106    1
    10    13    14    1
    11   110   111    1
    12    98    97    2
    13    14    15    2
    14   106    97   am
    15    97    96    1
    16    95    96    1
    17    96    99    1
    18   111   113   ar
    19   111   112   ar
    20    20    21    1
    21   113   115   ar
    22   112   114   ar
    23    26    25    2
    24    27    25   am
    25    99   100    1
    26    25    24    1
    27   149   148    2
    28   151   150    1
    29    21    24    1
    30    21    22    1
    31   100   101   ar
    32   100   102   ar
    33   115   116   ar
    34   101   103   ar
    35    28    22   am
    36    28    29    1
    37   102   104   ar
    38   114   116   ar
    39    32    33    1
    40    32    29    1
    41   148   147    1
    42   150   152    1
    43   150   147    1
    44   103   105   ar
    45    22    23    2
    46   104   105   ar
    47   116   117    1
    48    29    30    1
    49    30    31    2
    50   147   146    1
    51    10     8   ar
    52    10    11   ar
    53     8     6   ar
    54    11     9   ar
    55   138   137   ar
    56   138   136   ar
    57     6     5    1
    58     6     7   ar
    59   137   135   ar
    60     9     7   ar
    61     5     2    1
    62    43    40    1
    63    43    44    1
    64    46    44   ar
    65    39    40    1
    66   124   122    1
    67   136   134   ar
    68    40    41    1
    69    34    35    1
    70    44    45   ar
    71   135   132   ar
    72     4     3    2
    73   142   141    2
    74     2     3    1
    75     2     1    1
    76   118   119    1
    77   122   119    1
    78   122   123    1
    79    94    93    2
    80   134   132   ar
    81   134   133   ar
    82   119   120    1
    83    86    85    2
    84   145   143    1
    85    35    38    1
    86    35    36    1
    87    41    42    2
    88   132   130   ar
    89   141   140    1
    90    36    37    2
    91   143   140    1
    92   143   144    1
    93    92    93    1
    94    92    91    1
    95   128   127    2
    96    85    91   am
    97    85    84    1
    98   133   131   ar
    99    90    88    1
   100   140   139    1
   101   120   121    2
   102    87    84    1
   103    87    88    1
   104   127   126    1
   105   130   131   ar
   106   130   129    1
   107    66    65    1
   108    84    83    1
   109    89    88    1
   110    65    64    1
   111   129   126    1
   112   126   125    1
   113    64    63    1
   114    82    80    1
   115    47    48    1
   116    78    77    2
   117    53    51    1
   118    55    56    1
   119    55    49   am
   120    70    69    2
   121    63    60    1
   122    56    57    1
   123    76    77    1
   124    76    79    1
   125    76    75    1
   126    51    48    1
   127    51    52    1
   128    48    49    1
   129    80    79    1
   130    80    81    1
   131    57    58    2
   132    57    59   am
   133    49    50    2
   134    59    60    1
   135    69    75   am
   136    69    68    1
   137    60    61    1
   138    71    68    1
   139    71    72    1
   140    68    67    1
   141    72    74   ar
   142    72    73   ar
   143    52    54    1
   144    61    62    2
