@<TRIPOS>MOLECULE
tmp/5lr6A00.pdb
 147 144 0 0 0
SMALL
GASTEIGER

@<TRIPOS>ATOM
      1  N         29.8550    6.4460   29.8030 N.3     5  GLU5       -0.1245
      2  CA        28.4860    6.0790   29.4810 C.3     5  GLU5        0.1567
      3  C         27.7940    5.3830   30.6540 C.2     5  GLU5        0.2260
      4  O         26.5970    5.5940   30.8760 O.2     5  GLU5       -0.2867
      5  CB        28.4780    5.2000   28.2250 C.3     5  GLU5        0.0388
      6  CG        28.9660    5.9130   26.9550 C.3     5  GLU5        0.1160
      7  CD        30.4640    5.7570   26.7080 C.2     5  GLU5        0.3649
      8  OE1       31.0910    4.8600   27.3230 O.co2   5  GLU5       -0.2457
      9  OE2       31.0110    6.5320   25.8930 O.co2   5  GLU5       -0.2457
     10  N         31.1520   16.3890   28.8200 N.3    37  TRP37      -0.1241
     11  CA        30.3430   16.3400   27.6120 C.3    37  TRP37       0.1605
     12  C         30.2050   14.8860   27.1060 C.2    37  TRP37       0.2264
     13  O         30.9400   13.9880   27.5200 O.2    37  TRP37      -0.2867
     14  CB        30.9730   17.2280   26.5380 C.3    37  TRP37       0.0550
     15  CG        32.0370   16.4900   25.9570 C.ar   37  TRP37       0.0003
     16  CD1       33.2660   16.2630   26.4940 C.ar   37  TRP37       0.0946
     17  CD2       31.9710   15.7480   24.7550 C.ar   37  TRP37       0.0152
     18  NE1       33.9890   15.4440   25.6690 N.ar   37  TRP37      -0.2442
     19  CE2       33.2060   15.1080   24.5950 C.ar   37  TRP37       0.0810
     20  CE3       30.9880   15.5780   23.7840 C.ar   37  TRP37       0.0012
     21  CZ2       33.4840   14.3070   23.5040 C.ar   37  TRP37       0.0191
     22  CZ3       31.2520   14.7780   22.7120 C.ar   37  TRP37       0.0001
     23  CH2       32.4970   14.1530   22.5700 C.ar   37  TRP37       0.0015
     24  N         28.7280   12.7680   23.1600 N.3    39  MET39      -0.1245
     25  CA        28.3570   13.0040   21.7560 C.3    39  MET39       0.1570
     26  C         26.8530   12.7890   21.5470 C.2    39  MET39       0.2261
     27  O         26.0610   13.7380   21.6090 O.2    39  MET39      -0.2867
     28  CB        29.1680   12.1060   20.7970 C.3    39  MET39       0.0387
     29  CG        28.3810   11.5570   19.5800 C.3    39  MET39       0.0595
     30  SD        28.4870   12.4420   18.0000 S.3    39  MET39      -0.1393
     31  CE        27.0940   11.7120   17.1310 C.3    39  MET39       0.0692
     32  N         19.5650    5.4340   13.4270 N.3    63  LEU63      -0.1231
     33  CA        20.9160    4.8910   13.2480 C.3    63  LEU63       0.1693
     34  C         21.8450    5.5790   14.2500 C.2    63  LEU63       0.2592
     35  O         22.1830    6.7540   14.0880 O.2    63  LEU63      -0.2718
     36  CB        21.3670    5.0770   11.8110 C.3    63  LEU63       0.0284
     37  CG        20.3090    4.5190   10.8760 C.3    63  LEU63       0.0019
     38  CD1       20.6310    4.8300    9.4270 C.3    63  LEU63       0.0001
     39  CD2       20.1360    3.0450   11.1060 C.3    63  LEU63       0.0001
     40  N         22.2150    4.8560   15.3180 N.am   64  GLY64      -0.1957
     41  CA        23.0990    5.3850   16.3430 C.3    64  GLY64       0.1869
     42  C         22.4400    5.7220   17.6610 C.2    64  GLY64       0.2309
     43  O         22.3280    6.8960   18.0160 O.2    64  GLY64      -0.2863
     44  N         23.5740    5.1150   20.7570 N.3    66  TYR66      -0.1241
     45  CA        24.6520    5.4940   21.6710 C.3    66  TYR66       0.1605
     46  C         24.2680    5.2760   23.1320 C.2    66  TYR66       0.2264
     47  O         24.3080    4.1480   23.6300 O.2    66  TYR66      -0.2867
     48  CB        25.1030    6.9370   21.4190 C.3    66  TYR66       0.0534
     49  CG        26.2860    7.3600   22.2750 C.ar   66  TYR66      -0.0201
     50  CD1       27.3390    6.4760   22.5410 C.ar   66  TYR66      -0.0009
     51  CD2       26.3520    8.6350   22.8150 C.ar   66  TYR66      -0.0009
     52  CE1       28.4100    6.8520   23.3470 C.ar   66  TYR66       0.0417
     53  CE2       27.4350    9.0300   23.6050 C.ar   66  TYR66       0.0417
     54  CZ        28.4480    8.1400   23.8690 C.ar   66  TYR66       0.1957
     55  OH        29.4950    8.5550   24.6670 O.3    66  TYR66      -0.2866
     56  N         19.4460    1.1410   15.9300 N.3    87  MET87      -0.1230
     57  CA        20.6250    0.3260   15.6960 C.3    87  MET87       0.1702
     58  C         21.8260    0.8740   16.4620 C.2    87  MET87       0.2592
     59  O         22.0830    2.0850   16.4830 O.2    87  MET87      -0.2718
     60  CB        20.9230    0.2310   14.2010 C.3    87  MET87       0.0401
     61  CG        19.9200   -0.6620   13.4910 C.3    87  MET87       0.0596
     62  SD        19.9470   -0.5140   11.7030 S.3    87  MET87      -0.1393
     63  CE        18.5300   -1.5210   11.3090 C.3    87  MET87       0.0692
     64  N         22.5350   -0.0280   17.1210 N.am   88  GLU88      -0.1966
     65  CA        23.7170    0.3430   17.8600 C.3    88  GLU88       0.1733
     66  C         24.7600   -0.7160   17.5910 C.2    88  GLU88       0.2616
     67  O         24.5150   -1.9090   17.7830 O.2    88  GLU88      -0.2715
     68  CB        23.4350    0.4820   19.3570 C.3    88  GLU88       0.0429
     69  CG        24.6650    0.7370   20.2000 C.3    88  GLU88       0.1163
     70  CD        25.5510    1.8310   19.6350 C.2    88  GLU88       0.3649
     71  OE1       25.0600    2.9210   19.3150 O.co2  88  GLU88      -0.2457
     72  OE2       26.7600    1.6180   19.4870 O.co2  88  GLU88      -0.2457
     73  N         25.9210   -0.2650   17.1340 N.am   89  ILE89      -0.1977
     74  CA        26.9610   -1.1820   16.7100 C.3    89  ILE89       0.1596
     75  C         27.8370   -1.6540   17.8690 C.2    89  ILE89       0.2287
     76  O         28.4830   -2.7020   17.7570 O.2    89  ILE89      -0.2864
     77  CB        27.7730   -0.5010   15.6040 C.3    89  ILE89       0.0276
     78  CG1       28.4950   -1.5280   14.7400 C.3    89  ILE89       0.0022
     79  CG2       28.7360    0.5030   16.2010 C.3    89  ILE89       0.0022
     80  CD1       29.5620   -0.9240   13.8760 C.3    89  ILE89       0.0001
     81  N         24.3140   -4.0940   15.8650 N.3   115  GLY115     -0.1210
     82  CA        24.8660   -4.3500   14.5590 C.3   115  GLY115      0.1956
     83  C         25.1940   -3.0800   13.8230 C.2   115  GLY115      0.2612
     84  O         24.7970   -1.9750   14.1920 O.2   115  GLY115     -0.2717
     85  N         25.9660   -3.2580   12.7640 N.am  116  ALA116     -0.1965
     86  CA        26.3040   -2.1750   11.8730 C.3   116  ALA116      0.1728
     87  C         25.1340   -1.9580   10.9410 C.2   116  ALA116      0.2617
     88  O         24.4900   -2.9150   10.5170 O.2   116  ALA116     -0.2715
     89  CB        27.5780   -2.4840   11.0860 C.3   116  ALA116      0.0334
     90  N         24.8730   -0.6930   10.6340 N.am  117  SER117     -0.1936
     91  CA        23.6370   -0.3190    9.9700 C.3   117  SER117      0.2055
     92  C         23.4410   -1.0820    8.6690 C.2   117  SER117      0.2642
     93  O         22.3170   -1.5000    8.3480 O.2   117  SER117     -0.2714
     94  CB        23.6330    1.1800    9.6990 C.3   117  SER117      0.2130
     95  OG        24.6350    1.5060    8.7550 O.3   117  SER117     -0.2179
     96  N         24.5170   -1.2790    7.9110 N.am  118  GLN118     -0.1976
     97  CA        24.4130   -1.8670    6.5850 C.3   118  GLN118      0.1601
     98  C         24.2540   -3.3730    6.6050 C.2   118  GLN118      0.2287
     99  O         24.0560   -3.9680    5.5410 O.2   118  GLN118     -0.2864
    100  CB        25.6290   -1.4990    5.7580 C.3   118  GLN118      0.0394
    101  CG        26.8440   -2.3420    6.0470 C.3   118  GLN118      0.0908
    102  CD        27.7100   -1.8100    7.1850 C.2   118  GLN118      0.2608
    103  OE1       27.5590   -0.6780    7.6510 O.2   118  GLN118     -0.2717
    104  NE2       28.6230   -2.6420    7.6350 N.am  118  GLN118     -0.0878
    105  N         22.3480    9.5100   12.9860 N.3   139  ASP139     -0.1225
    106  CA        23.2510   10.0710   13.9840 C.3   139  ASP139      0.1805
    107  C         24.4340    9.1290   14.1850 C.2   139  ASP139      0.2598
    108  O         25.0410    9.1140   15.2610 O.2   139  ASP139     -0.2718
    109  CB        22.5030   10.3000   15.3210 C.3   139  ASP139      0.1424
    110  CG        23.1870   11.3280   16.2680 C.2   139  ASP139      0.3668
    111  OD1       24.0140   12.1690   15.8290 O.co2 139  ASP139     -0.2456
    112  OD2       22.8770   11.2940   17.4840 O.co2 139  ASP139     -0.2456
    113  N         24.7580    8.3130   13.1730 N.am  140  HIS140     -0.1961
    114  CA        25.8740    7.3790   13.3040 C.3   140  HIS140      0.1787
    115  C         27.1230    7.9070   12.5950 C.2   140  HIS140      0.2620
    116  O         27.3920    9.1100   12.6490 O.2   140  HIS140     -0.2715
    117  CB        25.4880    5.9600   12.8350 C.3   140  HIS140      0.0785
    118  CG        25.0060    5.8350   11.4160 C.ar  140  HIS140      0.0821
    119  ND1       24.3970    6.8540   10.7160 N.ar  140  HIS140     -0.2267
    120  CD2       25.0030    4.7610   10.5900 C.ar  140  HIS140      0.1154
    121  CE1       24.0620    6.4220    9.5140 C.ar  140  HIS140      0.1986
    122  NE2       24.4280    5.1580    9.4100 N.ar  140  HIS140     -0.2212
    123  N         27.9200    7.0440   11.9700 N.am  141  TRP141     -0.1974
    124  CA        29.1460    7.5180   11.3310 C.3   141  TRP141      0.1640
    125  C         28.8060    8.3650   10.1160 C.2   141  TRP141      0.2290
    126  O         28.0900    7.9190    9.2160 O.2   141  TRP141     -0.2864
    127  CB        30.0280    6.3600   10.9150 C.3   141  TRP141      0.0576
    128  CG        30.5670    5.6510   12.0720 C.ar  141  TRP141      0.0006
    129  CD1       30.7090    6.1370   13.3420 C.ar  141  TRP141      0.0946
    130  CD2       31.0330    4.3050   12.1020 C.ar  141  TRP141      0.0152
    131  NE1       31.2390    5.1720   14.1550 N.ar  141  TRP141     -0.2442
    132  CE2       31.4390    4.0340   13.4260 C.ar  141  TRP141      0.0810
    133  CE3       31.1380    3.2930   11.1380 C.ar  141  TRP141      0.0012
    134  CZ2       31.9370    2.8070   13.8100 C.ar  141  TRP141      0.0191
    135  CZ3       31.6410    2.0830   11.5170 C.ar  141  TRP141      0.0001
    136  CH2       32.0360    1.8450   12.8420 C.ar  141  TRP141      0.0015
    137  N         28.4100    7.1400    6.5370 N.3   144  ARG144     -0.1245
    138  CA        27.4120    6.1280    6.2140 C.3   144  ARG144      0.1563
    139  C         26.0650    6.7170    5.8550 C.2   144  ARG144      0.2260
    140  O         25.2080    5.9860    5.3550 O.2   144  ARG144     -0.2867
    141  CB        27.2190    5.1560    7.3880 C.3   144  ARG144      0.0307
    142  CG        28.4920    4.5980    7.9290 C.3   144  ARG144      0.0489
    143  CD        29.3570    4.1110    6.8020 C.3   144  ARG144      0.2205
    144  NE        30.7040    3.7970    7.2500 N.pl3 144  ARG144     -0.0865
    145  CZ        31.0890    2.5960    7.6710 C.cat 144  ARG144      0.5346
    146  NH1       32.3530    2.3890    8.0520 N.pl3 144  ARG144      0.1354
    147  NH2       30.2140    1.6010    7.7040 N.pl3 144  ARG144      0.1354
@<TRIPOS>BOND
     1   140   139    2
     2    99    98    2
     3   100   101    1
     4   100    97    1
     5   139   138    1
     6   101   102    1
     7   138   137    1
     8   138   141    1
     9    97    98    1
    10    97    96    1
    11   143   144    1
    12   143   142    1
    13   102   104   am
    14   102   103    2
    15   144   145    2
    16   141   142    1
    17   145   147    1
    18   145   146    1
    19    96    92   am
    20    93    92    2
    21    92    91    1
    22    95    94    1
    23   126   125    2
    24   122   121   ar
    25   122   120   ar
    26    38    37    1
    27   121   119   ar
    28    94    91    1
    29    91    90    1
    30   125   124    1
    31    88    87    2
    32   120   118   ar
    33    90    87   am
    34   119   118   ar
    35    37    39    1
    36    37    36    1
    37   127   124    1
    38   127   128    1
    39    87    86    1
    40    89    86    1
    41   133   135   ar
    42   133   130   ar
    43    63    62    1
    44   124   123    1
    45   118   117    1
    46   135   136   ar
    47    62    61    1
    48    36    33    1
    49    86    85    1
    50   123   115   am
    51   128   130   ar
    52   128   129   ar
    53   130   132   ar
    54   115   116    2
    55   115   114    1
    56    85    83   am
    57   117   114    1
    58   136   134   ar
    59   105   106    1
    60   113   114    1
    61   113   107   am
    62    33    32    1
    63    33    34    1
    64   129   131   ar
    65   132   134   ar
    66   132   131   ar
    67    61    60    1
    68    83    84    2
    69    83    82    1
    70    80    78    1
    71   106   107    1
    72   106   109    1
    73    35    34    2
    74   107   108    2
    75    60    57    1
    76    34    40   am
    77    82    81    1
    78    78    77    1
    79    40    41    1
    80   109   110    1
    81    77    79    1
    82    77    74    1
    83    57    56    1
    84    57    58    1
    85   111   110   ar
    86   110   112   ar
    87    41    42    1
    88    58    59    2
    89    58    64   am
    90    74    73    1
    91    74    75    1
    92    64    65    1
    93    31    30    1
    94    73    66   am
    95    66    67    2
    96    66    65    1
    97    42    43    2
    98    76    75    2
    99    65    68    1
   100    30    29    1
   101    71    70   ar
   102    68    69    1
   103    72    70   ar
   104    29    28    1
   105    70    69    1
   106    44    45    1
   107    28    25    1
   108    48    45    1
   109    48    49    1
   110    26    27    2
   111    26    25    1
   112    45    46    1
   113    25    24    1
   114    49    50   ar
   115    49    51   ar
   116    50    52   ar
   117    23    22   ar
   118    23    21   ar
   119    22    20   ar
   120    51    53   ar
   121    46    47    2
   122    52    54   ar
   123    21    19   ar
   124    53    54   ar
   125    20    17   ar
   126    54    55    1
   127    19    17   ar
   128    19    18   ar
   129    17    15   ar
   130    18    16   ar
   131     9     7   ar
   132    15    16   ar
   133    15    14    1
   134    14    11    1
   135     7     6    1
   136     7     8   ar
   137     6     5    1
   138    12    13    2
   139    12    11    1
   140    11    10    1
   141     5     2    1
   142     2     1    1
   143     2     3    1
   144     3     4    2
