@<TRIPOS>MOLECULE
tmp/5lr7A00.pdb
 217 205 0 0 0
SMALL
GASTEIGER

@<TRIPOS>ATOM
      1  N         16.2740   28.9050   20.7810 N.3     5  ALA5       -0.1231
      2  CA        15.5790   27.6360   20.5940 C.3     5  ALA5        0.1694
      3  C         15.8550   27.0730   19.2080 C.2     5  ALA5        0.2592
      4  O         15.7600   27.7940   18.2120 O.2     5  ALA5       -0.2718
      5  CB        14.0660   27.8170   20.7940 C.3     5  ALA5        0.0304
      6  N         16.1990   25.7680   19.1390 N.am    6  PHE6       -0.1962
      7  CA        16.3530   25.1020   17.8620 C.3     6  PHE6        0.1771
      8  C         14.9700   24.9570   17.2600 C.2     6  PHE6        0.2619
      9  O         14.0050   24.6860   17.9920 O.2     6  PHE6       -0.2715
     10  CB        16.9310   23.6860   18.0400 C.3     6  PHE6        0.0574
     11  CG        18.4150   23.6200   18.3080 C.ar    6  PHE6       -0.0200
     12  CD1       19.3360   23.9280   17.3060 C.ar    6  PHE6       -0.0042
     13  CD2       18.8940   23.1860   19.5350 C.ar    6  PHE6       -0.0042
     14  CE1       20.7120   23.8230   17.5420 C.ar    6  PHE6       -0.0003
     15  CE2       20.2690   23.0700   19.7660 C.ar    6  PHE6       -0.0003
     16  CZ        21.1660   23.3910   18.7700 C.ar    6  PHE6       -0.0000
     17  N         14.8790   25.0580   15.9170 N.am    7  GLN7       -0.1977
     18  CA        13.6370   24.7800   15.1840 C.3     7  GLN7        0.1601
     19  C         13.4000   23.2920   15.3530 C.2     7  GLN7        0.2287
     20  O         14.3520   22.5270   15.6200 O.2     7  GLN7       -0.2864
     21  CB        13.7540   25.1570   13.6950 C.3     7  GLN7        0.0394
     22  CG        13.4680   26.6440   13.4560 C.3     7  GLN7        0.0908
     23  CD        13.3500   26.9930   11.9920 C.2     7  GLN7        0.2608
     24  OE1       12.2850   26.8620   11.3730 O.2     7  GLN7       -0.2717
     25  NE2       14.4370   27.4790   11.4130 N.am    7  GLN7       -0.0878
     26  N         15.6390   20.4670   13.3730 N.3    10  ILE10      -0.1245
     27  CA        16.9990   20.2750   13.8870 C.3    10  ILE10       0.1561
     28  C         16.9550   19.6310   15.2840 C.2    10  ILE10       0.2260
     29  O         17.7430   18.7250   15.5400 O.2    10  ILE10      -0.2867
     30  CB        17.9020   21.5500   13.7900 C.3    10  ILE10       0.0252
     31  CG1       19.3340   21.3200   14.3480 C.3    10  ILE10       0.0019
     32  CG2       17.2680   22.7760   14.4020 C.3    10  ILE10       0.0019
     33  CD1       20.1950   20.2060   13.5600 C.3    10  ILE10       0.0001
     34  N         34.0070   16.2210   11.2850 N.3    32  LEU32      -0.1245
     35  CA        34.5460   17.4700   11.8430 C.3    32  LEU32       0.1561
     36  C         35.8470   17.8950   11.1450 C.2    32  LEU32       0.2260
     37  O         36.0170   19.0750   10.8440 O.2    32  LEU32      -0.2867
     38  CB        34.7160   17.3430   13.3640 C.3    32  LEU32       0.0270
     39  CG        33.3620   17.1840   14.1290 C.3    32  LEU32       0.0019
     40  CD1       33.6040   16.8860   15.6070 C.3    32  LEU32       0.0001
     41  CD2       32.5090   18.4400   13.9990 C.3    32  LEU32       0.0001
     42  N         34.8600   19.4040    7.9090 N.3    35  ASN35      -0.1225
     43  CA        34.3740   20.7830    8.0470 C.3    35  ASN35       0.1785
     44  C         35.5460   21.7330    8.2620 C.2    35  ASN35       0.2597
     45  O         35.5250   22.8390    7.7290 O.2    35  ASN35      -0.2718
     46  CB        33.3440   20.9060    9.1830 C.3    35  ASN35       0.1169
     47  CG        31.9590   20.4380    8.8000 C.2    35  ASN35       0.2627
     48  OD1       31.7600   19.7370    7.8030 O.2    35  ASN35      -0.2716
     49  ND2       30.9630   20.8270    9.5790 N.am   35  ASN35      -0.0877
     50  N         36.5580   21.3060    9.0330 N.am   36  SER36      -0.1952
     51  CA        37.7820   22.1070    9.2860 C.3    36  SER36       0.1924
     52  C         38.5200   22.3380    7.9600 C.2    36  SER36       0.2314
     53  O         38.9120   23.4690    7.6700 O.2    36  SER36      -0.2863
     54  CB        38.7050   21.3760   10.2560 C.3    36  SER36       0.2116
     55  OG        38.2150   21.5330   11.5780 O.3    36  SER36      -0.2180
     56  N         36.7080   24.8330    5.8340 N.3    39  ALA39      -0.1245
     57  CA        36.9130   26.1990    6.3770 C.3    39  ALA39       0.1562
     58  C         38.3030   26.7280    6.0270 C.2    39  ALA39       0.2260
     59  O         38.4750   27.9380    5.8010 O.2    39  ALA39      -0.2867
     60  CB        36.7160   26.1960    7.8860 C.3    39  ALA39       0.0290
     61  N         38.9820   19.8060   18.4530 N.3    75  ILE75      -0.1245
     62  CA        39.4830   19.8820   17.0580 C.3    75  ILE75       0.1561
     63  C         39.6830   21.3680   16.8050 C.2    75  ILE75       0.2260
     64  O         38.7440   22.1390   16.9430 O.2    75  ILE75      -0.2867
     65  CB        38.5570   19.2320   15.9890 C.3    75  ILE75       0.0252
     66  CG1       38.2930   17.7400   16.2850 C.3    75  ILE75       0.0019
     67  CG2       39.1310   19.4010   14.5670 C.3    75  ILE75       0.0019
     68  CD1       37.0660   17.4730   17.1630 C.3    75  ILE75       0.0001
     69  N         41.0880   24.4010   14.1910 N.3    77  ASP77      -0.1239
     70  CA        41.5250   24.7470   12.8470 C.3    77  ASP77       0.1674
     71  C         41.7300   26.2420   12.7830 C.2    77  ASP77       0.2266
     72  O         41.1320   26.9820   13.5680 O.2    77  ASP77      -0.2867
     73  CB        40.5660   24.2480   11.7560 C.3    77  ASP77       0.1410
     74  CG        39.2090   24.9080   11.7340 C.2    77  ASP77       0.3668
     75  OD1       39.1300   26.1010   11.3440 O.co2  77  ASP77      -0.2456
     76  OD2       38.2240   24.2250   12.0410 O.co2  77  ASP77      -0.2456
     77  N         38.3810   29.7310    8.1270 N.3    80  ILE80      -0.1231
     78  CA        37.6560   31.0130    8.0150 C.3    80  ILE80       0.1692
     79  C         36.9390   31.4520    9.3170 C.2    80  ILE80       0.2593
     80  O         36.7630   32.6450    9.5290 O.2    80  ILE80      -0.2718
     81  CB        36.6780   31.0040    6.8000 C.3    80  ILE80       0.0266
     82  CG1       36.1880   32.4500    6.4860 C.3    80  ILE80       0.0019
     83  CG2       35.5010   30.0140    7.0010 C.3    80  ILE80       0.0020
     84  CD1       35.8600   32.7700    5.0540 C.3    80  ILE80       0.0001
     85  N         36.5190   30.4950   10.1430 N.am   81  GLY81      -0.1942
     86  CA        35.7840   30.8110   11.3610 C.3    81  GLY81       0.2014
     87  C         34.3490   31.1730   11.0400 C.2    81  GLY81       0.2638
     88  O         33.9430   31.0960    9.8770 O.2    81  GLY81      -0.2714
     89  N         33.5640   31.5250   12.0720 N.am   82  MET82      -0.1976
     90  CA        32.1530   31.8700   11.9270 C.3    82  MET82       0.1605
     91  C         31.8770   33.1840   12.6310 C.2    82  MET82       0.2287
     92  O         32.3690   33.4170   13.7430 O.2    82  MET82      -0.2864
     93  CB        31.2580   30.7700   12.5370 C.3    82  MET82       0.0413
     94  CG        31.2890   29.4450   11.7420 C.3    82  MET82       0.0598
     95  SD        30.6860   28.0640   12.7390 S.3    82  MET82      -0.1393
     96  CE        32.1980   27.5200   13.4490 C.3    82  MET82       0.0692
     97  N         26.6580   31.8930   13.3140 N.3    87  LEU87      -0.1231
     98  CA        26.2330   31.0280   14.4230 C.3    87  LEU87       0.1693
     99  C         24.7400   31.0000   14.6780 C.2    87  LEU87       0.2591
    100  O         24.1920   29.9390   14.9650 O.2    87  LEU87      -0.2718
    101  CB        26.9620   31.3990   15.7200 C.3    87  LEU87       0.0284
    102  CG        28.4770   31.2080   15.7290 C.3    87  LEU87       0.0019
    103  CD1       29.0950   31.9310   16.9380 C.3    87  LEU87       0.0001
    104  CD2       28.8630   29.7310   15.6830 C.3    87  LEU87       0.0001
    105  N         24.0980   32.1560   14.6190 N.am   88  ILE88      -0.1980
    106  CA        22.6720   32.2710   14.9440 C.3    88  ILE88       0.1595
    107  C         21.7610   32.0720   13.7480 C.2    88  ILE88       0.2287
    108  O         20.7900   31.2960   13.8310 O.2    88  ILE88      -0.2864
    109  CB        22.4130   33.6380   15.6660 C.3    88  ILE88       0.0276
    110  CG1       23.1710   33.6780   17.0290 C.3    88  ILE88       0.0022
    111  CG2       20.8960   33.9150   15.8830 C.3    88  ILE88       0.0022
    112  CD1       23.3150   35.1200   17.6110 C.3    88  ILE88       0.0001
    113  N         23.8540   29.6110    9.6620 N.3    91  LEU91      -0.1231
    114  CA        23.9760   28.1610    9.8750 C.3    91  LEU91       0.1693
    115  C         22.6690   27.5000   10.2970 C.2    91  LEU91       0.2592
    116  O         22.4900   26.3050   10.0400 O.2    91  LEU91      -0.2718
    117  CB        25.1240   27.8000   10.8100 C.3    91  LEU91       0.0284
    118  CG        26.5160   28.1300   10.2400 C.3    91  LEU91       0.0019
    119  CD1       27.5520   28.2170   11.3420 C.3    91  LEU91       0.0001
    120  CD2       26.9410   27.1250    9.1460 C.3    91  LEU91       0.0001
    121  N         21.7450   28.2860   10.8390 N.am   92  GLY92      -0.1957
    122  CA        20.4020   27.8130   11.1620 C.3    92  GLY92       0.1869
    123  C         19.6540   27.4780    9.8850 C.2    92  GLY92       0.2309
    124  O         18.9540   26.4670    9.8330 O.2    92  GLY92      -0.2863
    125  N         21.1300   26.6220    6.9350 N.3    94  ILE94      -0.1231
    126  CA        21.8000   25.4170    6.4290 C.3    94  ILE94       0.1692
    127  C         21.3300   24.1820    7.1730 C.2    94  ILE94       0.2591
    128  O         21.0730   23.1530    6.5350 O.2    94  ILE94      -0.2718
    129  CB        23.3560   25.5530    6.4760 C.3    94  ILE94       0.0266
    130  CG1       23.8940   26.6970    5.5510 C.3    94  ILE94       0.0019
    131  CG2       24.0620   24.2130    6.1980 C.3    94  ILE94       0.0020
    132  CD1       23.4080   26.7360    4.0520 C.3    94  ILE94       0.0001
    133  N         21.2980   24.2470    8.5300 N.am   95  ALA95      -0.1980
    134  CA        20.8550   23.1400    9.3810 C.3    95  ALA95       0.1597
    135  C         19.4020   22.7150    9.0580 C.2    95  ALA95       0.2287
    136  O         19.0970   21.5270    9.0730 O.2    95  ALA95      -0.2864
    137  CB        20.9620   23.5300   10.8490 C.3    95  ALA95       0.0319
    138  N         25.3340   18.3510    4.4890 N.3   119  GLY119     -0.1210
    139  CA        25.8440   19.5830    5.0830 C.3   119  GLY119      0.1956
    140  C         25.5990   19.7440    6.5750 C.2   119  GLY119      0.2611
    141  O         25.7810   20.8360    7.1090 O.2   119  GLY119     -0.2717
    142  N         25.1650   18.6710    7.2590 N.am  120  VAL120     -0.1979
    143  CA        24.8950   18.7100    8.6970 C.3   120  VAL120      0.1595
    144  C         25.7680   17.6940    9.4600 C.2   120  VAL120      0.2287
    145  O         25.4270   17.3130   10.5740 O.2   120  VAL120     -0.2864
    146  CB        23.3830   18.6180    9.0630 C.3   120  VAL120      0.0276
    147  CG1       22.6710   19.9180    8.7100 C.3   120  VAL120      0.0022
    148  CG2       22.6950   17.4190    8.3930 C.3   120  VAL120      0.0022
    149  N         28.3420   18.2500   11.0590 N.3   122  PHE122     -0.1227
    150  CA        28.7210   18.8210   12.3600 C.3   122  PHE122      0.1736
    151  C         27.9640   18.1130   13.4940 C.2   122  PHE122      0.2595
    152  O         28.5710   17.7460   14.5070 O.2   122  PHE122     -0.2718
    153  CB        28.4000   20.3290   12.3980 C.3   122  PHE122      0.0547
    154  CG        28.4960   20.9540   13.7810 C.ar  122  PHE122     -0.0202
    155  CD1       29.7300   21.1660   14.3820 C.ar  122  PHE122     -0.0042
    156  CD2       27.3430   21.3320   14.4770 C.ar  122  PHE122     -0.0042
    157  CE1       29.8150   21.7510   15.6510 C.ar  122  PHE122     -0.0003
    158  CE2       27.4320   21.9190   15.7420 C.ar  122  PHE122     -0.0003
    159  CZ        28.6610   22.1250   16.3180 C.ar  122  PHE122     -0.0000
    160  N         26.6520   17.8580   13.2870 N.am  123  TYR123     -0.1976
    161  CA        25.7930   17.2430   14.2990 C.3   123  TYR123      0.1639
    162  C         26.1390   15.7970   14.6240 C.2   123  TYR123      0.2290
    163  O         25.6560   15.2950   15.6460 O.2   123  TYR123     -0.2864
    164  CB        24.2970   17.4270   13.9400 C.3   123  TYR123      0.0560
    165  CG        23.9130   18.8450   14.2900 C.ar  123  TYR123     -0.0198
    166  CD1       23.7570   19.2310   15.6210 C.ar  123  TYR123     -0.0009
    167  CD2       23.9240   19.8490   13.3220 C.ar  123  TYR123     -0.0009
    168  CE1       23.5510   20.5600   15.9730 C.ar  123  TYR123      0.0417
    169  CE2       23.6970   21.1870   13.6620 C.ar  123  TYR123      0.0417
    170  CZ        23.5060   21.5310   14.9900 C.ar  123  TYR123      0.1957
    171  OH        23.2980   22.8310   15.3690 O.3   123  TYR123     -0.2866
    172  N         31.6510   25.3910   20.6880 N.3   134  VAL134     -0.1245
    173  CA        32.3480   25.8850   19.5030 C.3   134  VAL134      0.1561
    174  C         32.8880   27.2840   19.8250 C.2   134  VAL134      0.2260
    175  O         32.0970   28.1970   20.0400 O.2   134  VAL134     -0.2867
    176  CB        31.4120   25.9160   18.2560 C.3   134  VAL134      0.0252
    177  CG1       32.0800   26.6290   17.0770 C.3   134  VAL134      0.0019
    178  CG2       30.9720   24.5030   17.8620 C.3   134  VAL134      0.0019
    179  N         29.6260   29.2320   21.0180 N.3   146  TRP146     -0.1241
    180  CA        28.3100   28.6480   20.7700 C.3   146  TRP146      0.1605
    181  C         28.3370   27.3530   21.5600 C.2   146  TRP146      0.2264
    182  O         29.3700   26.6820   21.6040 O.2   146  TRP146     -0.2867
    183  CB        28.1030   28.3640   19.2460 C.3   146  TRP146      0.0550
    184  CG        26.8340   27.6290   18.8750 C.ar  146  TRP146      0.0003
    185  CD1       25.6960   28.1760   18.3650 C.ar  146  TRP146      0.0946
    186  CD2       26.6340   26.2000   18.8640 C.ar  146  TRP146      0.0152
    187  NE1       24.7750   27.1820   18.0830 N.ar  146  TRP146     -0.2442
    188  CE2       25.3090   25.9660   18.4320 C.ar  146  TRP146      0.0810
    189  CE3       27.4020   25.1020   19.2990 C.ar  146  TRP146      0.0012
    190  CZ2       24.7680   24.6760   18.3320 C.ar  146  TRP146      0.0191
    191  CZ3       26.8550   23.8270   19.2330 C.ar  146  TRP146      0.0001
    192  CH2       25.5560   23.6210   18.7520 C.ar  146  TRP146      0.0015
    193  N         20.4370   26.2620   22.4370 N.3   154  PHE154     -0.1241
    194  CA        21.8700   26.5130   22.3220 C.3   154  PHE154      0.1605
    195  C         22.1130   27.9190   22.8400 C.2   154  PHE154      0.2264
    196  O         21.1750   28.7110   22.9080 O.2   154  PHE154     -0.2867
    197  CB        22.3750   26.3650   20.8560 C.3   154  PHE154      0.0534
    198  CG        21.8380   27.3470   19.8290 C.ar  154  PHE154     -0.0203
    199  CD1       22.4600   28.5770   19.6200 C.ar  154  PHE154     -0.0042
    200  CD2       20.7250   27.0290   19.0530 C.ar  154  PHE154     -0.0042
    201  CE1       22.0060   29.4510   18.6220 C.ar  154  PHE154     -0.0003
    202  CE2       20.2600   27.9090   18.0610 C.ar  154  PHE154     -0.0003
    203  CZ        20.9010   29.1190   17.8530 C.ar  154  PHE154     -0.0000
    204  N         38.3970   28.0110   14.2840 N.3   168  THR168     -0.1218
    205  CA        37.3750   27.3500   15.0820 C.3   168  THR168      0.1862
    206  C         37.9580   26.2700   15.9740 C.2   168  THR168      0.2287
    207  O         38.8360   25.5090   15.5510 O.2   168  THR168     -0.2866
    208  CB        36.2880   26.7700   14.1420 C.3   168  THR168      0.1770
    209  OG1       35.7370   27.8460   13.3820 O.3   168  THR168     -0.2211
    210  CG2       35.1680   25.9930   14.9070 C.3   168  THR168      0.0375
    211  N         36.3290   23.0960   18.1110 N.3   170  VAL170     -0.1245
    212  CA        35.1440   22.2870   18.4190 C.3   170  VAL170      0.1561
    213  C         35.5440   21.4130   19.6210 C.2   170  VAL170      0.2260
    214  O         36.3920   20.5260   19.4870 O.2   170  VAL170     -0.2867
    215  CB        34.6180   21.4370   17.2310 C.3   170  VAL170      0.0252
    216  CG1       33.4160   20.5950   17.6690 C.3   170  VAL170      0.0019
    217  CG2       34.2350   22.3280   16.0400 C.3   170  VAL170      0.0019
@<TRIPOS>BOND
     1   132   130    1
     2   138   139    1
     3    84    82    1
     4   139   140    1
     5   130   129    1
     6    59    58    2
     7    56    57    1
     8    58    57    1
     9   131   129    1
    10    57    60    1
    11   126   129    1
    12   126   125    1
    13   126   127    1
    14    82    81    1
    15   128   127    2
    16   140   141    2
    17   140   142   am
    18    81    83    1
    19    81    78    1
    20   127   133   am
    21   142   143    1
    22    53    52    2
    23    45    44    2
    24    48    47    2
    25    42    43    1
    26    52    51    1
    27    78    77    1
    28    78    79    1
    29    43    44    1
    30    43    46    1
    31    44    50   am
    32   148   146    1
    33   133   134    1
    34   143   146    1
    35   143   144    1
    36   147   146    1
    37    47    46    1
    38    47    49   am
    39    50    51    1
    40   135   136    2
    41   135   134    1
    42   120   118    1
    43    51    54    1
    44    79    80    2
    45    79    85   am
    46   134   137    1
    47   144   145    2
    48   113   114    1
    49   124   123    2
    50   114   115    1
    51   114   117    1
    52    88    87    2
    53   123   122    1
    54   116   115    2
    55    85    86    1
    56   118   117    1
    57   118   119    1
    58    54    55    1
    59   115   121   am
    60   121   122    1
    61    37    36    2
    62    87    86    1
    63    87    89   am
    64   149   150    1
    65    36    35    1
    66    34    35    1
    67    75    74   ar
    68    24    23    2
    69    25    23   am
    70    74    73    1
    71    74    76   ar
    72    94    93    1
    73    94    95    1
    74    73    70    1
    75    35    38    1
    76    90    89    1
    77    90    93    1
    78    90    91    1
    79    23    22    1
    80   150   153    1
    81   150   151    1
    82   153   154    1
    83    91    92    2
    84    95    96    1
    85    71    70    1
    86    71    72    2
    87    70    69    1
    88   160   151   am
    89   160   161    1
    90    97    98    1
    91   167   169   ar
    92   167   165   ar
    93    38    39    1
    94    26    27    1
    95   209   208    1
    96    22    21    1
    97   151   152    2
    98    33    31    1
    99   169   170   ar
   100    21    18    1
   101   107   108    2
   102   107   106    1
   103   154   155   ar
   104   154   156   ar
   105    30    27    1
   106    30    31    1
   107    30    32    1
   108    27    28    1
   109   164   165    1
   110   164   161    1
   111    41    39    1
   112    39    40    1
   113   208   210    1
   114   208   205    1
   115   204   205    1
   116   165   166   ar
   117   161   162    1
   118   155   157   ar
   119    98    99    1
   120    98   101    1
   121   156   158   ar
   122    67    65    1
   123   105    99   am
   124   105   106    1
   125   162   163    2
   126    99   100    2
   127   106   109    1
   128   170   171    1
   129   170   168   ar
   130   205   206    1
   131    18    19    1
   132    18    17    1
   133    28    29    2
   134    19    20    2
   135   207   206    2
   136   166   168   ar
   137   157   159   ar
   138   109   111    1
   139   109   110    1
   140   104   102    1
   141   101   102    1
   142   102   103    1
   143   158   159   ar
   144    17     8   am
   145    65    66    1
   146    65    62    1
   147   217   215    1
   148    66    68    1
   149    63    64    2
   150    63    62    1
   151   110   112    1
   152    62    61    1
   153   177   176    1
   154   215   216    1
   155   215   212    1
   156     8     7    1
   157     8     9    2
   158    12    14   ar
   159    12    11   ar
   160    14    16   ar
   161   203   202   ar
   162   203   201   ar
   163   178   176    1
   164     7    10    1
   165     7     6    1
   166    10    11    1
   167   202   200   ar
   168   187   185   ar
   169   187   188   ar
   170   211   212    1
   171     4     3    2
   172   176   173    1
   173    11    13   ar
   174   190   188   ar
   175   190   192   ar
   176   185   184   ar
   177   212   213    1
   178   188   186   ar
   179   201   199   ar
   180   192   191   ar
   181    16    15   ar
   182   186   184   ar
   183   186   189   ar
   184   184   183    1
   185   200   198   ar
   186     6     3   am
   187     3     2    1
   188   191   189   ar
   189   183   180    1
   190   214   213    2
   191   173   174    1
   192   173   172    1
   193    13    15   ar
   194   199   198   ar
   195   174   175    2
   196   198   197    1
   197     2     1    1
   198     2     5    1
   199   180   179    1
   200   180   181    1
   201   197   194    1
   202   181   182    2
   203   194   193    1
   204   194   195    1
   205   195   196    2
