@<TRIPOS>MOLECULE
tmp/5lr8A01.pdb
 91 85 0 0 0
SMALL
GASTEIGER

@<TRIPOS>ATOM
      1  N         58.6750    1.7350   51.8990 N.3   115  GLY115     -0.1210
      2  CA        58.4900    0.7750   50.8260 C.3   115  GLY115      0.1956
      3  C         59.6860    0.5810   49.9240 C.2   115  GLY115      0.2611
      4  O         59.9790   -0.5430   49.5140 O.2   115  GLY115     -0.2717
      5  N         60.3720    1.6790   49.6140 N.am  116  LEU116     -0.1979
      6  CA        61.5620    1.6420   48.7570 C.3   116  LEU116      0.1596
      7  C         62.5260    0.5710   49.2310 C.2   116  LEU116      0.2287
      8  O         63.0100   -0.2380   48.4410 O.2   116  LEU116     -0.2864
      9  CB        62.2860    2.9880   48.7770 C.3   116  LEU116      0.0297
     10  CG        62.7400    3.5190   47.4240 C.3   116  LEU116      0.0022
     11  CD1       61.6470    4.4130   46.8520 C.3   116  LEU116      0.0001
     12  CD2       64.0430    4.2920   47.5640 C.3   116  LEU116      0.0001
     13  N         60.8550   -3.2110   49.5500 N.3   119  LEU119     -0.1245
     14  CA        60.8770   -3.8130   48.2140 C.3   119  LEU119      0.1561
     15  C         62.2370   -4.4440   47.9380 C.2   119  LEU119      0.2260
     16  O         62.3220   -5.6240   47.5870 O.2   119  LEU119     -0.2867
     17  CB        60.5830   -2.7650   47.1350 C.3   119  LEU119      0.0270
     18  CG        60.4710   -3.3170   45.7090 C.3   119  LEU119      0.0019
     19  CD1       59.1110   -3.9660   45.5110 C.3   119  LEU119      0.0001
     20  CD2       60.6970   -2.2370   44.6670 C.3   119  LEU119      0.0001
     21  N         60.1190    5.3620   41.0730 N.3   354  HIS354     -0.1241
     22  CA        59.0150    5.1780   42.0230 C.3   354  HIS354      0.1621
     23  C         58.1520    6.4420   42.1890 C.2   354  HIS354      0.2264
     24  O         57.2710    6.4880   43.0530 O.2   354  HIS354     -0.2867
     25  CB        59.5700    4.7750   43.3920 C.3   354  HIS354      0.0745
     26  CG        60.5420    3.6370   43.3470 C.ar  354  HIS354      0.0817
     27  ND1       60.1680    2.3310   43.5690 N.ar  354  HIS354     -0.2268
     28  CD2       61.8750    3.6110   43.1220 C.ar  354  HIS354      0.1154
     29  CE1       61.2260    1.5480   43.4770 C.ar  354  HIS354      0.1986
     30  NE2       62.2750    2.3000   43.2060 N.ar  354  HIS354     -0.2212
     31  N         56.6510    0.8520   38.4550 N.3   460  VAL460     -0.1245
     32  CA        56.3990   -0.1790   39.4520 C.3   460  VAL460      0.1561
     33  C         54.9270   -0.6220   39.5060 C.2   460  VAL460      0.2260
     34  O         54.5290   -1.3600   40.4070 O.2   460  VAL460     -0.2867
     35  CB        56.8620    0.3210   40.8330 C.3   460  VAL460      0.0252
     36  CG1       58.3570    0.6030   40.8100 C.3   460  VAL460      0.0019
     37  CG2       56.1050    1.5730   41.2520 C.3   460  VAL460      0.0019
     38  N         55.2830   -4.2560   41.2960 N.3   489  ASN489     -0.1240
     39  CA        55.8990   -4.6690   42.5500 C.3   489  ASN489      0.1653
     40  C         55.2920   -5.9620   43.0550 C.2   489  ASN489      0.2266
     41  O         54.2640   -6.4250   42.5550 O.2   489  ASN489     -0.2867
     42  CB        55.7550   -3.5890   43.6380 C.3   489  ASN489      0.1155
     43  CG        56.6650   -2.3810   43.4200 C.2   489  ASN489      0.2627
     44  OD1       56.3280   -1.2790   43.8420 O.2   489  ASN489     -0.2716
     45  ND2       57.8180   -2.5810   42.7850 N.am  489  ASN489     -0.0877
     46  N         48.6270   11.0260   51.9650 N.3   580  LYS580     -0.1245
     47  CA        48.1820    9.6780   52.2960 C.3   580  LYS580      0.1561
     48  C         46.8180    9.7130   52.9910 C.2   580  LYS580      0.2260
     49  O         46.0620    8.7370   52.9410 O.2   580  LYS580     -0.2867
     50  CB        49.2240    8.9800   53.1680 C.3   580  LYS580      0.0271
     51  CG        50.5920    8.8900   52.5060 C.3   580  LYS580      0.0035
     52  CD        51.0950    7.4620   52.4330 C.3   580  LYS580      0.0206
     53  CE        52.0780    7.2820   51.2960 C.3   580  LYS580      0.1093
     54  NZ        52.5160    5.8680   51.1680 N.3   580  LYS580     -0.1314
     55  N         49.8130    7.8290   44.3980 N.3   682  GLU682     -0.1231
     56  CA        50.5910    6.6480   44.7420 C.3   682  GLU682      0.1699
     57  C         51.0290    5.9360   43.4660 C.2   682  GLU682      0.2592
     58  O         50.2470    5.8210   42.5160 O.2   682  GLU682     -0.2718
     59  CB        49.7650    5.7030   45.6140 C.3   682  GLU682      0.0402
     60  CG        50.5540    5.0470   46.7360 C.3   682  GLU682      0.1161
     61  CD        50.8140    6.0000   47.8860 C.2   682  GLU682      0.3649
     62  OE1       51.9870    6.1340   48.3040 O.co2 682  GLU682     -0.2457
     63  OE2       49.8430    6.6280   48.3580 O.co2 682  GLU682     -0.2457
     64  N         52.2800    5.4730   43.4490 N.am  683  ALA683     -0.1966
     65  CA        52.8240    4.7290   42.3120 C.3   683  ALA683      0.1728
     66  C         52.4430    3.2500   42.4110 C.2   683  ALA683      0.2617
     67  O         51.9390    2.6800   41.4490 O.2   683  ALA683     -0.2715
     68  CB        54.3350    4.8940   42.2340 C.3   683  ALA683      0.0334
     69  N         52.6790    2.6400   43.5710 N.am  684  SER684     -0.1936
     70  CA        52.2590    1.2570   43.8170 C.3   684  SER684      0.2055
     71  C         51.7490    1.0640   45.2460 C.2   684  SER684      0.2644
     72  O         50.5800    1.3150   45.5300 O.2   684  SER684     -0.2714
     73  CB        53.4010    0.2770   43.5070 C.3   684  SER684      0.2130
     74  OG        53.1250   -1.0220   44.0150 O.3   684  SER684     -0.2179
     75  N         52.6260    0.6010   46.1290 N.am  685  GLY685     -0.1939
     76  CA        52.2750    0.2840   47.5100 C.3   685  GLY685      0.2014
     77  C         52.4050   -1.2170   47.6830 C.2   685  GLY685      0.2640
     78  O         51.8020   -1.9790   46.9300 O.2   685  GLY685     -0.2714
     79  N         53.2040   -1.6480   48.6540 N.am  686  THR686     -0.1936
     80  CA        53.4280   -3.0700   48.8830 C.3   686  THR686      0.2028
     81  C         52.6710   -3.5940   50.0980 C.2   686  THR686      0.2642
     82  O         52.3290   -4.7700   50.1340 O.2   686  THR686     -0.2714
     83  CB        54.9310   -3.4100   48.9970 C.3   686  THR686      0.1808
     84  OG1       55.5260   -2.7050   50.0940 O.3   686  THR686     -0.2208
     85  CG2       55.6560   -3.0520   47.7040 C.3   686  THR686      0.0379
     86  N         52.3960   -2.7380   51.0810 N.am  687  SER687     -0.1949
     87  CA        51.5990   -3.1570   52.2440 C.3   687  SER687      0.1924
     88  C         50.2220   -3.6460   51.7880 C.2   687  SER687      0.2314
     89  O         49.6990   -4.6290   52.3090 O.2   687  SER687     -0.2863
     90  CB        51.4800   -2.0330   53.2960 C.3   687  SER687      0.2116
     91  OG        50.6070   -0.9840   52.8950 O.3   687  SER687     -0.2180
@<TRIPOS>BOND
     1    31    32    1
     2    32    33    1
     3    32    35    1
     4    33    34    2
     5    36    35    1
     6    35    37    1
     7    21    22    1
     8    38    39    1
     9    67    66    2
    10    22    23    1
    11    22    25    1
    12    23    24    2
    13    68    65    1
    14    65    66    1
    15    65    64    1
    16    66    69   am
    17    58    57    2
    18    39    40    1
    19    39    42    1
    20    41    40    2
    21    45    43   am
    22    28    30   ar
    23    28    26   ar
    24    30    29   ar
    25    26    25    1
    26    26    27   ar
    27    43    42    1
    28    43    44    2
    29    64    57   am
    30    57    56    1
    31    29    27   ar
    32    73    70    1
    33    73    74    1
    34    69    70    1
    35    70    71    1
    36    55    56    1
    37    20    18    1
    38    56    59    1
    39    71    72    2
    40    71    75   am
    41    19    18    1
    42    59    60    1
    43    18    17    1
    44    75    76    1
    45    60    61    1
    46    11    10    1
    47    78    77    2
    48    17    14    1
    49    10    12    1
    50    10     9    1
    51    76    77    1
    52    16    15    2
    53    77    79   am
    54    85    83    1
    55    61    62   ar
    56    61    63   ar
    57    15    14    1
    58    14    13    1
    59     8     7    2
    60    79    80    1
    61     6     9    1
    62     6     7    1
    63     6     5    1
    64    80    83    1
    65    80    81    1
    66    83    84    1
    67     4     3    2
    68     5     3   am
    69     3     2    1
    70    81    82    2
    71    81    86   am
    72     2     1    1
    73    86    87    1
    74    54    53    1
    75    53    52    1
    76    88    87    1
    77    88    89    2
    78    46    47    1
    79    87    90    1
    80    47    48    1
    81    47    50    1
    82    52    51    1
    83    51    50    1
    84    91    90    1
    85    49    48    2
