@<TRIPOS>MOLECULE
tmp/5lraB00.pdb
 112 111 0 0 0
SMALL
GASTEIGER

@<TRIPOS>ATOM
      1  N         15.2720   25.6460   12.6000 N.3   265  GLU265     -0.1245
      2  CA        15.6330   27.0620   12.8030 C.3   265  GLU265      0.1567
      3  C         14.4380   28.0040   12.6200 C.2   265  GLU265      0.2260
      4  O         14.5530   29.2000   12.8540 O.2   265  GLU265     -0.2867
      5  CB        16.7710   27.4790   11.8590 C.3   265  GLU265      0.0388
      6  CG        18.1660   27.2590   12.4370 C.3   265  GLU265      0.1160
      7  CD        19.1940   26.8190   11.4010 C.2   265  GLU265      0.3649
      8  OE1       18.9800   27.0540   10.1900 O.co2 265  GLU265     -0.2457
      9  OE2       20.2220   26.2250   11.8050 O.co2 265  GLU265     -0.2457
     10  N         26.3100   16.7350   23.8720 N.3   356  LEU356     -0.1231
     11  CA        26.1850   17.7820   22.8450 C.3   356  LEU356      0.1678
     12  C         24.8440   18.5140   22.9930 C.2   356  LEU356      0.2434
     13  O         23.8510   17.8950   23.3830 O.2   356  LEU356     -0.2733
     14  CB        26.2910   17.1860   21.4300 C.3   356  LEU356      0.0284
     15  CG        27.6690   17.0430   20.7600 C.3   356  LEU356      0.0019
     16  CD1       28.2750   18.4020   20.4320 C.3   356  LEU356      0.0001
     17  CD2       28.6170   16.2090   21.6090 C.3   356  LEU356      0.0001
     18  N         24.8020   19.8220   22.6410 N.am  357  PRO357     -0.2718
     19  CA        23.6080   20.6500   22.9160 C.3   357  PRO357      0.1535
     20  C         22.3530   20.2050   22.1560 C.2   357  PRO357      0.2598
     21  O         21.2740   20.0980   22.7470 O.2   357  PRO357     -0.2715
     22  CB        24.0270   22.0670   22.4730 C.3   357  PRO357      0.0310
     23  CG        25.3280   21.9350   21.7510 C.3   357  PRO357      0.0237
     24  CD        25.7410   20.4900   21.7170 C.3   357  PRO357      0.0939
     25  N         22.5270   19.8990   20.8690 N.am  358  GLU358     -0.1978
     26  CA        21.4120   19.5450   19.9940 C.3   358  GLU358      0.1602
     27  C         20.6580   18.3230   20.5580 C.2   358  GLU358      0.2287
     28  O         19.4540   18.1620   20.3260 O.2   358  GLU358     -0.2864
     29  CB        21.9070   19.2770   18.5620 C.3   358  GLU358      0.0415
     30  CG        23.1090   20.1090   18.0980 C.3   358  GLU358      0.1163
     31  CD        22.9630   21.6130   18.3230 C.2   358  GLU358      0.3649
     32  OE1       21.8870   22.1660   18.0230 O.co2 358  GLU358     -0.2457
     33  OE2       23.9410   22.2500   18.7750 O.co2 358  GLU358     -0.2457
     34  N         30.9020   15.8950   11.3420 N.3   576  HIS576     -0.1226
     35  CA        30.7420   16.8970   12.3750 C.3   576  HIS576      0.1752
     36  C         32.1130   17.4610   12.6550 C.2   576  HIS576      0.2595
     37  O         33.1070   16.7510   12.5470 O.2   576  HIS576     -0.2718
     38  CB        30.1550   16.2420   13.6230 C.3   576  HIS576      0.0759
     39  CG        29.3160   17.1530   14.4620 C.ar  576  HIS576      0.0818
     40  ND1       29.7780   18.3580   14.9540 N.ar  576  HIS576     -0.2268
     41  CD2       28.0550   17.0120   14.9330 C.ar  576  HIS576      0.1154
     42  CE1       28.8320   18.9260   15.6790 C.ar  576  HIS576      0.1986
     43  NE2       27.7750   18.1310   15.6810 N.ar  576  HIS576     -0.2212
     44  N         32.1780   18.7360   13.0000 N.am  577  GLU577     -0.1979
     45  CA        33.4570   19.3420   13.3230 C.3   577  GLU577      0.1602
     46  C         34.1410   18.6200   14.4750 C.2   577  GLU577      0.2287
     47  O         35.3670   18.4830   14.4720 O.2   577  GLU577     -0.2864
     48  CB        33.2860   20.8210   13.6550 C.3   577  GLU577      0.0415
     49  CG        33.1050   21.7010   12.4320 C.3   577  GLU577      0.1163
     50  CD        32.8440   23.1420   12.8020 C.2   577  GLU577      0.3649
     51  OE1       33.7700   23.9740   12.6340 O.co2 577  GLU577     -0.2457
     52  OE2       31.7190   23.4270   13.2810 O.co2 577  GLU577     -0.2457
     53  N         24.8060   17.3030    8.2340 N.3   619  PHE619     -0.1241
     54  CA        23.4470   17.7820    8.3910 C.3   619  PHE619      0.1605
     55  C         23.2830   18.9050    7.3760 C.2   619  PHE619      0.2264
     56  O         24.1910   19.7230    7.1930 O.2   619  PHE619     -0.2867
     57  CB        23.1490   18.2410    9.8220 C.3   619  PHE619      0.0534
     58  CG        21.6720   18.3690   10.1210 C.ar  619  PHE619     -0.0203
     59  CD1       20.9020   17.2390   10.4150 C.ar  619  PHE619     -0.0042
     60  CD2       21.0460   19.6240   10.1000 C.ar  619  PHE619     -0.0042
     61  CE1       19.5460   17.3560   10.6880 C.ar  619  PHE619     -0.0003
     62  CE2       19.6850   19.7460   10.3720 C.ar  619  PHE619     -0.0003
     63  CZ        18.9380   18.6090   10.6680 C.ar  619  PHE619     -0.0000
     64  N         21.9060   21.7450    6.8180 N.3   621  THR621     -0.1203
     65  CA        22.1480   23.1660    7.0710 C.3   621  THR621      0.1994
     66  C         23.5060   23.4730    7.7180 C.2   621  THR621      0.2618
     67  O         23.9220   24.6340    7.7730 O.2   621  THR621     -0.2717
     68  CB        21.0380   23.7710    7.9450 C.3   621  THR621      0.1784
     69  OG1       21.1880   25.1980    7.9650 O.3   621  THR621     -0.2211
     70  CG2       21.0670   23.2050    9.3790 C.3   621  THR621      0.0376
     71  N         24.1850   22.4380    8.2070 N.am  622  TYR622     -0.1961
     72  CA        25.4740   22.5880    8.8910 C.3   622  TYR622      0.1771
     73  C         26.5560   23.0000    7.8740 C.2   622  TYR622      0.2619
     74  O         27.2170   22.1540    7.2650 O.2   622  TYR622     -0.2715
     75  CB        25.8140   21.2690    9.6100 C.3   622  TYR622      0.0574
     76  CG        26.9530   21.2890   10.6200 C.ar  622  TYR622     -0.0198
     77  CD1       27.9250   22.3040   10.6280 C.ar  622  TYR622     -0.0009
     78  CD2       27.0890   20.2410   11.5370 C.ar  622  TYR622     -0.0009
     79  CE1       28.9730   22.2850   11.5360 C.ar  622  TYR622      0.0417
     80  CE2       28.1330   20.2110   12.4450 C.ar  622  TYR622      0.0417
     81  CZ        29.0730   21.2350   12.4460 C.ar  622  TYR622      0.1957
     82  OH        30.1090   21.2050   13.3580 O.3   622  TYR622     -0.2866
     83  N         26.7390   24.3090    7.7200 N.am  623  VAL623     -0.1977
     84  CA        27.5300   24.8590    6.6160 C.3   623  VAL623      0.1596
     85  C         28.9780   24.3930    6.5960 C.2   623  VAL623      0.2287
     86  O         29.4940   24.0160    5.5440 O.2   623  VAL623     -0.2864
     87  CB        27.5360   26.3970    6.6220 C.3   623  VAL623      0.0276
     88  CG1       28.4610   26.9310    5.5300 C.3   623  VAL623      0.0022
     89  CG2       26.1190   26.9290    6.4530 C.3   623  VAL623      0.0022
     90  N         32.9750   32.6830   18.0640 N.3   775  TYR775     -0.1241
     91  CA        32.2180   31.5750   17.4830 C.3   775  TYR775      0.1605
     92  C         32.7010   31.2020   16.0820 C.2   775  TYR775      0.2264
     93  O         32.8710   32.0620   15.2290 O.2   775  TYR775     -0.2867
     94  CB        30.7440   31.9650   17.4160 C.3   775  TYR775      0.0534
     95  CG        29.8180   30.8140   17.1650 C.ar  775  TYR775     -0.0201
     96  CD1       29.4730   29.9490   18.1970 C.ar  775  TYR775     -0.0009
     97  CD2       29.2700   30.5940   15.9020 C.ar  775  TYR775     -0.0009
     98  CE1       28.6110   28.8900   17.9810 C.ar  775  TYR775      0.0417
     99  CE2       28.4130   29.5300   15.6740 C.ar  775  TYR775      0.0417
    100  CZ        28.0890   28.6840   16.7170 C.ar  775  TYR775      0.1957
    101  OH        27.2430   27.6310   16.5030 O.3   775  TYR775     -0.2866
    102  N         37.8950   22.7590   18.4630 N.3   781  PHE781     -0.1241
    103  CA        38.0540   21.2960   18.5800 C.3   781  PHE781      0.1605
    104  C         39.5150   20.8170   18.5360 C.2   781  PHE781      0.2264
    105  O         39.7830   19.6370   18.2900 O.2   781  PHE781     -0.2867
    106  CB        37.2350   20.6020   17.5020 C.3   781  PHE781      0.0534
    107  CG        35.7990   20.9870   17.5260 C.ar  781  PHE781     -0.0203
    108  CD1       34.8970   20.2900   18.2990 C.ar  781  PHE781     -0.0042
    109  CD2       35.3550   22.0790   16.8050 C.ar  781  PHE781     -0.0042
    110  CE1       33.5590   20.6540   18.3300 C.ar  781  PHE781     -0.0003
    111  CE2       34.0250   22.4540   16.8330 C.ar  781  PHE781     -0.0003
    112  CZ        33.1200   21.7380   17.5940 C.ar  781  PHE781     -0.0000
@<TRIPOS>BOND
     1    88    87    1
     2    86    85    2
     3    89    87    1
     4    85    84    1
     5    84    87    1
     6    84    83    1
     7    64    65    1
     8    65    66    1
     9    65    68    1
    10    56    55    2
    11    74    73    2
    12    55    54    1
    13    66    67    2
    14    66    71   am
    15    83    73   am
    16    73    72    1
    17    68    69    1
    18    68    70    1
    19    71    72    1
    20    53    54    1
    21    54    57    1
    22    72    75    1
    23    75    76    1
    24    57    58    1
    25    60    58   ar
    26    60    62   ar
    27    58    59   ar
    28     8     7   ar
    29    62    63   ar
    30    59    61   ar
    31    76    77   ar
    32    76    78   ar
    33    77    79   ar
    34    63    61   ar
    35    34    35    1
    36     7     9   ar
    37     7     6    1
    38    79    81   ar
    39    78    80   ar
    40     5     6    1
    41     5     2    1
    42    35    36    1
    43    35    38    1
    44    49    50    1
    45    49    48    1
    46    80    81   ar
    47    81    82    1
    48    37    36    2
    49     1     2    1
    50     3     2    1
    51     3     4    2
    52    51    50   ar
    53    36    44   am
    54    50    52   ar
    55    44    45    1
    56    45    48    1
    57    45    46    1
    58    38    39    1
    59    39    41   ar
    60    39    40   ar
    61    47    46    2
    62    41    43   ar
    63    40    42   ar
    64    93    92    2
    65    99    97   ar
    66    99   100   ar
    67    42    43   ar
    68    97    95   ar
    69    92    91    1
    70   101   100    1
    71   100    98   ar
    72   109   111   ar
    73   109   107   ar
    74   111   112   ar
    75    95    94    1
    76    95    96   ar
    77    94    91    1
    78    91    90    1
    79   106   107    1
    80   106   103    1
    81   107   108   ar
    82   112   110   ar
    83    98    96   ar
    84    32    31   ar
    85    30    31    1
    86    30    29    1
    87   105   104    2
    88   108   110   ar
    89    31    33   ar
    90   102   103    1
    91   104   103    1
    92    29    26    1
    93    26    27    1
    94    26    25    1
    95    28    27    2
    96    16    15    1
    97    15    14    1
    98    15    17    1
    99    25    20   am
   100    14    11    1
   101    24    23    1
   102    24    18    1
   103    23    22    1
   104    20    21    2
   105    20    19    1
   106    22    19    1
   107    18    19    1
   108    18    12   am
   109    11    12    1
   110    11    10    1
   111    12    13    2
