@<TRIPOS>MOLECULE
tmp/5lraB05.pdb
 108 106 0 0 0
SMALL
GASTEIGER

@<TRIPOS>ATOM
      1  N         26.3100   16.7350   23.8720 N.3   356  LEU356     -0.1245
      2  CA        26.1850   17.7820   22.8450 C.3   356  LEU356      0.1561
      3  C         24.8440   18.5140   22.9930 C.2   356  LEU356      0.2260
      4  O         23.8510   17.8950   23.3830 O.2   356  LEU356     -0.2867
      5  CB        26.2910   17.1860   21.4300 C.3   356  LEU356      0.0270
      6  CG        27.6690   17.0430   20.7600 C.3   356  LEU356      0.0019
      7  CD1       28.2750   18.4020   20.4320 C.3   356  LEU356      0.0001
      8  CD2       28.6170   16.2090   21.6090 C.3   356  LEU356      0.0001
      9  N         22.5270   19.8990   20.8690 N.3   358  GLU358     -0.1245
     10  CA        21.4120   19.5450   19.9940 C.3   358  GLU358      0.1567
     11  C         20.6580   18.3230   20.5580 C.2   358  GLU358      0.2260
     12  O         19.4540   18.1620   20.3260 O.2   358  GLU358     -0.2867
     13  CB        21.9070   19.2770   18.5620 C.3   358  GLU358      0.0388
     14  CG        23.1090   20.1090   18.0980 C.3   358  GLU358      0.1160
     15  CD        22.9630   21.6130   18.3230 C.2   358  GLU358      0.3649
     16  OE1       21.8870   22.1660   18.0230 O.co2 358  GLU358     -0.2457
     17  OE2       23.9410   22.2500   18.7750 O.co2 358  GLU358     -0.2457
     18  N         30.9020   15.8950   11.3420 N.3   576  HIS576     -0.1226
     19  CA        30.7420   16.8970   12.3750 C.3   576  HIS576      0.1752
     20  C         32.1130   17.4610   12.6550 C.2   576  HIS576      0.2595
     21  O         33.1070   16.7510   12.5470 O.2   576  HIS576     -0.2718
     22  CB        30.1550   16.2420   13.6230 C.3   576  HIS576      0.0759
     23  CG        29.3160   17.1530   14.4620 C.ar  576  HIS576      0.0818
     24  ND1       29.7780   18.3580   14.9540 N.ar  576  HIS576     -0.2268
     25  CD2       28.0550   17.0120   14.9330 C.ar  576  HIS576      0.1154
     26  CE1       28.8320   18.9260   15.6790 C.ar  576  HIS576      0.1986
     27  NE2       27.7750   18.1310   15.6810 N.ar  576  HIS576     -0.2212
     28  N         32.1780   18.7360   13.0000 N.am  577  GLU577     -0.1979
     29  CA        33.4570   19.3420   13.3230 C.3   577  GLU577      0.1602
     30  C         34.1410   18.6200   14.4750 C.2   577  GLU577      0.2287
     31  O         35.3670   18.4830   14.4720 O.2   577  GLU577     -0.2864
     32  CB        33.2860   20.8210   13.6550 C.3   577  GLU577      0.0415
     33  CG        33.1050   21.7010   12.4320 C.3   577  GLU577      0.1163
     34  CD        32.8440   23.1420   12.8020 C.2   577  GLU577      0.3649
     35  OE1       33.7700   23.9740   12.6340 O.co2 577  GLU577     -0.2457
     36  OE2       31.7190   23.4270   13.2810 O.co2 577  GLU577     -0.2457
     37  N         24.1850   22.4380    8.2070 N.3   622  TYR622     -0.1241
     38  CA        25.4740   22.5880    8.8910 C.3   622  TYR622      0.1605
     39  C         26.5560   23.0000    7.8740 C.2   622  TYR622      0.2264
     40  O         27.2170   22.1540    7.2650 O.2   622  TYR622     -0.2867
     41  CB        25.8140   21.2690    9.6100 C.3   622  TYR622      0.0534
     42  CG        26.9530   21.2890   10.6200 C.ar  622  TYR622     -0.0201
     43  CD1       27.9250   22.3040   10.6280 C.ar  622  TYR622     -0.0009
     44  CD2       27.0890   20.2410   11.5370 C.ar  622  TYR622     -0.0009
     45  CE1       28.9730   22.2850   11.5360 C.ar  622  TYR622      0.0417
     46  CE2       28.1330   20.2110   12.4450 C.ar  622  TYR622      0.0417
     47  CZ        29.0730   21.2350   12.4460 C.ar  622  TYR622      0.1957
     48  OH        30.1090   21.2050   13.3580 O.3   622  TYR622     -0.2866
     49  N         38.7290   28.8070   10.2960 N.3   768  SER768     -0.1217
     50  CA        38.0780   28.3090   11.5050 C.3   768  SER768      0.1889
     51  C         39.0980   27.7110   12.4770 C.2   768  SER768      0.2288
     52  O         38.7580   27.4040   13.6210 O.2   768  SER768     -0.2866
     53  CB        37.0010   27.2740   11.1620 C.3   768  SER768      0.2089
     54  OG        37.5540   26.1100   10.5710 O.3   768  SER768     -0.2183
     55  N         36.0530   33.6810   19.6410 N.3   774  GLY774     -0.1210
     56  CA        34.9140   33.9400   18.7590 C.3   774  GLY774      0.1956
     57  C         34.3020   32.7040   18.1230 C.2   774  GLY774      0.2612
     58  O         35.0100   31.8060   17.6780 O.2   774  GLY774     -0.2717
     59  N         32.9750   32.6830   18.0640 N.am  775  TYR775     -0.1962
     60  CA        32.2180   31.5750   17.4830 C.3   775  TYR775      0.1771
     61  C         32.7010   31.2020   16.0820 C.2   775  TYR775      0.2620
     62  O         32.8710   32.0620   15.2290 O.2   775  TYR775     -0.2715
     63  CB        30.7440   31.9650   17.4160 C.3   775  TYR775      0.0574
     64  CG        29.8180   30.8140   17.1650 C.ar  775  TYR775     -0.0198
     65  CD1       29.4730   29.9490   18.1970 C.ar  775  TYR775     -0.0009
     66  CD2       29.2700   30.5940   15.9020 C.ar  775  TYR775     -0.0009
     67  CE1       28.6110   28.8900   17.9810 C.ar  775  TYR775      0.0417
     68  CE2       28.4130   29.5300   15.6740 C.ar  775  TYR775      0.0417
     69  CZ        28.0890   28.6840   16.7170 C.ar  775  TYR775      0.1957
     70  OH        27.2430   27.6310   16.5030 O.3   775  TYR775     -0.2866
     71  N         32.9320   29.9180   15.8520 N.am  776  GLY776     -0.1940
     72  CA        33.2980   29.4350   14.5210 C.3   776  GLY776      0.2014
     73  C         34.7680   29.5730   14.1820 C.2   776  GLY776      0.2638
     74  O         35.1910   29.2850   13.0620 O.2   776  GLY776     -0.2714
     75  N         35.5510   30.0140   15.1550 N.am  777  ARG777     -0.1977
     76  CA        36.9640   30.2570   14.9520 C.3   777  ARG777      0.1597
     77  C         37.7100   29.6760   16.1500 C.2   777  ARG777      0.2287
     78  O         37.1320   28.9170   16.9440 O.2   777  ARG777     -0.2864
     79  CB        37.2110   31.7690   14.8180 C.3   777  ARG777      0.0334
     80  CG        36.2930   32.4690   13.8140 C.3   777  ARG777      0.0492
     81  CD        36.3640   33.9900   13.8830 C.3   777  ARG777      0.2205
     82  NE        37.7360   34.4720   13.9990 N.pl3 777  ARG777     -0.0865
     83  CZ        38.6480   34.4300   13.0280 C.cat 777  ARG777      0.5346
     84  NH1       39.8720   34.8980   13.2610 N.pl3 777  ARG777      0.1354
     85  NH2       38.3570   33.9260   11.8290 N.pl3 777  ARG777      0.1354
     86  N         38.3460   25.5250   18.1370 N.3   780  TYR780     -0.1227
     87  CA        37.6950   25.0380   19.3380 C.3   780  TYR780      0.1736
     88  C         37.8450   23.5370   19.5400 C.2   780  TYR780      0.2595
     89  O         37.9340   23.0860   20.6720 O.2   780  TYR780     -0.2718
     90  CB        36.2250   25.4240   19.2890 C.3   780  TYR780      0.0548
     91  CG        35.3710   24.9200   20.4270 C.ar  780  TYR780     -0.0200
     92  CD1       35.2790   25.6240   21.6370 C.ar  780  TYR780     -0.0009
     93  CD2       34.6150   23.7540   20.2780 C.ar  780  TYR780     -0.0009
     94  CE1       34.4670   25.1640   22.6680 C.ar  780  TYR780      0.0417
     95  CE2       33.8030   23.2850   21.2970 C.ar  780  TYR780      0.0417
     96  CZ        33.7300   23.9870   22.4860 C.ar  780  TYR780      0.1957
     97  OH        32.9170   23.4830   23.4740 O.3   780  TYR780     -0.2866
     98  N         37.8950   22.7590   18.4630 N.am  781  PHE781     -0.1976
     99  CA        38.0540   21.2960   18.5800 C.3   781  PHE781      0.1639
    100  C         39.5150   20.8170   18.5360 C.2   781  PHE781      0.2290
    101  O         39.7830   19.6370   18.2900 O.2   781  PHE781     -0.2864
    102  CB        37.2350   20.6020   17.5020 C.3   781  PHE781      0.0560
    103  CG        35.7990   20.9870   17.5260 C.ar  781  PHE781     -0.0200
    104  CD1       34.8970   20.2900   18.2990 C.ar  781  PHE781     -0.0042
    105  CD2       35.3550   22.0790   16.8050 C.ar  781  PHE781     -0.0042
    106  CE1       33.5590   20.6540   18.3300 C.ar  781  PHE781     -0.0003
    107  CE2       34.0250   22.4540   16.8330 C.ar  781  PHE781     -0.0003
    108  CZ        33.1200   21.7380   17.5940 C.ar  781  PHE781     -0.0000
@<TRIPOS>BOND
     1    40    39    2
     2    39    38    1
     3    37    38    1
     4    38    41    1
     5    41    42    1
     6    49    50    1
     7    54    53    1
     8    42    43   ar
     9    42    44   ar
    10    43    45   ar
    11    53    50    1
    12    18    19    1
    13    50    51    1
    14    45    47   ar
    15    44    46   ar
    16    85    83    1
    17    19    20    1
    18    19    22    1
    19    33    34    1
    20    33    32    1
    21    46    47   ar
    22    47    48    1
    23    51    52    2
    24    21    20    2
    25    35    34   ar
    26    20    28   am
    27    34    36   ar
    28    28    29    1
    29    83    84    1
    30    83    82    2
    31    74    73    2
    32    29    32    1
    33    29    30    1
    34    22    23    1
    35    80    81    1
    36    80    79    1
    37    81    82    1
    38    73    72    1
    39    73    75   am
    40    23    25   ar
    41    23    24   ar
    42    31    30    2
    43    72    71    1
    44    79    76    1
    45    25    27   ar
    46    76    75    1
    47    76    77    1
    48    24    26   ar
    49    62    61    2
    50    68    66   ar
    51    68    69   ar
    52    26    27   ar
    53    71    61   am
    54    66    64   ar
    55    61    60    1
    56    77    78    2
    57    70    69    1
    58    69    67   ar
    59   105   107   ar
    60   105   103   ar
    61   107   108   ar
    62    64    63    1
    63    64    65   ar
    64    63    60    1
    65    60    59    1
    66   102   103    1
    67   102    99    1
    68   103   104   ar
    69   108   106   ar
    70    58    57    2
    71    67    65   ar
    72    16    15   ar
    73    59    57   am
    74    14    15    1
    75    14    13    1
    76    57    56    1
    77    86    87    1
    78   101   100    2
    79   104   106   ar
    80    15    17   ar
    81    98    99    1
    82    98    88   am
    83   100    99    1
    84    13    10    1
    85    56    55    1
    86    90    87    1
    87    90    91    1
    88    87    88    1
    89    88    89    2
    90    10    11    1
    91    10     9    1
    92    93    91   ar
    93    93    95   ar
    94    12    11    2
    95    91    92   ar
    96     7     6    1
    97     6     5    1
    98     6     8    1
    99    95    96   ar
   100     5     2    1
   101    92    94   ar
   102    96    94   ar
   103    96    97    1
   104     2     3    1
   105     2     1    1
   106     3     4    2
