@<TRIPOS>MOLECULE
tmp/5lraB03.pdb
 105 100 0 0 0
SMALL
GASTEIGER

@<TRIPOS>ATOM
      1  N         15.1600    7.3850   16.1500 N.3    67  GLU67      -0.1245
      2  CA        15.8910    6.6730   15.0960 C.3    67  GLU67       0.1567
      3  C         15.8360    5.1670   15.2450 C.2    67  GLU67       0.2260
      4  O         15.9290    4.6390   16.3540 O.2    67  GLU67      -0.2867
      5  CB        17.3760    7.0160   15.1240 C.3    67  GLU67       0.0388
      6  CG        17.7640    8.4470   14.8560 C.3    67  GLU67       0.1160
      7  CD        19.2580    8.6280   14.9950 C.2    67  GLU67       0.3649
      8  OE1       20.0200    7.7230   14.5990 O.co2  67  GLU67      -0.2457
      9  OE2       19.6790    9.6690   15.5190 O.co2  67  GLU67      -0.2457
     10  N         19.6190    7.5650   11.3020 N.3   112  ASN112     -0.1225
     11  CA        20.6740    8.4490   10.8510 C.3   112  ASN112      0.1785
     12  C         22.0240    7.9230   11.3370 C.2   112  ASN112      0.2598
     13  O         22.8480    7.4920   10.5280 O.2   112  ASN112     -0.2718
     14  CB        20.3660    9.8720   11.3610 C.3   112  ASN112      0.1169
     15  CG        21.4880   10.8660   11.1150 C.2   112  ASN112      0.2627
     16  OD1       21.5450   11.9150   11.7590 O.2   112  ASN112     -0.2716
     17  ND2       22.3690   10.5580   10.1820 N.am  112  ASN112     -0.0877
     18  N         22.2320    7.9190   12.6530 N.am  113  GLY113     -0.1942
     19  CA        23.5350    7.5840   13.2340 C.3   113  GLY113      0.2014
     20  C         23.5220    6.5520   14.3410 C.2   113  GLY113      0.2639
     21  O         22.7220    5.6280   14.3230 O.2   113  GLY113     -0.2714
     22  N         24.4250    6.7260   15.3020 N.am  114  GLY114     -0.1939
     23  CA        24.6870    5.7320   16.3460 C.3   114  GLY114      0.2014
     24  C         23.5120    5.3930   17.2420 C.2   114  GLY114      0.2638
     25  O         23.3100    4.2320   17.5960 O.2   114  GLY114     -0.2714
     26  N         22.7490    6.4170   17.6070 N.am  115  LEU115     -0.1977
     27  CA        21.5250    6.2700   18.4070 C.3   115  LEU115      0.1596
     28  C         20.5820    5.2560   17.8030 C.2   115  LEU115      0.2287
     29  O         20.0430    4.4110   18.4950 O.2   115  LEU115     -0.2864
     30  CB        20.7790    7.6030   18.4650 C.3   115  LEU115      0.0297
     31  CG        19.7460    7.8130   19.5710 C.3   115  LEU115      0.0022
     32  CD1       20.2020    8.9490   20.4720 C.3   115  LEU115      0.0001
     33  CD2       18.3800    8.1500   19.0050 C.3   115  LEU115      0.0001
     34  N         14.3850   14.2450   11.9310 N.3   261  TYR261     -0.1241
     35  CA        14.9850   15.4570   12.4760 C.3   261  TYR261      0.1605
     36  C         14.8490   16.6220   11.5010 C.2   261  TYR261      0.2264
     37  O         15.8450   17.1360   11.0190 O.2   261  TYR261     -0.2867
     38  CB        16.4640   15.2300   12.7910 C.3   261  TYR261      0.0534
     39  CG        16.7570   14.1350   13.7890 C.ar  261  TYR261     -0.0201
     40  CD1       16.0400   14.0410   14.9670 C.ar  261  TYR261     -0.0009
     41  CD2       17.7850   13.2200   13.5720 C.ar  261  TYR261     -0.0009
     42  CE1       16.3150   13.0560   15.8920 C.ar  261  TYR261      0.0417
     43  CE2       18.0680   12.2340   14.4940 C.ar  261  TYR261      0.0417
     44  CZ        17.3240   12.1560   15.6550 C.ar  261  TYR261      0.1957
     45  OH        17.5570   11.1860   16.6030 O.3   261  TYR261     -0.2866
     46  N         17.5660    9.2670   24.8590 N.3   315  ASP315     -0.1239
     47  CA        17.8260   10.7190   24.7680 C.3   315  ASP315      0.1674
     48  C         16.5710   11.5560   25.0940 C.2   315  ASP315      0.2266
     49  O         15.5840   11.0070   25.5620 O.2   315  ASP315     -0.2867
     50  CB        18.4250   11.0920   23.4080 C.3   315  ASP315      0.1410
     51  CG        19.5610   12.0890   23.5400 C.2   315  ASP315      0.3668
     52  OD1       19.2840   13.2600   23.8770 O.co2 315  ASP315     -0.2456
     53  OD2       20.7290   11.7020   23.3320 O.co2 315  ASP315     -0.2456
     54  N         14.3840   13.2840   23.1810 N.3   317  HIS317     -0.1241
     55  CA        13.2750   13.3970   22.2330 C.3   317  HIS317      0.1621
     56  C         11.9340   12.8890   22.8180 C.2   317  HIS317      0.2264
     57  O         10.9110   13.5640   22.6890 O.2   317  HIS317     -0.2867
     58  CB        13.6000   12.7020   20.8990 C.3   317  HIS317      0.0745
     59  CG        14.9500   13.0480   20.3460 C.ar  317  HIS317      0.0817
     60  ND1       16.0270   12.1920   20.4230 N.ar  317  HIS317     -0.2268
     61  CD2       15.3970   14.1600   19.7190 C.ar  317  HIS317      0.1154
     62  CE1       17.0800   12.7620   19.8650 C.ar  317  HIS317      0.1986
     63  NE2       16.7230   13.9570   19.4280 N.ar  317  HIS317     -0.2212
     64  N         22.7730   10.0370   25.5280 N.3   353  HIS353     -0.1226
     65  CA        23.6700    9.5590   24.4510 C.3   353  HIS353      0.1752
     66  C         24.7310   10.5080   23.9450 C.2   353  HIS353      0.2596
     67  O         25.5980   10.0850   23.1840 O.2   353  HIS353     -0.2718
     68  CB        22.8610    9.1360   23.2500 C.3   353  HIS353      0.0759
     69  CG        21.9920    7.9700   23.5240 C.ar  353  HIS353      0.0818
     70  ND1       22.3290    6.6940   23.1430 N.ar  353  HIS353     -0.2268
     71  CD2       20.8120    7.8780   24.1750 C.ar  353  HIS353      0.1154
     72  CE1       21.3790    5.8650   23.5270 C.ar  353  HIS353      0.1986
     73  NE2       20.4480    6.5590   24.1540 N.ar  353  HIS353     -0.2212
     74  N         24.6330   11.7820   24.3010 N.am  354  THR354     -0.1953
     75  CA        25.7220   12.7260   24.0760 C.3   354  THR354      0.1897
     76  C         25.5950   13.8520   25.0830 C.2   354  THR354      0.2313
     77  O         24.5200   14.0860   25.6520 O.2   354  THR354     -0.2863
     78  CB        25.7600   13.3320   22.6360 C.3   354  THR354      0.1794
     79  OG1       24.4350   13.6270   22.1860 O.3   354  THR354     -0.2208
     80  CG2       26.4490   12.4020   21.6260 C.3   354  THR354      0.0378
     81  N         22.5270   19.8990   20.8690 N.3   358  GLU358     -0.1231
     82  CA        21.4120   19.5450   19.9940 C.3   358  GLU358      0.1699
     83  C         20.6580   18.3230   20.5580 C.2   358  GLU358      0.2592
     84  O         19.4540   18.1620   20.3260 O.2   358  GLU358     -0.2718
     85  CB        21.9070   19.2770   18.5620 C.3   358  GLU358      0.0402
     86  CG        23.1090   20.1090   18.0980 C.3   358  GLU358      0.1161
     87  CD        22.9630   21.6130   18.3230 C.2   358  GLU358      0.3649
     88  OE1       21.8870   22.1660   18.0230 O.co2 358  GLU358     -0.2457
     89  OE2       23.9410   22.2500   18.7750 O.co2 358  GLU358     -0.2457
     90  N         21.3820   17.4830   21.3050 N.am  359  ALA359     -0.1980
     91  CA        20.8470   16.2640   21.9130 C.3   359  ALA359      0.1597
     92  C         20.0280   16.4870   23.1880 C.2   359  ALA359      0.2287
     93  O         19.0410   15.7810   23.4000 O.2   359  ALA359     -0.2864
     94  CB        21.9850   15.2970   22.2000 C.3   359  ALA359      0.0319
     95  N         29.1370   10.4700   10.9570 N.3   574  ARG574     -0.1245
     96  CA        28.4580   11.7200   10.6660 C.3   574  ARG574      0.1563
     97  C         29.5020   12.8200   10.5490 C.2   574  ARG574      0.2260
     98  O         30.4450   12.8510   11.3200 O.2   574  ARG574     -0.2867
     99  CB        27.4460   12.0480   11.7660 C.3   574  ARG574      0.0307
    100  CG        26.1870   11.1750   11.7360 C.3   574  ARG574      0.0489
    101  CD        25.2220   11.4960   12.8760 C.3   574  ARG574      0.2205
    102  NE        25.8900   11.4450   14.1830 N.pl3 574  ARG574     -0.0865
    103  CZ        26.0480   12.4690   15.0240 C.cat 574  ARG574      0.5346
    104  NH1       26.6870   12.2510   16.1660 N.pl3 574  ARG574      0.1354
    105  NH2       25.5730   13.6930   14.7620 N.pl3 574  ARG574      0.1354
@<TRIPOS>BOND
     1    17    15   am
     2    13    12    2
     3    97    96    1
     4    97    98    2
     5    96    95    1
     6    96    99    1
     7    11    10    1
     8    11    12    1
     9    11    14    1
    10    37    36    2
    11    15    14    1
    12    15    16    2
    13    12    18   am
    14    36    35    1
    15   100    99    1
    16   100   101    1
    17    34    35    1
    18    35    38    1
    19    18    19    1
    20    38    39    1
    21   101   102    1
    22    19    20    1
    23    41    39   ar
    24    41    43   ar
    25    39    40   ar
    26   102   103    2
    27    21    20    2
    28    20    22   am
    29    43    44   ar
    30     8     7   ar
    31   105   103    1
    32     6     7    1
    33     6     5    1
    34    40    42   ar
    35     7     9   ar
    36   103   104    1
    37     2     5    1
    38     2     3    1
    39     2     1    1
    40     3     4    2
    41    22    23    1
    42    44    42   ar
    43    44    45    1
    44    23    24    1
    45    24    25    2
    46    24    26   am
    47    26    27    1
    48    28    27    1
    49    28    29    2
    50    88    87   ar
    51    86    87    1
    52    86    85    1
    53    87    89   ar
    54    27    30    1
    55    30    31    1
    56    85    82    1
    57    33    31    1
    58    63    61   ar
    59    63    62   ar
    60    31    32    1
    61    61    59   ar
    62    62    60   ar
    63    82    83    1
    64    82    81    1
    65    84    83    2
    66    59    60   ar
    67    59    58    1
    68    83    90   am
    69    58    55    1
    70    90    91    1
    71    80    78    1
    72    91    94    1
    73    91    92    1
    74    79    78    1
    75    55    56    1
    76    55    54    1
    77    78    75    1
    78    57    56    2
    79    70    69   ar
    80    70    72   ar
    81    67    66    2
    82    92    93    2
    83    68    69    1
    84    68    65    1
    85    53    51   ar
    86    50    51    1
    87    50    47    1
    88    69    71   ar
    89    72    73   ar
    90    51    52   ar
    91    66    74   am
    92    66    65    1
    93    75    74    1
    94    75    76    1
    95    73    71   ar
    96    65    64    1
    97    47    46    1
    98    47    48    1
    99    76    77    2
   100    48    49    2
