@<TRIPOS>MOLECULE
tmp/5lraB02.pdb
 115 107 0 0 0
SMALL
GASTEIGER

@<TRIPOS>ATOM
      1  N         15.1600    7.3850   16.1500 N.3    67  GLU67      -0.1245
      2  CA        15.8910    6.6730   15.0960 C.3    67  GLU67       0.1567
      3  C         15.8360    5.1670   15.2450 C.2    67  GLU67       0.2260
      4  O         15.9290    4.6390   16.3540 O.2    67  GLU67      -0.2867
      5  CB        17.3760    7.0160   15.1240 C.3    67  GLU67       0.0388
      6  CG        17.7640    8.4470   14.8560 C.3    67  GLU67       0.1160
      7  CD        19.2580    8.6280   14.9950 C.2    67  GLU67       0.3649
      8  OE1       20.0200    7.7230   14.5990 O.co2  67  GLU67      -0.2457
      9  OE2       19.6790    9.6690   15.5190 O.co2  67  GLU67      -0.2457
     10  N         19.6190    7.5650   11.3020 N.3   112  ASN112     -0.1225
     11  CA        20.6740    8.4490   10.8510 C.3   112  ASN112      0.1785
     12  C         22.0240    7.9230   11.3370 C.2   112  ASN112      0.2597
     13  O         22.8480    7.4920   10.5280 O.2   112  ASN112     -0.2718
     14  CB        20.3660    9.8720   11.3610 C.3   112  ASN112      0.1169
     15  CG        21.4880   10.8660   11.1150 C.2   112  ASN112      0.2627
     16  OD1       21.5450   11.9150   11.7590 O.2   112  ASN112     -0.2716
     17  ND2       22.3690   10.5580   10.1820 N.am  112  ASN112     -0.0877
     18  N         22.2320    7.9190   12.6530 N.am  113  GLY113     -0.1957
     19  CA        23.5350    7.5840   13.2340 C.3   113  GLY113      0.1869
     20  C         23.5220    6.5520   14.3410 C.2   113  GLY113      0.2309
     21  O         22.7220    5.6280   14.3230 O.2   113  GLY113     -0.2863
     22  N         22.7490    6.4170   17.6070 N.3   115  LEU115     -0.1245
     23  CA        21.5250    6.2700   18.4070 C.3   115  LEU115      0.1561
     24  C         20.5820    5.2560   17.8030 C.2   115  LEU115      0.2260
     25  O         20.0430    4.4110   18.4950 O.2   115  LEU115     -0.2867
     26  CB        20.7790    7.6030   18.4650 C.3   115  LEU115      0.0270
     27  CG        19.7460    7.8130   19.5710 C.3   115  LEU115      0.0019
     28  CD1       20.2020    8.9490   20.4720 C.3   115  LEU115      0.0001
     29  CD2       18.3800    8.1500   19.0050 C.3   115  LEU115      0.0001
     30  N         14.3850   14.2450   11.9310 N.3   261  TYR261     -0.1241
     31  CA        14.9850   15.4570   12.4760 C.3   261  TYR261      0.1605
     32  C         14.8490   16.6220   11.5010 C.2   261  TYR261      0.2264
     33  O         15.8450   17.1360   11.0190 O.2   261  TYR261     -0.2867
     34  CB        16.4640   15.2300   12.7910 C.3   261  TYR261      0.0534
     35  CG        16.7570   14.1350   13.7890 C.ar  261  TYR261     -0.0201
     36  CD1       16.0400   14.0410   14.9670 C.ar  261  TYR261     -0.0009
     37  CD2       17.7850   13.2200   13.5720 C.ar  261  TYR261     -0.0009
     38  CE1       16.3150   13.0560   15.8920 C.ar  261  TYR261      0.0417
     39  CE2       18.0680   12.2340   14.4940 C.ar  261  TYR261      0.0417
     40  CZ        17.3240   12.1560   15.6550 C.ar  261  TYR261      0.1957
     41  OH        17.5570   11.1860   16.6030 O.3   261  TYR261     -0.2866
     42  N         14.9290   22.8770   12.1050 N.3   264  ASP264     -0.1239
     43  CA        14.1270   23.5380   13.1350 C.3   264  ASP264      0.1674
     44  C         14.5920   24.9520   13.5120 C.2   264  ASP264      0.2266
     45  O         14.3200   25.4080   14.6140 O.2   264  ASP264     -0.2867
     46  CB        14.0940   22.6540   14.3860 C.3   264  ASP264      0.1410
     47  CG        15.4390   22.5970   15.1100 C.2   264  ASP264      0.3668
     48  OD1       16.4600   23.0190   14.5160 O.co2 264  ASP264     -0.2456
     49  OD2       15.4690   22.1320   16.2780 O.co2 264  ASP264     -0.2456
     50  N          9.0250   19.4990   14.8300 N.3   273  ARG273     -0.1245
     51  CA         9.9590   18.7250   15.6210 C.3   273  ARG273      0.1563
     52  C          9.2350   18.2220   16.8900 C.2   273  ARG273      0.2260
     53  O          9.3540   17.0560   17.2630 O.2   273  ARG273     -0.2867
     54  CB        11.1810   19.6040   15.9420 C.3   273  ARG273      0.0307
     55  CG        12.4680   18.8740   16.2690 C.3   273  ARG273      0.0489
     56  CD        13.0210   18.0970   15.0790 C.3   273  ARG273      0.2205
     57  NE        14.1570   18.7100   14.3700 N.pl3 273  ARG273     -0.0865
     58  CZ        15.4020   18.7970   14.8340 C.cat 273  ARG273      0.5346
     59  NH1       16.3490   19.3380   14.0760 N.pl3 273  ARG273      0.1354
     60  NH2       15.7010   18.3630   16.0520 N.pl3 273  ARG273      0.1354
     61  N         14.3840   13.2840   23.1810 N.3   317  HIS317     -0.1241
     62  CA        13.2750   13.3970   22.2330 C.3   317  HIS317      0.1621
     63  C         11.9340   12.8890   22.8180 C.2   317  HIS317      0.2264
     64  O         10.9110   13.5640   22.6890 O.2   317  HIS317     -0.2867
     65  CB        13.6000   12.7020   20.8990 C.3   317  HIS317      0.0745
     66  CG        14.9500   13.0480   20.3460 C.ar  317  HIS317      0.0817
     67  ND1       16.0270   12.1920   20.4230 N.ar  317  HIS317     -0.2268
     68  CD2       15.3970   14.1600   19.7190 C.ar  317  HIS317      0.1154
     69  CE1       17.0800   12.7620   19.8650 C.ar  317  HIS317      0.1986
     70  NE2       16.7230   13.9570   19.4280 N.ar  317  HIS317     -0.2212
     71  N         22.5270   19.8990   20.8690 N.3   358  GLU358     -0.1231
     72  CA        21.4120   19.5450   19.9940 C.3   358  GLU358      0.1699
     73  C         20.6580   18.3230   20.5580 C.2   358  GLU358      0.2592
     74  O         19.4540   18.1620   20.3260 O.2   358  GLU358     -0.2718
     75  CB        21.9070   19.2770   18.5620 C.3   358  GLU358      0.0402
     76  CG        23.1090   20.1090   18.0980 C.3   358  GLU358      0.1161
     77  CD        22.9630   21.6130   18.3230 C.2   358  GLU358      0.3649
     78  OE1       21.8870   22.1660   18.0230 O.co2 358  GLU358     -0.2457
     79  OE2       23.9410   22.2500   18.7750 O.co2 358  GLU358     -0.2457
     80  N         21.3820   17.4830   21.3050 N.am  359  ALA359     -0.1980
     81  CA        20.8470   16.2640   21.9130 C.3   359  ALA359      0.1597
     82  C         20.0280   16.4870   23.1880 C.2   359  ALA359      0.2287
     83  O         19.0410   15.7810   23.4000 O.2   359  ALA359     -0.2864
     84  CB        21.9850   15.2970   22.2000 C.3   359  ALA359      0.0319
     85  N         17.6540   18.9440   24.7860 N.3   361  GLU361     -0.1245
     86  CA        16.8700   20.0360   24.2560 C.3   361  GLU361      0.1567
     87  C         16.3410   20.9870   25.3100 C.2   361  GLU361      0.2260
     88  O         16.0830   20.6130   26.4500 O.2   361  GLU361     -0.2867
     89  CB        15.6850   19.4800   23.4710 C.3   361  GLU361      0.0388
     90  CG        16.0690   18.6160   22.2790 C.3   361  GLU361      0.1160
     91  CD        14.9950   17.6110   21.9060 C.2   361  GLU361      0.3649
     92  OE1       15.2630   16.7640   21.0400 O.co2 361  GLU361     -0.2457
     93  OE2       13.8860   17.6510   22.4790 O.co2 361  GLU361     -0.2457
     94  N         29.1370   10.4700   10.9570 N.3   574  ARG574     -0.1245
     95  CA        28.4580   11.7200   10.6660 C.3   574  ARG574      0.1563
     96  C         29.5020   12.8200   10.5490 C.2   574  ARG574      0.2260
     97  O         30.4450   12.8510   11.3200 O.2   574  ARG574     -0.2867
     98  CB        27.4460   12.0480   11.7660 C.3   574  ARG574      0.0307
     99  CG        26.1870   11.1750   11.7360 C.3   574  ARG574      0.0489
    100  CD        25.2220   11.4960   12.8760 C.3   574  ARG574      0.2205
    101  NE        25.8900   11.4450   14.1830 N.pl3 574  ARG574     -0.0865
    102  CZ        26.0480   12.4690   15.0240 C.cat 574  ARG574      0.5346
    103  NH1       26.6870   12.2510   16.1660 N.pl3 574  ARG574      0.1354
    104  NH2       25.5730   13.6930   14.7620 N.pl3 574  ARG574      0.1354
    105  N         24.8060   17.3030    8.2340 N.3   619  PHE619     -0.1241
    106  CA        23.4470   17.7820    8.3910 C.3   619  PHE619      0.1605
    107  C         23.2830   18.9050    7.3760 C.2   619  PHE619      0.2264
    108  O         24.1910   19.7230    7.1930 O.2   619  PHE619     -0.2867
    109  CB        23.1490   18.2410    9.8220 C.3   619  PHE619      0.0534
    110  CG        21.6720   18.3690   10.1210 C.ar  619  PHE619     -0.0203
    111  CD1       20.9020   17.2390   10.4150 C.ar  619  PHE619     -0.0042
    112  CD2       21.0460   19.6240   10.1000 C.ar  619  PHE619     -0.0042
    113  CE1       19.5460   17.3560   10.6880 C.ar  619  PHE619     -0.0003
    114  CE2       19.6850   19.7460   10.3720 C.ar  619  PHE619     -0.0003
    115  CZ        18.9380   18.6090   10.6680 C.ar  619  PHE619     -0.0000
@<TRIPOS>BOND
     1   108   107    2
     2   107   106    1
     3   105   106    1
     4   106   109    1
     5   109   110    1
     6   112   110   ar
     7   112   114   ar
     8   110   111   ar
     9    17    15   am
    10   114   115   ar
    11   111   113   ar
    12    13    12    2
    13    96    95    1
    14    96    97    2
    15    95    94    1
    16    95    98    1
    17   115   113   ar
    18    11    10    1
    19    11    12    1
    20    11    14    1
    21    33    32    2
    22    15    14    1
    23    15    16    2
    24    12    18   am
    25    32    31    1
    26    99    98    1
    27    99   100    1
    28    30    31    1
    29    42    43    1
    30    31    34    1
    31    18    19    1
    32    34    35    1
    33   100   101    1
    34    43    44    1
    35    43    46    1
    36    19    20    1
    37    44    45    2
    38    37    35   ar
    39    37    39   ar
    40    35    36   ar
    41    59    58    1
    42   101   102    2
    43    21    20    2
    44    57    58    2
    45    57    56    1
    46    46    47    1
    47    39    40   ar
    48    48    47   ar
    49     8     7   ar
    50   104   102    1
    51    50    51    1
    52    58    60    1
    53     6     7    1
    54     6     5    1
    55    36    38   ar
    56     7     9   ar
    57   102   103    1
    58    56    55    1
    59     2     5    1
    60     2     3    1
    61     2     1    1
    62    47    49   ar
    63     3     4    2
    64    51    54    1
    65    51    52    1
    66    40    38   ar
    67    40    41    1
    68    54    55    1
    69    52    53    2
    70    22    23    1
    71    24    23    1
    72    24    25    2
    73    78    77   ar
    74    76    77    1
    75    76    75    1
    76    77    79   ar
    77    23    26    1
    78    26    27    1
    79    75    72    1
    80    29    27    1
    81    70    68   ar
    82    70    69   ar
    83    27    28    1
    84    68    66   ar
    85    69    67   ar
    86    72    73    1
    87    72    71    1
    88    74    73    2
    89    66    67   ar
    90    66    65    1
    91    73    80   am
    92    65    62    1
    93    92    91   ar
    94    80    81    1
    95    91    90    1
    96    91    93   ar
    97    81    84    1
    98    81    82    1
    99    62    63    1
   100    62    61    1
   101    90    89    1
   102    64    63    2
   103    82    83    2
   104    89    86    1
   105    86    85    1
   106    86    87    1
   107    87    88    2
