@<TRIPOS>MOLECULE
tmp/5lrbB00.pdb
 112 106 0 0 0
SMALL
GASTEIGER

@<TRIPOS>ATOM
      1  N         22.0810    7.9930   12.8580 N.3   113  GLY113     -0.1210
      2  CA        23.3690    7.7460   13.4990 C.3   113  GLY113      0.1956
      3  C         23.3240    6.7110   14.6040 C.2   113  GLY113      0.2612
      4  O         22.4110    5.8990   14.6670 O.2   113  GLY113     -0.2717
      5  N         24.3250    6.7590   15.4790 N.am  114  GLY114     -0.1942
      6  CA        24.5020    5.7850   16.5550 C.3   114  GLY114      0.2014
      7  C         23.2830    5.5430   17.4240 C.2   114  GLY114      0.2638
      8  O         22.9840    4.4030   17.7530 O.2   114  GLY114     -0.2714
      9  N         22.5830    6.6190   17.7830 N.am  115  LEU115     -0.1977
     10  CA        21.3730    6.5620   18.6260 C.3   115  LEU115      0.1596
     11  C         20.4070    5.5110   18.1170 C.2   115  LEU115      0.2287
     12  O         19.8300    4.7590   18.8950 O.2   115  LEU115     -0.2864
     13  CB        20.6460    7.9110   18.6140 C.3   115  LEU115      0.0297
     14  CG        20.0680    8.4480   19.9260 C.3   115  LEU115      0.0022
     15  CD1       20.9600    9.5640   20.4780 C.3   115  LEU115      0.0001
     16  CD2       18.6490    8.9700   19.7200 C.3   115  LEU115      0.0001
     17  N         22.1970    1.7430   17.7200 N.3   118  LEU118     -0.1245
     18  CA        22.1810    1.1390   19.0510 C.3   118  LEU118      0.1561
     19  C         20.8110    0.5140   19.3040 C.2   118  LEU118      0.2260
     20  O         20.7150   -0.6630   19.6710 O.2   118  LEU118     -0.2867
     21  CB        22.4810    2.1890   20.1320 C.3   118  LEU118      0.0270
     22  CG        22.6030    1.7010   21.5800 C.3   118  LEU118      0.0019
     23  CD1       23.9110    0.9560   21.7650 C.3   118  LEU118      0.0001
     24  CD2       22.5290    2.8610   22.5540 C.3   118  LEU118      0.0001
     25  N         22.9840   10.2960   26.0380 N.3   353  HIS353     -0.1241
     26  CA        24.0900   10.0060   25.1230 C.3   353  HIS353      0.1621
     27  C         25.0690   11.1750   24.8760 C.2   353  HIS353      0.2264
     28  O         25.9650   11.0440   24.0440 O.2   353  HIS353     -0.2867
     29  CB        23.5370    9.5430   23.7790 C.3   353  HIS353      0.0745
     30  CG        22.5280    8.4450   23.8790 C.ar  353  HIS353      0.0817
     31  ND1       22.8130    7.1380   23.5470 N.ar  353  HIS353     -0.2268
     32  CD2       21.2260    8.4640   24.2500 C.ar  353  HIS353      0.1154
     33  CE1       21.7310    6.3990   23.7120 C.ar  353  HIS353      0.1986
     34  NE2       20.7530    7.1810   24.1370 N.ar  353  HIS353     -0.2212
     35  N         26.4510    5.7920   28.7740 N.3   459  VAL459     -0.1245
     36  CA        26.7290    4.7640   27.7630 C.3   459  VAL459      0.1561
     37  C         28.2070    4.3220   27.7150 C.2   459  VAL459      0.2260
     38  O         28.6310    3.6030   26.8070 O.2   459  VAL459     -0.2867
     39  CB        26.2730    5.2610   26.3720 C.3   459  VAL459      0.0252
     40  CG1       24.7570    5.4060   26.3390 C.3   459  VAL459      0.0019
     41  CG2       26.9420    6.5830   26.0070 C.3   459  VAL459      0.0019
     42  N         27.7170    0.6410   25.9680 N.3   488  ASN488     -0.1240
     43  CA        27.0620    0.1930   24.7480 C.3   488  ASN488      0.1653
     44  C         27.6570   -1.0970   24.2400 C.2   488  ASN488      0.2266
     45  O         28.6590   -1.5860   24.7580 O.2   488  ASN488     -0.2867
     46  CB        27.1420    1.2670   23.6560 C.3   488  ASN488      0.1155
     47  CG        26.2390    2.4530   23.9350 C.2   488  ASN488      0.2627
     48  OD1       26.4530    3.5470   23.4060 O.2   488  ASN488     -0.2716
     49  ND2       25.2150    2.2450   24.7630 N.am  488  ASN488     -0.0877
     50  N         29.5850   10.6800   11.0000 N.3   574  ARG574     -0.1245
     51  CA        28.9970   12.0070   10.7990 C.3   574  ARG574      0.1563
     52  C         30.0770   13.0610   10.5970 C.2   574  ARG574      0.2260
     53  O         31.0190   13.1370   11.3780 O.2   574  ARG574     -0.2867
     54  CB        28.1510   12.3830   12.0240 C.3   574  ARG574      0.0307
     55  CG        27.3820   13.6970   11.9080 C.3   574  ARG574      0.0489
     56  CD        27.1910   14.3670   13.2660 C.3   574  ARG574      0.2205
     57  NE        26.4150   13.5540   14.1940 N.pl3 574  ARG574     -0.0865
     58  CZ        26.3840   13.7540   15.5050 C.cat 574  ARG574      0.5346
     59  NH1       27.0900   14.7310   16.0490 N.pl3 574  ARG574      0.1354
     60  NH2       25.6510   12.9710   16.2740 N.pl3 574  ARG574      0.1354
     61  N         34.1470   18.6740   15.2120 N.3   578  TYR578     -0.1227
     62  CA        34.6200   18.0410   16.4510 C.3   578  TYR578      0.1736
     63  C         35.0500   16.5880   16.2550 C.2   578  TYR578      0.2595
     64  O         35.9050   16.1050   16.9870 O.2   578  TYR578     -0.2718
     65  CB        33.5890   18.1680   17.5980 C.3   578  TYR578      0.0548
     66  CG        32.6580   16.9860   17.8100 C.ar  578  TYR578     -0.0200
     67  CD1       33.0830   15.8440   18.4800 C.ar  578  TYR578     -0.0009
     68  CD2       31.3390   17.0320   17.3760 C.ar  578  TYR578     -0.0009
     69  CE1       32.2260   14.7700   18.6770 C.ar  578  TYR578      0.0417
     70  CE2       30.4750   15.9670   17.5690 C.ar  578  TYR578      0.0417
     71  CZ        30.9160   14.8390   18.2180 C.ar  578  TYR578      0.1957
     72  OH        30.0440   13.7840   18.4020 O.3   578  TYR578     -0.2866
     73  N         34.4670   15.8960   15.2810 N.am  579  LYS579     -0.1980
     74  CA        34.8880   14.5350   14.9480 C.3   579  LYS579      0.1596
     75  C         36.2590   14.5500   14.2790 C.2   579  LYS579      0.2287
     76  O         36.9890   13.5480   14.2870 O.2   579  LYS579     -0.2864
     77  CB        33.8620   13.8910   14.0250 C.3   579  LYS579      0.0298
     78  CG        32.4790   13.7900   14.6410 C.3   579  LYS579      0.0038
     79  CD        32.0810   12.3530   14.9190 C.3   579  LYS579      0.0206
     80  CE        31.0430   12.2960   16.0210 C.3   579  LYS579      0.1093
     81  NZ        30.2190   11.0570   16.0020 N.3   579  LYS579     -0.1314
     82  N         33.2010   12.7200   22.8420 N.3   681  GLU681     -0.1231
     83  CA        32.4020   11.5610   22.4880 C.3   681  GLU681      0.1699
     84  C         31.9790   10.8560   23.7740 C.2   681  GLU681      0.2592
     85  O         32.7890   10.6980   24.7000 O.2   681  GLU681     -0.2718
     86  CB        33.2070   10.6100   21.6050 C.3   681  GLU681      0.0402
     87  CG        32.3790    9.9010   20.5530 C.3   681  GLU681      0.1161
     88  CD        32.0710   10.8130   19.3950 C.2   681  GLU681      0.3649
     89  OE1       30.8760   10.9810   19.0530 O.co2 681  GLU681     -0.2457
     90  OE2       33.0390   11.3850   18.8480 O.co2 681  GLU681     -0.2457
     91  N         30.7140   10.4430   23.8370 N.am  682  ALA682     -0.1966
     92  CA        30.2150    9.6980   24.9910 C.3   682  ALA682      0.1728
     93  C         30.5810    8.2190   24.8760 C.2   682  ALA682      0.2617
     94  O         31.0780    7.6370   25.8350 O.2   682  ALA682     -0.2715
     95  CB        28.7140    9.8680   25.1340 C.3   682  ALA682      0.0334
     96  N         30.3510    7.6190   23.7050 N.am  683  SER683     -0.1936
     97  CA        30.7070    6.2130   23.4780 C.3   683  SER683      0.2055
     98  C         31.2930    5.9860   22.0890 C.2   683  SER683      0.2644
     99  O         32.5080    6.0640   21.9160 O.2   683  SER683     -0.2714
    100  CB        29.5070    5.2800   23.7210 C.3   683  SER683      0.2130
    101  OG        29.7580    3.9670   23.2260 O.3   683  SER683     -0.2179
    102  N         30.4240    5.7140   21.1160 N.am  684  GLY684     -0.1939
    103  CA        30.8360    5.2720   19.7770 C.3   684  GLY684      0.2014
    104  C         30.5880    3.7800   19.6180 C.2   684  GLY684      0.2639
    105  O         31.1410    2.9670   20.3610 O.2   684  GLY684     -0.2714
    106  N         29.7420    3.4100   18.6660 N.am  685  THR685     -0.1950
    107  CA        29.4460    2.0030   18.4430 C.3   685  THR685      0.1897
    108  C         30.2560    1.4280   17.2930 C.2   685  THR685      0.2313
    109  O         30.5630    0.2440   17.3110 O.2   685  THR685     -0.2863
    110  CB        27.9380    1.7370   18.2310 C.3   685  THR685      0.1794
    111  OG1       27.4030    2.6050   17.2240 O.3   685  THR685     -0.2208
    112  CG2       27.1910    1.9560   19.5270 C.3   685  THR685      0.0378
@<TRIPOS>BOND
     1    52    51    1
     2    52    53    2
     3    51    50    1
     4    51    54    1
     5    55    54    1
     6    55    56    1
     7     1     2    1
     8    56    57    1
     9     2     3    1
    10    77    78    1
    11    77    74    1
    12    57    58    2
    13    75    76    2
    14    75    74    1
    15     3     4    2
    16     3     5   am
    17    78    79    1
    18    79    80    1
    19    74    73    1
    20    61    62    1
    21    73    63   am
    22     5     6    1
    23    58    59    1
    24    58    60    1
    25    81    80    1
    26    63    62    1
    27    63    64    2
    28    62    65    1
    29     6     7    1
    30   111   110    1
    31   108   109    2
    32   108   107    1
    33    68    70   ar
    34    68    66   ar
    35     7     8    2
    36     7     9   am
    37    70    71   ar
    38    65    66    1
    39    17    18    1
    40     9    10    1
    41    66    67   ar
    42    11    10    1
    43    11    12    2
    44    71    72    1
    45    71    69   ar
    46   110   107    1
    47   110   112    1
    48   107   106    1
    49    67    69   ar
    50    13    10    1
    51    13    14    1
    52   106   104   am
    53    90    88   ar
    54    18    19    1
    55    18    21    1
    56    89    88   ar
    57    19    20    2
    58    88    87    1
    59   104   103    1
    60   104   105    2
    61    16    14    1
    62   103   102    1
    63    14    15    1
    64    21    22    1
    65    87    86    1
    66   102    98   am
    67    22    23    1
    68    22    24    1
    69    86    83    1
    70    99    98    2
    71    98    97    1
    72    83    82    1
    73    83    84    1
    74   101   100    1
    75    48    47    2
    76    97    96    1
    77    97   100    1
    78    31    33   ar
    79    31    30   ar
    80    46    47    1
    81    46    43    1
    82    96    93   am
    83    33    34   ar
    84    84    91   am
    85    84    85    2
    86    29    30    1
    87    29    26    1
    88    91    92    1
    89    30    32   ar
    90    47    49   am
    91    28    27    2
    92    34    32   ar
    93    44    43    1
    94    44    45    2
    95    43    42    1
    96    93    92    1
    97    93    94    2
    98    27    26    1
    99    92    95    1
   100    26    25    1
   101    41    39    1
   102    40    39    1
   103    39    36    1
   104    38    37    2
   105    37    36    1
   106    36    35    1
