@<TRIPOS>MOLECULE
tmp/5lrbB02.pdb
 149 145 0 0 0
SMALL
GASTEIGER

@<TRIPOS>ATOM
      1  N         15.0630   25.7910   12.7100 N.3   265  GLU265     -0.1245
      2  CA        15.4290   27.2050   12.8250 C.3   265  GLU265      0.1567
      3  C         14.2400   28.1220   12.5020 C.2   265  GLU265      0.2260
      4  O         14.4080   29.3180   12.3370 O.2   265  GLU265     -0.2867
      5  CB        16.6170   27.5260   11.9120 C.3   265  GLU265      0.0388
      6  CG        17.9030   26.8110   12.3120 C.3   265  GLU265      0.1160
      7  CD        19.1000   27.2100   11.4590 C.2   265  GLU265      0.3649
      8  OE1       19.2710   28.4220   11.1840 O.co2 265  GLU265     -0.2457
      9  OE2       19.8790   26.3080   11.0670 O.co2 265  GLU265     -0.2457
     10  N         28.2510   16.9920   26.6560 N.3   356  LEU356     -0.1245
     11  CA        28.0920   18.4570   26.7970 C.3   356  LEU356      0.1561
     12  C         26.7580   18.8060   27.4890 C.2   356  LEU356      0.2260
     13  O         25.7060   18.3180   27.0570 O.2   356  LEU356     -0.2867
     14  CB        28.1860   19.1630   25.4200 C.3   356  LEU356      0.0270
     15  CG        29.4900   19.8810   25.0100 C.3   356  LEU356      0.0019
     16  CD1       29.7300   21.1250   25.8550 C.3   356  LEU356      0.0001
     17  CD2       30.7050   18.9640   25.0720 C.3   356  LEU356      0.0001
     18  N         25.0860   21.7070   27.5880 N.3   358  GLU358     -0.1245
     19  CA        24.1930   22.6060   26.8230 C.3   358  GLU358      0.1567
     20  C         23.9180   22.0780   25.4030 C.2   358  GLU358      0.2260
     21  O         23.6240   22.8540   24.4910 O.2   358  GLU358     -0.2867
     22  CB        24.7130   24.0600   26.7990 C.3   358  GLU358      0.0388
     23  CG        26.1980   24.2250   26.5020 C.3   358  GLU358      0.1160
     24  CD        27.0480   24.2010   27.7560 C.2   358  GLU358      0.3649
     25  OE1       26.8120   25.0550   28.6370 O.co2 358  GLU358     -0.2457
     26  OE2       27.9430   23.3290   27.8610 O.co2 358  GLU358     -0.2457
     27  N         29.5850   10.6800   11.0000 N.3   574  ARG574     -0.1245
     28  CA        28.9970   12.0070   10.7990 C.3   574  ARG574      0.1563
     29  C         30.0770   13.0610   10.5970 C.2   574  ARG574      0.2260
     30  O         31.0190   13.1370   11.3780 O.2   574  ARG574     -0.2867
     31  CB        28.1510   12.3830   12.0240 C.3   574  ARG574      0.0307
     32  CG        27.3820   13.6970   11.9080 C.3   574  ARG574      0.0489
     33  CD        27.1910   14.3670   13.2660 C.3   574  ARG574      0.2205
     34  NE        26.4150   13.5540   14.1940 N.pl3 574  ARG574     -0.0865
     35  CZ        26.3840   13.7540   15.5050 C.cat 574  ARG574      0.5346
     36  NH1       27.0900   14.7310   16.0490 N.pl3 574  ARG574      0.1354
     37  NH2       25.6510   12.9710   16.2740 N.pl3 574  ARG574      0.1354
     38  N         31.7210   16.3790   11.0480 N.3   576  HIS576     -0.1226
     39  CA        31.6060   17.4180   12.0570 C.3   576  HIS576      0.1752
     40  C         32.9910   17.9420   12.3860 C.2   576  HIS576      0.2595
     41  O         33.9550   17.1870   12.3940 O.2   576  HIS576     -0.2718
     42  CB        30.9620   16.8330   13.3130 C.3   576  HIS576      0.0759
     43  CG        30.1950   17.8270   14.1320 C.ar  576  HIS576      0.0818
     44  ND1       30.7740   18.9420   14.7030 N.ar  576  HIS576     -0.2268
     45  CD2       28.8930   17.8510   14.5040 C.ar  576  HIS576      0.1154
     46  CE1       29.8620   19.6190   15.3750 C.ar  576  HIS576      0.1986
     47  NE2       28.7110   18.9780   15.2700 N.ar  576  HIS576     -0.2212
     48  N         33.1010   19.2350   12.6560 N.am  577  GLU577     -0.1979
     49  CA        34.3840   19.8090   13.0680 C.3   577  GLU577      0.1602
     50  C         34.9880   19.0860   14.2580 C.2   577  GLU577      0.2287
     51  O         36.2000   18.8910   14.2860 O.2   577  GLU577     -0.2864
     52  CB        34.2750   21.3090   13.3680 C.3   577  GLU577      0.0415
     53  CG        34.6000   22.1640   12.1590 C.3   577  GLU577      0.1163
     54  CD        34.2300   23.6120   12.3410 C.2   577  GLU577      0.3649
     55  OE1       35.1020   24.4820   12.0870 O.co2 577  GLU577     -0.2457
     56  OE2       33.0660   23.8730   12.7290 O.co2 577  GLU577     -0.2457
     57  N         25.3990   17.6960    8.1240 N.3   619  PHE619     -0.1241
     58  CA        24.1420   18.3860    8.3210 C.3   619  PHE619      0.1605
     59  C         24.0670   19.4770    7.2530 C.2   619  PHE619      0.2264
     60  O         25.0260   20.2250    7.0520 O.2   619  PHE619     -0.2867
     61  CB        24.0360   18.9690    9.7370 C.3   619  PHE619      0.0534
     62  CG        22.6380   19.4070   10.1090 C.ar  619  PHE619     -0.0203
     63  CD1       21.6270   18.4590   10.3450 C.ar  619  PHE619     -0.0042
     64  CD2       22.3210   20.7640   10.2190 C.ar  619  PHE619     -0.0042
     65  CE1       20.3350   18.8610   10.6730 C.ar  619  PHE619     -0.0003
     66  CE2       21.0300   21.1700   10.5520 C.ar  619  PHE619     -0.0003
     67  CZ        20.0380   20.2200   10.7790 C.ar  619  PHE619     -0.0000
     68  N         22.7600   22.3610    6.7230 N.3   621  THR621     -0.1203
     69  CA        22.9240   23.7850    7.0000 C.3   621  THR621      0.1994
     70  C         24.3250   24.1100    7.5610 C.2   621  THR621      0.2617
     71  O         24.7410   25.2640    7.5860 O.2   621  THR621     -0.2717
     72  CB        21.7850   24.2740    7.9300 C.3   621  THR621      0.1784
     73  OG1       21.4240   25.6140    7.5890 O.3   621  THR621     -0.2211
     74  CG2       22.1710   24.2100    9.4080 C.3   621  THR621      0.0376
     75  N         25.0460   23.0760    7.9850 N.am  622  TYR622     -0.1975
     76  CA        26.3800   23.2030    8.5800 C.3   622  TYR622      0.1639
     77  C         27.4130   23.5360    7.4880 C.2   622  TYR622      0.2290
     78  O         27.9650   22.6420    6.8430 O.2   622  TYR622     -0.2864
     79  CB        26.7330   21.8830    9.2990 C.3   622  TYR622      0.0560
     80  CG        27.9120   21.9080   10.2510 C.ar  622  TYR622     -0.0198
     81  CD1       28.7220   23.0350   10.3910 C.ar  622  TYR622     -0.0009
     82  CD2       28.2370   20.7760   10.9930 C.ar  622  TYR622     -0.0009
     83  CE1       29.8030   23.0350   11.2550 C.ar  622  TYR622      0.0417
     84  CE2       29.3240   20.7660   11.8550 C.ar  622  TYR622      0.0417
     85  CZ        30.1010   21.8990   11.9840 C.ar  622  TYR622      0.1957
     86  OH        31.1780   21.9140   12.8420 O.3   622  TYR622     -0.2866
     87  N         30.5040   24.6980    7.3960 N.3   624  GLN624     -0.1245
     88  CA        31.9000   24.2960    7.4930 C.3   624  GLN624      0.1566
     89  C         32.0810   22.7830    7.3050 C.2   624  GLN624      0.2260
     90  O         33.0460   22.3450    6.6850 O.2   624  GLN624     -0.2867
     91  CB        32.5220   24.7720    8.8080 C.3   624  GLN624      0.0367
     92  CG        34.0460   24.7780    8.8060 C.3   624  GLN624      0.0905
     93  CD        34.6470   25.7950    7.8500 C.2   624  GLN624      0.2608
     94  OE1       34.5550   25.6630    6.6320 O.2   624  GLN624     -0.2717
     95  NE2       35.2910   26.8060    8.4040 N.am  624  GLN624     -0.0878
     96  N         36.8640   33.7720   19.1120 N.3   774  GLY774     -0.1210
     97  CA        35.7510   33.9840   18.1840 C.3   774  GLY774      0.1956
     98  C         35.0860   32.7120   17.6850 C.2   774  GLY774      0.2612
     99  O         35.7340   31.6780   17.5330 O.2   774  GLY774     -0.2717
    100  N         33.7860   32.8080   17.4180 N.am  775  TYR775     -0.1962
    101  CA        32.9960   31.6970   16.8920 C.3   775  TYR775      0.1771
    102  C         33.5300   31.2210   15.5450 C.2   775  TYR775      0.2620
    103  O         33.6790   32.0210   14.6060 O.2   775  TYR775     -0.2715
    104  CB        31.5290   32.1210   16.7220 C.3   775  TYR775      0.0574
    105  CG        30.5480   30.9700   16.7590 C.ar  775  TYR775     -0.0198
    106  CD1       30.1110   30.4450   17.9770 C.ar  775  TYR775     -0.0009
    107  CD2       30.0520   30.4070   15.5840 C.ar  775  TYR775     -0.0009
    108  CE1       29.2090   29.3940   18.0230 C.ar  775  TYR775      0.0417
    109  CE2       29.1550   29.3450   15.6200 C.ar  775  TYR775      0.0417
    110  CZ        28.7350   28.8450   16.8420 C.ar  775  TYR775      0.1957
    111  OH        27.8480   27.7970   16.8960 O.3   775  TYR775     -0.2866
    112  N         33.8120   29.9190   15.4570 N.am  776  GLY776     -0.1940
    113  CA        34.2050   29.2880   14.1980 C.3   776  GLY776      0.2014
    114  C         35.6520   29.4940   13.7940 C.2   776  GLY776      0.2638
    115  O         36.0780   29.0260   12.7440 O.2   776  GLY776     -0.2714
    116  N         36.4060   30.1980   14.6260 N.am  777  ARG777     -0.1977
    117  CA        37.8280   30.4040   14.4110 C.3   777  ARG777      0.1597
    118  C         38.5630   29.8080   15.6100 C.2   777  ARG777      0.2287
    119  O         37.9740   29.0520   16.3960 O.2   777  ARG777     -0.2864
    120  CB        38.1150   31.9060   14.2840 C.3   777  ARG777      0.0334
    121  CG        37.4340   32.5760   13.0990 C.3   777  ARG777      0.0492
    122  CD        37.4110   34.0970   13.2130 C.3   777  ARG777      0.2205
    123  NE        38.6960   34.6720   13.6260 N.pl3 777  ARG777     -0.0865
    124  CZ        39.8040   34.7240   12.8770 C.cat 777  ARG777      0.5346
    125  NH1       40.9070   35.2870   13.3670 N.pl3 777  ARG777      0.1354
    126  NH2       39.8320   34.2180   11.6460 N.pl3 777  ARG777      0.1354
    127  N         39.0500   25.6400   17.8320 N.3   780  TYR780     -0.1227
    128  CA        38.3840   25.1930   19.0460 C.3   780  TYR780      0.1736
    129  C         38.5830   23.7190   19.3260 C.2   780  TYR780      0.2595
    130  O         38.6890   23.3210   20.4710 O.2   780  TYR780     -0.2718
    131  CB        36.8890   25.4740   18.9510 C.3   780  TYR780      0.0548
    132  CG        36.1500   25.3190   20.2530 C.ar  780  TYR780     -0.0200
    133  CD1       36.3960   26.1930   21.3140 C.ar  780  TYR780     -0.0009
    134  CD2       35.1930   24.3110   20.4260 C.ar  780  TYR780     -0.0009
    135  CE1       35.7220   26.0660   22.5160 C.ar  780  TYR780      0.0417
    136  CE2       34.5100   24.1750   21.6270 C.ar  780  TYR780      0.0417
    137  CZ        34.7810   25.0580   22.6680 C.ar  780  TYR780      0.1957
    138  OH        34.1230   24.9550   23.8690 O.3   780  TYR780     -0.2866
    139  N         38.6310   22.9060   18.2850 N.am  781  PHE781     -0.1976
    140  CA        38.7240   21.4600   18.4700 C.3   781  PHE781      0.1639
    141  C         40.1570   20.9240   18.3990 C.2   781  PHE781      0.2290
    142  O         40.3680   19.7380   18.1420 O.2   781  PHE781     -0.2864
    143  CB        37.8140   20.7660   17.4660 C.3   781  PHE781      0.0560
    144  CG        36.4080   21.2580   17.5250 C.ar  781  PHE781     -0.0200
    145  CD1       35.5330   20.7480   18.4620 C.ar  781  PHE781     -0.0042
    146  CD2       35.9710   22.2740   16.6790 C.ar  781  PHE781     -0.0042
    147  CE1       34.2320   21.2120   18.5360 C.ar  781  PHE781     -0.0003
    148  CE2       34.6710   22.7470   16.7490 C.ar  781  PHE781     -0.0003
    149  CZ        33.8010   22.2090   17.6780 C.ar  781  PHE781     -0.0000
@<TRIPOS>BOND
     1    94    93    2
     2    90    89    2
     3    68    69    1
     4    78    77    2
     5    69    70    1
     6    69    72    1
     7    60    59    2
     8    59    58    1
     9    89    88    1
    10    87    88    1
    11    77    76    1
    12    88    91    1
    13    70    71    2
    14    70    75   am
    15    73    72    1
    16    93    95   am
    17    93    92    1
    18    72    74    1
    19    75    76    1
    20    57    58    1
    21    58    61    1
    22    76    79    1
    23    92    91    1
    24    79    80    1
    25    61    62    1
    26    62    64   ar
    27    62    63   ar
    28    64    66   ar
    29    80    81   ar
    30    80    82   ar
    31    63    65   ar
    32    81    83   ar
    33    66    67   ar
    34    29    28    1
    35    29    30    2
    36    65    67   ar
    37    28    27    1
    38    28    31    1
    39    82    84   ar
    40    38    39    1
    41     9     7   ar
    42     8     7   ar
    43    83    85   ar
    44     7     6    1
    45   126   124    1
    46    84    85   ar
    47    32    31    1
    48    32    33    1
    49     5     6    1
    50     5     2    1
    51    85    86    1
    52    39    40    1
    53    39    42    1
    54    55    54   ar
    55    53    54    1
    56    53    52    1
    57     4     3    2
    58    54    56   ar
    59    40    41    2
    60    40    48   am
    61     3     2    1
    62    48    49    1
    63     1     2    1
    64   115   114    2
    65   124   125    1
    66   124   123    2
    67    49    52    1
    68    49    50    1
    69   121   122    1
    70   121   120    1
    71   122   123    1
    72    33    34    1
    73    42    43    1
    74   114   113    1
    75   114   116   am
    76    43    45   ar
    77    43    44   ar
    78    34    35    2
    79   113   112    1
    80    50    51    2
    81   120   117    1
    82   117   116    1
    83   117   118    1
    84    45    47   ar
    85   103   102    2
    86    44    46   ar
    87    47    46   ar
    88   112   102   am
    89    35    36    1
    90    35    37    1
    91   102   101    1
    92   107   109   ar
    93   107   105   ar
    94   118   119    2
    95   109   110   ar
    96   146   148   ar
    97   146   144   ar
    98   104   105    1
    99   104   101    1
   100   148   149   ar
   101   105   106   ar
   102   110   111    1
   103   110   108   ar
   104   101   100    1
   105   100    98   am
   106   143   144    1
   107   143   140    1
   108   144   145   ar
   109    99    98    2
   110   149   147   ar
   111    98    97    1
   112   127   128    1
   113   106   108   ar
   114   142   141    2
   115    97    96    1
   116   139   140    1
   117   139   129   am
   118   141   140    1
   119   145   147   ar
   120   131   128    1
   121   131   132    1
   122   128   129    1
   123   129   130    2
   124   132   134   ar
   125   132   133   ar
   126   134   136   ar
   127   133   135   ar
   128   136   137   ar
   129   135   137   ar
   130   137   138    1
   131    21    20    2
   132    15    17    1
   133    15    14    1
   134    15    16    1
   135    20    19    1
   136    14    11    1
   137    23    22    1
   138    23    24    1
   139    10    11    1
   140    11    12    1
   141    22    19    1
   142    19    18    1
   143    13    12    2
   144    24    26   ar
   145    24    25   ar
