@<TRIPOS>MOLECULE
tmp/5lrbB01.pdb
 159 151 0 0 0
SMALL
GASTEIGER

@<TRIPOS>ATOM
      1  N         17.9620    2.7320   13.0840 N.3    69  LEU69      -0.1245
      2  CA        18.7790    2.3920   11.9100 C.3    69  LEU69       0.1561
      3  C         18.7340    0.8970   11.6630 C.2    69  LEU69       0.2260
      4  O         19.7150    0.1920   11.8990 O.2    69  LEU69      -0.2867
      5  CB        20.2450    2.8440   12.0670 C.3    69  LEU69       0.0270
      6  CG        20.7840    4.0110   11.2230 C.3    69  LEU69       0.0019
      7  CD1       22.2980    3.8580   11.0930 C.3    69  LEU69       0.0001
      8  CD2       20.1460    4.1180    9.8380 C.3    69  LEU69       0.0001
      9  N         19.4440    7.4470   11.4830 N.3   112  ASN112     -0.1225
     10  CA        20.5380    8.2560   10.9820 C.3   112  ASN112      0.1785
     11  C         21.8850    7.8020   11.5510 C.2   112  ASN112      0.2598
     12  O         22.7170    7.2660   10.8170 O.2   112  ASN112     -0.2718
     13  CB        20.2490    9.7120   11.3290 C.3   112  ASN112      0.1169
     14  CG        21.4130   10.6330   11.0440 C.2   112  ASN112      0.2627
     15  OD1       21.6260   11.6050   11.7720 O.2   112  ASN112     -0.2716
     16  ND2       22.1630   10.3520    9.9750 N.am  112  ASN112     -0.0877
     17  N         22.0810    7.9930   12.8580 N.am  113  GLY113     -0.1942
     18  CA        23.3690    7.7460   13.4990 C.3   113  GLY113      0.2014
     19  C         23.3240    6.7110   14.6040 C.2   113  GLY113      0.2639
     20  O         22.4110    5.8990   14.6670 O.2   113  GLY113     -0.2714
     21  N         24.3250    6.7590   15.4790 N.am  114  GLY114     -0.1954
     22  CA        24.5020    5.7850   16.5550 C.3   114  GLY114      0.1869
     23  C         23.2830    5.5430   17.4240 C.2   114  GLY114      0.2309
     24  O         22.9840    4.4030   17.7530 O.2   114  GLY114     -0.2863
     25  N         21.1140    3.1210   15.6080 N.3   117  ARG117     -0.1245
     26  CA        21.7550    1.8400   15.3490 C.3   117  ARG117      0.1563
     27  C         21.8800    1.0490   16.6310 C.2   117  ARG117      0.2260
     28  O         21.6960   -0.1650   16.6320 O.2   117  ARG117     -0.2867
     29  CB        23.1400    2.0420   14.7340 C.3   117  ARG117      0.0307
     30  CG        23.8510    0.7680   14.3000 C.3   117  ARG117      0.0489
     31  CD        22.9840   -0.1390   13.4160 C.3   117  ARG117      0.2205
     32  NE        22.7160   -1.4470   14.0290 N.pl3 117  ARG117     -0.0865
     33  CZ        21.9250   -2.3880   13.5130 C.cat 117  ARG117      0.5346
     34  NH1       21.7860   -3.5420   14.1620 N.pl3 117  ARG117      0.1354
     35  NH2       21.2740   -2.1900   12.3640 N.pl3 117  ARG117      0.1354
     36  N         27.3730   -7.8860   12.7620 N.3   495  TRP495     -0.1241
     37  CA        28.6310   -7.1780   12.6140 C.3   495  TRP495      0.1605
     38  C         29.8550   -8.0830   12.5580 C.2   495  TRP495      0.2264
     39  O         30.9690   -7.5980   12.3810 O.2   495  TRP495     -0.2867
     40  CB        28.7520   -6.1140   13.7050 C.3   495  TRP495      0.0550
     41  CG        27.6860   -5.0800   13.5610 C.ar  495  TRP495      0.0003
     42  CD1       26.7010   -4.7930   14.4480 C.ar  495  TRP495      0.0946
     43  CD2       27.4700   -4.2220   12.4290 C.ar  495  TRP495      0.0152
     44  NE1       25.8880   -3.8030   13.9490 N.ar  495  TRP495     -0.2442
     45  CE2       26.3460   -3.4320   12.7120 C.ar  495  TRP495      0.0810
     46  CE3       28.1310   -4.0340   11.2070 C.ar  495  TRP495      0.0012
     47  CZ2       25.8670   -2.4630   11.8210 C.ar  495  TRP495      0.0191
     48  CZ3       27.6530   -3.0710   10.3220 C.ar  495  TRP495      0.0001
     49  CH2       26.5350   -2.3030   10.6350 C.ar  495  TRP495      0.0015
     50  N         34.8530    6.6730    9.1220 N.3   572  VAL572     -0.1231
     51  CA        33.4750    6.6190    8.6900 C.3   572  VAL572      0.1692
     52  C         32.6000    7.0270    9.8770 C.2   572  VAL572      0.2592
     53  O         32.4920    6.3050   10.8760 O.2   572  VAL572     -0.2718
     54  CB        33.1750    5.2260    8.0830 C.3   572  VAL572      0.0266
     55  CG1       32.2880    4.3670    8.9720 C.3   572  VAL572      0.0020
     56  CG2       32.5820    5.3840    6.6940 C.3   572  VAL572      0.0020
     57  N         32.0630    8.2440    9.7740 N.am  573  LYS573     -0.1966
     58  CA        31.1350    8.8210   10.7610 C.3   573  LYS573      0.1728
     59  C         30.6630   10.2300   10.3450 C.2   573  LYS573      0.2616
     60  O         31.2390   10.8450    9.4480 O.2   573  LYS573     -0.2715
     61  CB        31.7380    8.8450   12.1830 C.3   573  LYS573      0.0311
     62  CG        33.1580    9.3910   12.2990 C.3   573  LYS573      0.0038
     63  CD        33.7590    9.1950   13.6970 C.3   573  LYS573      0.0206
     64  CE        34.2940    7.7830   13.9650 C.3   573  LYS573      0.1093
     65  NZ        33.3010    6.8180   14.5380 N.3   573  LYS573     -0.1314
     66  N         29.5850   10.6800   11.0000 N.am  574  ARG574     -0.1977
     67  CA        28.9970   12.0070   10.7990 C.3   574  ARG574      0.1597
     68  C         30.0770   13.0610   10.5970 C.2   574  ARG574      0.2287
     69  O         31.0190   13.1370   11.3780 O.2   574  ARG574     -0.2864
     70  CB        28.1510   12.3830   12.0240 C.3   574  ARG574      0.0334
     71  CG        27.3820   13.6970   11.9080 C.3   574  ARG574      0.0492
     72  CD        27.1910   14.3670   13.2660 C.3   574  ARG574      0.2205
     73  NE        26.4150   13.5540   14.1940 N.pl3 574  ARG574     -0.0865
     74  CZ        26.3840   13.7540   15.5050 C.cat 574  ARG574      0.5346
     75  NH1       27.0900   14.7310   16.0490 N.pl3 574  ARG574      0.1354
     76  NH2       25.6510   12.9710   16.2740 N.pl3 574  ARG574      0.1354
     77  N         34.4670   15.8960   15.2810 N.3   579  LYS579     -0.1245
     78  CA        34.8880   14.5350   14.9480 C.3   579  LYS579      0.1561
     79  C         36.2590   14.5500   14.2790 C.2   579  LYS579      0.2260
     80  O         36.9890   13.5480   14.2870 O.2   579  LYS579     -0.2867
     81  CB        33.8620   13.8910   14.0250 C.3   579  LYS579      0.0271
     82  CG        32.4790   13.7900   14.6410 C.3   579  LYS579      0.0035
     83  CD        32.0810   12.3530   14.9190 C.3   579  LYS579      0.0206
     84  CE        31.0430   12.2960   16.0210 C.3   579  LYS579      0.1093
     85  NZ        30.2190   11.0570   16.0020 N.3   579  LYS579     -0.1314
     86  N         26.8700    6.9790    2.9880 N.3   657  TYR657     -0.1227
     87  CA        27.2070    5.9930    4.0120 C.3   657  TYR657      0.1736
     88  C         25.9730    5.6640    4.8400 C.2   657  TYR657      0.2595
     89  O         25.2560    6.5550    5.3100 O.2   657  TYR657     -0.2718
     90  CB        28.3440    6.4810    4.9170 C.3   657  TYR657      0.0548
     91  CG        28.5910    5.6500    6.1660 C.ar  657  TYR657     -0.0200
     92  CD1       29.2350    4.4110    6.1050 C.ar  657  TYR657     -0.0009
     93  CD2       28.2230    6.1260    7.4150 C.ar  657  TYR657     -0.0009
     94  CE1       29.4830    3.6670    7.2580 C.ar  657  TYR657      0.0417
     95  CE2       28.4700    5.3960    8.5760 C.ar  657  TYR657      0.0417
     96  CZ        29.0880    4.1650    8.5000 C.ar  657  TYR657      0.1957
     97  OH        29.3140    3.4650    9.6770 O.3   657  TYR657     -0.2866
     98  N         25.7330    4.3670    4.9850 N.am  658  ASN658     -0.1960
     99  CA        24.6260    3.8360    5.7580 C.3   658  ASN658      0.1819
    100  C         24.9480    2.3970    6.1930 C.2   658  ASN658      0.2621
    101  O         26.0660    1.9100    5.9650 O.2   658  ASN658     -0.2715
    102  CB        23.3270    3.9260    4.9390 C.3   658  ASN658      0.1195
    103  CG        23.3520    3.0580    3.6920 C.2   658  ASN658      0.2630
    104  OD1       24.2550    2.2440    3.4970 O.2   658  ASN658     -0.2716
    105  ND2       22.3390    3.2130    2.8520 N.am  658  ASN658     -0.0877
    106  N         23.9790    1.7180    6.8040 N.am  659  VAL659     -0.1977
    107  CA        24.2300    0.3900    7.3610 C.3   659  VAL659      0.1596
    108  C         24.8110   -0.5310    6.2980 C.2   659  VAL659      0.2287
    109  O         25.7780   -1.2340    6.5680 O.2   659  VAL659     -0.2864
    110  CB        22.9690   -0.2400    7.9870 C.3   659  VAL659      0.0276
    111  CG1       23.2340   -1.6740    8.4110 C.3   659  VAL659      0.0022
    112  CG2       22.5170    0.5670    9.1930 C.3   659  VAL659      0.0022
    113  N         28.4460    0.3320    5.5800 N.3   662  ALA662     -0.1245
    114  CA        29.2300   -0.1470    6.7140 C.3   662  ALA662      0.1562
    115  C         29.4770   -1.6610    6.6590 C.2   662  ALA662      0.2260
    116  O         30.5800   -2.1240    6.9510 O.2   662  ALA662     -0.2867
    117  CB        28.5460    0.2200    8.0190 C.3   662  ALA662      0.0290
    118  N         33.4000   -2.3460    6.7430 N.3   666  ILE666     -0.1245
    119  CA        33.9830   -2.6330    8.0620 C.3   666  ILE666      0.1561
    120  C         34.8590   -3.8800    8.0720 C.2   666  ILE666      0.2260
    121  O         35.9980   -3.8080    8.5170 O.2   666  ILE666     -0.2867
    122  CB        32.9070   -2.6880    9.1750 C.3   666  ILE666      0.0252
    123  CG1       32.5030   -1.2690    9.5810 C.3   666  ILE666      0.0019
    124  CG2       33.4330   -3.4020   10.4080 C.3   666  ILE666      0.0019
    125  CD1       31.2790   -1.1850   10.4650 C.3   666  ILE666      0.0001
    126  N         30.4240    5.7140   21.1160 N.3   684  GLY684     -0.1210
    127  CA        30.8360    5.2720   19.7770 C.3   684  GLY684      0.1956
    128  C         30.5880    3.7800   19.6180 C.2   684  GLY684      0.2613
    129  O         31.1410    2.9670   20.3610 O.2   684  GLY684     -0.2717
    130  N         29.7420    3.4100   18.6660 N.am  685  THR685     -0.1938
    131  CA        29.4460    2.0030   18.4430 C.3   685  THR685      0.2028
    132  C         30.2560    1.4280   17.2930 C.2   685  THR685      0.2643
    133  O         30.5630    0.2440   17.3110 O.2   685  THR685     -0.2714
    134  CB        27.9380    1.7370   18.2310 C.3   685  THR685      0.1808
    135  OG1       27.4030    2.6050   17.2240 O.3   685  THR685     -0.2208
    136  CG2       27.1910    1.9560   19.5270 C.3   685  THR685      0.0379
    137  N         30.6120    2.2490   16.3050 N.am  686  SER686     -0.1935
    138  CA        31.4140    1.7650   15.1770 C.3   686  SER686      0.2055
    139  C         32.7900    1.2770   15.6400 C.2   686  SER686      0.2643
    140  O         33.3300    0.3260   15.0760 O.2   686  SER686     -0.2714
    141  CB        31.5410    2.8180   14.0680 C.3   686  SER686      0.2130
    142  OG        32.3460    3.9140   14.4520 O.3   686  SER686     -0.2179
    143  N         33.3340    1.9030   16.6840 N.am  687  ASN687     -0.1971
    144  CA        34.5960    1.4590   17.3000 C.3   687  ASN687      0.1688
    145  C         34.5670   -0.0230   17.6020 C.2   687  ASN687      0.2292
    146  O         35.5210   -0.7450   17.3430 O.2   687  ASN687     -0.2864
    147  CB        34.8480    2.1410   18.6400 C.3   687  ASN687      0.1181
    148  CG        34.6110    3.6200   18.6110 C.2   687  ASN687      0.2629
    149  OD1       33.7440    4.1200   17.8920 O.2   687  ASN687     -0.2716
    150  ND2       35.3590    4.3330   19.4260 N.am  687  ASN687     -0.0877
    151  N         32.4360   -2.3120   16.4060 N.3   689  LYS689     -0.1245
    152  CA        32.2530   -3.1080   15.1910 C.3   689  LYS689      0.1561
    153  C         33.5800   -3.3690   14.4960 C.2   689  LYS689      0.2260
    154  O         33.8520   -4.4920   14.0870 O.2   689  LYS689     -0.2867
    155  CB        31.3240   -2.3930   14.2120 C.3   689  LYS689      0.0271
    156  CG        29.9310   -2.1020   14.7470 C.3   689  LYS689      0.0035
    157  CD        29.1720   -1.1990   13.7930 C.3   689  LYS689      0.0206
    158  CE        27.8970   -0.6840   14.4240 C.3   689  LYS689      0.1093
    159  NZ        27.2890    0.4080   13.6150 N.3   689  LYS689     -0.1314
@<TRIPOS>BOND
     1   105   103   am
     2    86    87    1
     3   104   103    2
     4   103   102    1
     5    87    88    1
     6    87    90    1
     7    88    98   am
     8    88    89    2
     9    90    91    1
    10   102    99    1
    11    98    99    1
    12   113   114    1
    13    99   100    1
    14   101   100    2
    15    92    91   ar
    16    92    94   ar
    17    91    93   ar
    18   100   106   am
    19   108   109    2
    20   108   107    1
    21   115   114    1
    22   115   116    2
    23    56    54    1
    24   114   117    1
    25   118   119    1
    26   106   107    1
    27    94    96   ar
    28   107   110    1
    29    93    95   ar
    30   110   111    1
    31   110   112    1
    32   119   120    1
    33   119   122    1
    34   120   121    2
    35    54    51    1
    36    54    55    1
    37    96    95   ar
    38    96    97    1
    39    51    50    1
    40    51    52    1
    41   122   123    1
    42   122   124    1
    43    60    59    2
    44   123   125    1
    45    57    52   am
    46    57    58    1
    47     8     6    1
    48    52    53    2
    49    16    14   am
    50    48    49   ar
    51    48    46   ar
    52    59    58    1
    53    59    66   am
    54    68    67    1
    55    68    69    2
    56    49    47   ar
    57    58    61    1
    58    67    66    1
    59    67    70    1
    60    12    11    2
    61    10    13    1
    62    10     9    1
    63    10    11    1
    64    14    13    1
    65    14    15    2
    66     7     6    1
    67    46    43   ar
    68     6     5    1
    69    11    17   am
    70     3     4    2
    71     3     2    1
    72    47    45   ar
    73    71    70    1
    74    71    72    1
    75     2     5    1
    76     2     1    1
    77    61    62    1
    78    62    63    1
    79    35    33    1
    80    39    38    2
    81    43    45   ar
    82    43    41   ar
    83    38    37    1
    84    37    36    1
    85    37    40    1
    86    45    44   ar
    87    17    18    1
    88    72    73    1
    89    31    32    1
    90    31    30    1
    91    18    19    1
    92    33    32    2
    93    33    34    1
    94    41    40    1
    95    41    42   ar
    96   159   158    1
    97    63    64    1
    98   157   158    1
    99   157   156    1
   100    44    42   ar
   101    64    65    1
   102    81    82    1
   103    81    78    1
   104   141   142    1
   105   141   138    1
   106   154   153    2
   107    73    74    2
   108   155   156    1
   109   155   152    1
   110    79    80    2
   111    79    78    1
   112    30    29    1
   113   153   152    1
   114    19    20    2
   115    19    21   am
   116    82    83    1
   117    29    26    1
   118    83    84    1
   119    78    77    1
   120   140   139    2
   121   138   139    1
   122   138   137    1
   123   152   151    1
   124    26    25    1
   125    26    27    1
   126    21    22    1
   127    74    75    1
   128    74    76    1
   129   139   143   am
   130    85    84    1
   131   137   132   am
   132    22    23    1
   133    27    28    2
   134   143   144    1
   135   135   134    1
   136   132   133    2
   137   132   131    1
   138   144   145    1
   139   144   147    1
   140   146   145    2
   141    23    24    2
   142   149   148    2
   143   134   131    1
   144   134   136    1
   145   131   130    1
   146   148   147    1
   147   148   150   am
   148   130   128   am
   149   128   127    1
   150   128   129    2
   151   127   126    1
