@<TRIPOS>MOLECULE
tmp/5lreA01.pdb
 130 130 0 0 0
SMALL
GASTEIGER

@<TRIPOS>ATOM
      1  N         11.6470   10.4140   47.5830 N.3    49  ARG49      -0.1231
      2  CA        12.9300   10.0020   48.0980 C.3    49  ARG49       0.1694
      3  C         12.8680    8.6870   48.8410 C.2    49  ARG49       0.2592
      4  O         13.7860    7.8950   48.7690 O.2    49  ARG49      -0.2718
      5  CB        13.5410   11.1450   48.9570 C.3    49  ARG49       0.0321
      6  CG        13.9520   10.8110   50.3780 C.3    49  ARG49       0.0489
      7  CD        14.5240   12.0610   51.0640 C.3    49  ARG49       0.2205
      8  NE        14.3730   12.0410   52.5180 N.pl3  49  ARG49      -0.0865
      9  CZ        14.8570   12.9710   53.3500 C.cat  49  ARG49       0.5346
     10  NH1       15.5240   14.0220   52.8850 N.pl3  49  ARG49       0.1354
     11  NH2       14.6780   12.8500   54.6640 N.pl3  49  ARG49       0.1354
     12  N         11.7730    8.4420   49.5570 N.am   50  ASP50      -0.1974
     13  CA        11.5800    7.1620   50.2450 C.3    50  ASP50       0.1709
     14  C         11.7120    5.9690   49.2830 C.2    50  ASP50       0.2293
     15  O         12.2540    4.9350   49.6550 O.2    50  ASP50      -0.2864
     16  CB        10.1890    7.0990   50.8880 C.3    50  ASP50       0.1436
     17  CG        10.0820    7.8720   52.1750 C.2    50  ASP50       0.3671
     18  OD1       11.1120    8.1770   52.8020 O.co2  50  ASP50      -0.2456
     19  OD2        8.9250    8.1560   52.5450 O.co2  50  ASP50      -0.2456
     20  N         13.7030    5.7440   46.7600 N.3    52  LEU52      -0.1231
     21  CA        15.1320    5.5430   46.4220 C.3    52  LEU52       0.1693
     22  C         15.8890    4.7210   47.4330 C.2    52  LEU52       0.2591
     23  O         16.8880    4.0810   47.1110 O.2    52  LEU52      -0.2718
     24  CB        15.8420    6.9080   46.3090 C.3    52  LEU52       0.0284
     25  CG        15.5670    7.7220   45.0640 C.3    52  LEU52       0.0019
     26  CD1       16.0550    9.1590   45.2020 C.3    52  LEU52       0.0001
     27  CD2       16.2140    7.0430   43.8650 C.3    52  LEU52       0.0001
     28  N         15.4430    4.7530   48.6850 N.am   53  VAL53      -0.1980
     29  CA        16.2450    4.2560   49.8030 C.3    53  VAL53       0.1595
     30  C         16.5990    2.7870   49.7130 C.2    53  VAL53       0.2287
     31  O         17.7660    2.4140   49.8810 O.2    53  VAL53      -0.2864
     32  CB        15.5200    4.5440   51.1510 C.3    53  VAL53       0.0276
     33  CG1       16.1740    3.8060   52.2870 C.3    53  VAL53       0.0022
     34  CG2       15.4850    6.0390   51.4020 C.3    53  VAL53       0.0022
     35  N         18.9770    2.1650   46.8710 N.3    56  TRP56      -0.1241
     36  CA        20.3020    2.7170   47.1790 C.3    56  TRP56       0.1605
     37  C         21.0870    1.8030   48.1110 C.2    56  TRP56       0.2264
     38  O         22.2440    1.4860   47.8590 O.2    56  TRP56      -0.2867
     39  CB        20.1150    4.0990   47.8060 C.3    56  TRP56       0.0550
     40  CG        21.3220    5.0020   47.7450 C.ar   56  TRP56       0.0003
     41  CD1       22.4630    4.8370   47.0010 C.ar   56  TRP56       0.0946
     42  CD2       21.4470    6.2590   48.3990 C.ar   56  TRP56       0.0152
     43  NE1       23.3010    5.9270   47.1690 N.ar   56  TRP56      -0.2442
     44  CE2       22.6980    6.8120   48.0220 C.ar   56  TRP56       0.0810
     45  CE3       20.6260    6.9810   49.2620 C.ar   56  TRP56       0.0012
     46  CZ2       23.1420    8.0330   48.5000 C.ar   56  TRP56       0.0191
     47  CZ3       21.0900    8.2310   49.7430 C.ar   56  TRP56       0.0001
     48  CH2       22.3320    8.7210   49.3560 C.ar   56  TRP56       0.0015
     49  N         30.8120   20.1340   47.7690 N.3   149  ARG149     -0.1245
     50  CA        29.5030   20.7020   48.0780 C.3   149  ARG149      0.1563
     51  C         29.6220   22.2030   48.3380 C.2   149  ARG149      0.2260
     52  O         29.8430   22.6360   49.4770 O.2   149  ARG149     -0.2867
     53  CB        28.9310   20.0120   49.2900 C.3   149  ARG149      0.0307
     54  CG        27.5370   20.4850   49.6750 C.3   149  ARG149      0.0489
     55  CD        27.1380   19.7480   50.9300 C.3   149  ARG149      0.2205
     56  NE        25.7980   20.0440   51.4420 N.pl3 149  ARG149     -0.0865
     57  CZ        25.5260   20.9170   52.4180 C.cat 149  ARG149      0.5346
     58  NH1       24.2770   21.0780   52.8560 N.pl3 149  ARG149      0.1354
     59  NH2       26.4880   21.6670   52.9390 N.pl3 149  ARG149      0.1354
     60  N         18.0520   20.7290   51.5290 N.3   176  ASN176     -0.1226
     61  CA        18.2190   19.9060   50.3420 C.3   176  ASN176      0.1770
     62  C         17.7650   18.4890   50.7130 C.2   176  ASN176      0.2439
     63  O         18.4690   17.7600   51.4020 O.2   176  ASN176     -0.2733
     64  CB        19.6830   19.9110   49.8790 C.3   176  ASN176      0.1168
     65  CG        19.9200   18.9850   48.7130 C.2   176  ASN176      0.2627
     66  OD1       18.9660   18.4580   48.1260 O.2   176  ASN176     -0.2716
     67  ND2       21.1830   18.7720   48.3620 N.am  176  ASN176     -0.0877
     68  N         16.5600   18.0990   50.2740 N.am  177  PRO177     -0.2718
     69  CA        16.0480   16.7880   50.6530 C.3   177  PRO177      0.1535
     70  C         16.7490   15.6130   49.9860 C.2   177  PRO177      0.2599
     71  O         16.5800   14.4760   50.4310 O.2   177  PRO177     -0.2715
     72  CB        14.5620   16.8680   50.2490 C.3   177  PRO177      0.0310
     73  CG        14.5030   17.8800   49.1930 C.3   177  PRO177      0.0237
     74  CD        15.5970   18.8680   49.4660 C.3   177  PRO177      0.0939
     75  N         17.5550   15.8950   48.9630 N.am  178  TRP178     -0.1960
     76  CA        18.2130   14.8770   48.1590 C.3   178  TRP178      0.1771
     77  C         19.6100   14.5330   48.6300 C.2   178  TRP178      0.2620
     78  O         20.2540   13.7030   48.0170 O.2   178  TRP178     -0.2715
     79  CB        18.2690   15.3130   46.6950 C.3   178  TRP178      0.0590
     80  CG        16.9520   15.7910   46.1620 C.ar  178  TRP178      0.0006
     81  CD1       16.6150   17.0550   45.8350 C.ar  178  TRP178      0.0946
     82  CD2       15.7920   14.9880   45.9410 C.ar  178  TRP178      0.0152
     83  NE1       15.3000   17.1080   45.4220 N.ar  178  TRP178     -0.2442
     84  CE2       14.7790   15.8400   45.4730 C.ar  178  TRP178      0.0810
     85  CE3       15.5240   13.6230   46.0840 C.ar  178  TRP178      0.0012
     86  CZ2       13.5050   15.3730   45.1300 C.ar  178  TRP178      0.0191
     87  CZ3       14.2580   13.1490   45.7240 C.ar  178  TRP178      0.0001
     88  CH2       13.2720   14.0290   45.2770 C.ar  178  TRP178      0.0015
     89  N         20.1160   15.1590   49.6930 N.am  179  GLU179     -0.1963
     90  CA        21.3970   14.7290   50.2360 C.3   179  GLU179      0.1733
     91  C         21.2530   14.0930   51.5980 C.2   179  GLU179      0.2616
     92  O         20.3390   14.4250   52.3560 O.2   179  GLU179     -0.2715
     93  CB        22.3590   15.9340   50.3440 C.3   179  GLU179      0.0429
     94  CG        21.9550   16.9600   51.4020 C.3   179  GLU179      0.1163
     95  CD        22.7350   18.2570   51.3780 C.2   179  GLU179      0.3649
     96  OE1       22.4510   19.1010   52.2540 O.co2 179  GLU179     -0.2457
     97  OE2       23.6050   18.4680   50.4940 O.co2 179  GLU179     -0.2457
     98  N         22.2080   13.2410   51.9350 N.am  180  LYS180     -0.1963
     99  CA        22.3540   12.6900   53.2690 C.3   180  LYS180      0.1728
    100  C         23.7560   13.0180   53.7800 C.2   180  LYS180      0.2616
    101  O         24.7410   12.5320   53.2230 O.2   180  LYS180     -0.2715
    102  CB        22.1690   11.1850   53.2640 C.3   180  LYS180      0.0311
    103  CG        22.2530   10.5310   54.6280 C.3   180  LYS180      0.0038
    104  CD        21.1240   10.9540   55.5550 C.3   180  LYS180      0.0206
    105  CE        21.3410   10.4450   56.9780 C.3   180  LYS180      0.1093
    106  NZ        22.4240   11.1630   57.7150 N.3   180  LYS180     -0.1314
    107  N         23.8250   13.7780   54.8670 N.am  181  ALA181     -0.1977
    108  CA        25.0960   14.0840   55.5260 C.3   181  ALA181      0.1597
    109  C         25.6150   12.8260   56.1170 C.2   181  ALA181      0.2287
    110  O         24.8470   12.0270   56.6900 O.2   181  ALA181     -0.2864
    111  CB        24.9290   15.1270   56.6210 C.3   181  ALA181      0.0319
    112  N         28.6890   14.5130   52.0230 N.3   215  TYR215     -0.1241
    113  CA        27.2420   14.4800   51.8300 C.3   215  TYR215      0.1605
    114  C         26.9930   13.6150   50.6150 C.2   215  TYR215      0.2264
    115  O         27.6050   13.8470   49.5560 O.2   215  TYR215     -0.2867
    116  CB        26.6740   15.8580   51.5350 C.3   215  TYR215      0.0534
    117  CG        26.6130   16.7540   52.7420 C.ar  215  TYR215     -0.0201
    118  CD1       27.7770   17.3290   53.2620 C.ar  215  TYR215     -0.0009
    119  CD2       25.3990   17.0690   53.3370 C.ar  215  TYR215     -0.0009
    120  CE1       27.7120   18.1740   54.3670 C.ar  215  TYR215      0.0417
    121  CE2       25.3380   17.9010   54.4320 C.ar  215  TYR215      0.0417
    122  CZ        26.4950   18.4460   54.9380 C.ar  215  TYR215      0.1957
    123  OH        26.4180   19.2840   56.0440 O.3   215  TYR215     -0.2866
    124  N         21.8610   10.4140   45.9580 N.3   218  PRO218     -0.2116
    125  CA        21.6100    9.2530   45.0760 C.3   218  PRO218      0.1372
    126  C         21.4760    9.6150   43.5980 C.2   218  PRO218      0.2244
    127  O         20.9760   10.6680   43.2490 O.2   218  PRO218     -0.2868
    128  CB        20.2910    8.6860   45.6280 C.3   218  PRO218      0.0268
    129  CG        19.5910    9.8770   46.1770 C.3   218  PRO218      0.0207
    130  CD        20.6780   10.7660   46.7570 C.3   218  PRO218      0.0892
@<TRIPOS>BOND
     1   127   126    2
     2   126   125    1
     3    27    25    1
     4    25    26    1
     5    25    24    1
     6   125   128    1
     7   125   124    1
     8    86    88   ar
     9    86    84   ar
    10    88    87   ar
    11    83    84   ar
    12    83    81   ar
    13    84    82   ar
    14   128   129    1
    15    87    85   ar
    16    81    80   ar
    17    82    85   ar
    18    82    80   ar
    19   124   130    1
    20    80    79    1
    21   129   130    1
    22    24    21    1
    23    21    20    1
    24    21    22    1
    25    79    76    1
    26    35    36    1
    27    41    43   ar
    28    41    40   ar
    29    23    22    2
    30    43    44   ar
    31    36    39    1
    32    36    37    1
    33    22    28   am
    34     1     2    1
    35    40    39    1
    36    40    42   ar
    37    49    50    1
    38    38    37    2
    39    78    77    2
    40    44    42   ar
    41    44    46   ar
    42    50    51    1
    43    50    53    1
    44     2     3    1
    45     2     5    1
    46    66    65    2
    47    76    77    1
    48    76    75    1
    49    51    52    2
    50    67    65   am
    51    42    45   ar
    52    46    48   ar
    53    77    89   am
    54    28    29    1
    55    65    64    1
    56     4     3    2
    57     3    12   am
    58     5     6    1
    59    75    70   am
    60    73    74    1
    61    73    72    1
    62    45    47   ar
    63    14    15    2
    64    14    13    1
    65    53    54    1
    66    48    47   ar
    67    74    68    1
    68   115   114    2
    69    12    13    1
    70    54    55    1
    71    89    90    1
    72    30    29    1
    73    30    31    2
    74    29    32    1
    75    64    61    1
    76    70    71    2
    77    70    69    1
    78    90    93    1
    79    90    91    1
    80    13    16    1
    81    72    69    1
    82    68    69    1
    83    68    62   am
    84    61    62    1
    85    61    60    1
    86    93    94    1
    87     6     7    1
    88    97    95   ar
    89   114   113    1
    90    62    63    2
    91    16    17    1
    92    55    56    1
    93     7     8    1
    94    32    34    1
    95    32    33    1
    96    95    94    1
    97    95    96   ar
    98    56    57    2
    99   116   113    1
   100   116   117    1
   101    91    98   am
   102    91    92    2
   103   113   112    1
   104    98    99    1
   105    17    19   ar
   106    17    18   ar
   107    57    58    1
   108    57    59    1
   109     8     9    2
   110   117   118   ar
   111   117   119   ar
   112    10     9    1
   113   101   100    2
   114   118   120   ar
   115   102    99    1
   116   102   103    1
   117    99   100    1
   118   119   121   ar
   119     9    11    1
   120   100   107   am
   121   120   122   ar
   122   121   122   ar
   123   103   104    1
   124   107   108    1
   125   122   123    1
   126   108   109    1
   127   108   111    1
   128   104   105    1
   129   109   110    2
   130   105   106    1
