@<TRIPOS>MOLECULE
tmp/5lrgB00.pdb
 212 200 0 0 0
SMALL
GASTEIGER

@<TRIPOS>ATOM
      1  N         45.7460  -34.8140   19.7470 N.3    64  HIS64      -0.1241
      2  CA        46.5670  -35.5960   18.8300 C.3    64  HIS64       0.1621
      3  C         47.6130  -34.7350   18.1620 C.2    64  HIS64       0.2264
      4  O         47.2970  -33.7180   17.5440 O.2    64  HIS64      -0.2867
      5  CB        45.6830  -36.2770   17.7780 C.3    64  HIS64       0.0745
      6  CG        44.8830  -37.4260   18.3170 C.ar   64  HIS64       0.0817
      7  ND1       43.5880  -37.6790   17.9290 N.ar   64  HIS64      -0.2268
      8  CD2       45.1980  -38.3890   19.2160 C.ar   64  HIS64       0.1154
      9  CE1       43.1360  -38.7460   18.5620 C.ar   64  HIS64       0.1986
     10  NE2       44.0950  -39.1960   19.3500 N.ar   64  HIS64      -0.2212
     11  N         49.7360  -34.5750   15.5750 N.3    66  ARG66      -0.1231
     12  CA        49.9170  -34.2020   14.1730 C.3    66  ARG66       0.1694
     13  C         48.7940  -33.3570   13.6040 C.2    66  ARG66       0.2591
     14  O         48.8840  -32.8780   12.4730 O.2    66  ARG66      -0.2718
     15  CB        50.0730  -35.4600   13.3080 C.3    66  ARG66       0.0321
     16  CG        48.8970  -36.4390   13.3750 C.3    66  ARG66       0.0489
     17  CD        49.2820  -37.8370   12.8900 C.3    66  ARG66       0.2205
     18  NE        48.1670  -38.7830   12.9400 N.pl3  66  ARG66      -0.0865
     19  CZ        48.2900  -40.0890   12.7180 C.cat  66  ARG66       0.5346
     20  NH1       49.4780  -40.6090   12.4330 N.pl3  66  ARG66       0.1354
     21  NH2       47.2250  -40.8780   12.7790 N.pl3  66  ARG66       0.1354
     22  N         47.7350  -33.1760   14.3840 N.am   67  GLU67      -0.1979
     23  CA        46.5510  -32.4590   13.9270 C.3    67  GLU67       0.1602
     24  C         46.6940  -30.9770   14.2250 C.2    67  GLU67       0.2287
     25  O         45.9840  -30.4170   15.0620 O.2    67  GLU67      -0.2864
     26  CB        45.3100  -33.0410   14.6130 C.3    67  GLU67       0.0415
     27  CG        45.0970  -34.5030   14.2500 C.3    67  GLU67       0.1163
     28  CD        44.1350  -35.2310   15.1670 C.2    67  GLU67       0.3649
     29  OE1       43.4590  -34.5890   15.9550 O.co2  67  GLU67      -0.2457
     30  OE2       44.0780  -36.4470   15.0800 O.co2  67  GLU67      -0.2457
     31  N         54.2180  -36.9250   11.7300 N.3   120  MET120     -0.1245
     32  CA        53.0310  -37.7680   11.7650 C.3   120  MET120      0.1570
     33  C         52.8110  -38.4450   13.0890 C.2   120  MET120      0.2261
     34  O         52.0650  -39.4170   13.1730 O.2   120  MET120     -0.2867
     35  CB        53.1100  -38.8240   10.6670 C.3   120  MET120      0.0387
     36  CG        52.9630  -38.2480    9.2710 C.3   120  MET120      0.0595
     37  SD        51.2970  -37.6150    8.9670 S.3   120  MET120     -0.1393
     38  CE        50.3540  -39.0990    9.0530 C.3   120  MET120      0.0692
     39  N         51.2800  -39.0770   16.7560 N.3   122  ARG122     -0.1245
     40  CA        49.8940  -38.9420   17.2110 C.3   122  ARG122      0.1563
     41  C         49.8060  -38.9370   18.7280 C.2   122  ARG122      0.2260
     42  O         49.1080  -38.1130   19.3170 O.2   122  ARG122     -0.2867
     43  CB        49.0520  -40.0980   16.6470 C.3   122  ARG122      0.0307
     44  CG        47.6800  -40.3120   17.3040 C.3   122  ARG122      0.0489
     45  CD        46.9130  -41.4680   16.6510 C.3   122  ARG122      0.2205
     46  NE        45.6580  -41.8160   17.3250 N.pl3 122  ARG122     -0.0865
     47  CZ        44.4610  -41.3470   16.9760 C.cat 122  ARG122      0.5346
     48  NH1       44.3460  -40.4950   15.9620 N.pl3 122  ARG122      0.1354
     49  NH2       43.3710  -41.7510   17.6170 N.pl3 122  ARG122      0.1354
     50  N         43.2870  -40.1520   23.5740 N.3   139  ASN139     -0.1225
     51  CA        41.8570  -40.3390   23.3840 C.3   139  ASN139      0.1785
     52  C         41.4470  -41.8010   23.3970 C.2   139  ASN139      0.2597
     53  O         40.3520  -42.1500   22.9590 O.2   139  ASN139     -0.2718
     54  CB        41.3850  -39.7010   22.0770 C.3   139  ASN139      0.1169
     55  CG        39.9770  -39.1570   22.1880 C.2   139  ASN139      0.2627
     56  OD1       39.5500  -38.7570   23.2740 O.2   139  ASN139     -0.2716
     57  ND2       39.2470  -39.1380   21.0770 N.am  139  ASN139     -0.0877
     58  N         42.3270  -42.6570   23.9000 N.am  140  ARG140     -0.1979
     59  CA        41.9470  -44.0250   24.2340 C.3   140  ARG140      0.1597
     60  C         42.2150  -44.2750   25.7020 C.2   140  ARG140      0.2287
     61  O         42.1060  -45.4000   26.1770 O.2   140  ARG140     -0.2864
     62  CB        42.7510  -45.0340   23.4080 C.3   140  ARG140      0.0334
     63  CG        42.5250  -44.9610   21.9020 C.3   140  ARG140      0.0492
     64  CD        41.0820  -45.2340   21.4990 C.3   140  ARG140      0.2205
     65  NE        40.9190  -45.2470   20.0450 N.pl3 140  ARG140     -0.0865
     66  CZ        40.7800  -44.1570   19.2960 C.cat 140  ARG140      0.5346
     67  NH1       40.7810  -42.9520   19.8590 N.pl3 140  ARG140      0.1354
     68  NH2       40.6380  -44.2710   17.9830 N.pl3 140  ARG140      0.1354
     69  N         49.3050  -47.0060   17.2560 N.3   158  GLU158     -0.1231
     70  CA        48.9890  -45.5980   17.4280 C.3   158  GLU158      0.1699
     71  C         47.6940  -45.3770   18.2290 C.2   158  GLU158      0.2592
     72  O         47.4220  -44.2650   18.6760 O.2   158  GLU158     -0.2718
     73  CB        48.8910  -44.9000   16.0670 C.3   158  GLU158      0.0402
     74  CG        47.6070  -45.1430   15.3050 C.3   158  GLU158      0.1161
     75  CD        47.5050  -44.2620   14.0770 C.2   158  GLU158      0.3649
     76  OE1       48.4710  -43.5640   13.7780 O.co2 158  GLU158     -0.2457
     77  OE2       46.4660  -44.2740   13.4290 O.co2 158  GLU158     -0.2457
     78  N         46.9140  -46.4390   18.4120 N.am  159  THR159     -0.1953
     79  CA        45.7180  -46.3700   19.2470 C.3   159  THR159      0.1897
     80  C         45.9070  -47.0710   20.5930 C.2   159  THR159      0.2313
     81  O         44.9350  -47.4590   21.2390 O.2   159  THR159     -0.2863
     82  CB        44.4990  -46.9940   18.5410 C.3   159  THR159      0.1794
     83  OG1       44.7900  -48.3530   18.1930 O.3   159  THR159     -0.2208
     84  CG2       44.1510  -46.2050   17.2770 C.3   159  THR159      0.0378
     85  N         39.6440  -31.7390   16.9000 N.3   192  HIS192     -0.1226
     86  CA        40.4990  -32.6950   16.2010 C.3   192  HIS192      0.1752
     87  C         40.5610  -32.3820   14.7010 C.2   192  HIS192      0.2597
     88  O         39.8850  -31.4710   14.2130 O.2   192  HIS192     -0.2718
     89  CB        39.9620  -34.1260   16.3750 C.3   192  HIS192      0.0759
     90  CG        40.1120  -34.6760   17.7630 C.ar  192  HIS192      0.0818
     91  ND1       40.9670  -35.7160   18.0650 N.ar  192  HIS192     -0.2268
     92  CD2       39.5020  -34.3470   18.9250 C.ar  192  HIS192      0.1154
     93  CE1       40.8760  -36.0050   19.3490 C.ar  192  HIS192      0.1986
     94  NE2       39.9920  -35.1880   19.8950 N.ar  192  HIS192     -0.2212
     95  N         41.3850  -33.1450   13.9840 N.am  193  SER193     -0.1938
     96  CA        41.2810  -33.2490   12.5320 C.3   193  SER193      0.2055
     97  C         41.7880  -34.6310   12.1350 C.2   193  SER193      0.2643
     98  O         42.3900  -35.3230   12.9540 O.2   193  SER193     -0.2714
     99  CB        42.1210  -32.1610   11.8460 C.3   193  SER193      0.2130
    100  OG        43.5040  -32.4650   11.8670 O.3   193  SER193     -0.2179
    101  N         41.5260  -35.0610   10.9020 N.am  194  TYR194     -0.1959
    102  CA        40.6430  -34.3710    9.9700 C.3   194  TYR194      0.1771
    103  C         39.5130  -35.3370    9.6280 C.2   194  TYR194      0.2620
    104  O         39.5870  -36.5140    9.9820 O.2   194  TYR194     -0.2715
    105  CB        41.4100  -34.0060    8.6930 C.3   194  TYR194      0.0574
    106  CG        42.0300  -35.2020    8.0050 C.ar  194  TYR194     -0.0198
    107  CD1       43.2720  -35.6860    8.3990 C.ar  194  TYR194     -0.0009
    108  CD2       41.3610  -35.8640    6.9800 C.ar  194  TYR194     -0.0009
    109  CE1       43.8290  -36.7920    7.7960 C.ar  194  TYR194      0.0417
    110  CE2       41.9100  -36.9700    6.3700 C.ar  194  TYR194      0.0417
    111  CZ        43.1450  -37.4310    6.7820 C.ar  194  TYR194      0.1957
    112  OH        43.6920  -38.5360    6.1840 O.3   194  TYR194     -0.2866
    113  N         38.4780  -34.8350    8.9510 N.am  195  SER195     -0.1950
    114  CA        37.3390  -35.6400    8.4900 C.3   195  SER195      0.1924
    115  C         36.1200  -34.7640    8.2120 C.2   195  SER195      0.2314
    116  O         35.2220  -35.1590    7.4740 O.2   195  SER195     -0.2863
    117  CB        36.9360  -36.6950    9.5250 C.3   195  SER195      0.2116
    118  OG        37.7450  -37.8570    9.4310 O.3   195  SER195     -0.2180
    119  N         33.6820  -33.6070   10.5510 N.3   197  MET197     -0.1245
    120  CA        32.5370  -34.2100   11.2260 C.3   197  MET197      0.1570
    121  C         32.2820  -33.5170   12.5280 C.2   197  MET197      0.2261
    122  O         33.1910  -32.9300   13.1150 O.2   197  MET197     -0.2867
    123  CB        32.7950  -35.6860   11.5230 C.3   197  MET197      0.0387
    124  CG        33.0170  -36.5560   10.3090 C.3   197  MET197      0.0595
    125  SD        33.5410  -38.2040   10.7960 S.3   197  MET197     -0.1393
    126  CE        33.4860  -39.0360    9.1940 C.3   197  MET197      0.0692
    127  N         30.9500  -35.1220   15.9260 N.3   199  LEU199     -0.1245
    128  CA        30.6060  -36.3920   16.5420 C.3   199  LEU199      0.1561
    129  C         30.1650  -36.1850   17.9950 C.2   199  LEU199      0.2260
    130  O         30.6650  -35.2930   18.6880 O.2   199  LEU199     -0.2867
    131  CB        31.8160  -37.3320   16.4910 C.3   199  LEU199      0.0270
    132  CG        32.4440  -37.5200   15.1060 C.3   199  LEU199      0.0019
    133  CD1       33.7540  -38.2900   15.2320 C.3   199  LEU199      0.0001
    134  CD2       31.4740  -38.2590   14.1990 C.3   199  LEU199      0.0001
    135  N         30.9460  -43.6310   21.2600 N.3   203  SER203     -0.1217
    136  CA        31.9200  -44.3090   20.4260 C.3   203  SER203      0.1889
    137  C         32.3490  -45.6610   21.0400 C.2   203  SER203      0.2288
    138  O         32.6620  -46.6020   20.3120 O.2   203  SER203     -0.2866
    139  CB        33.1450  -43.4190   20.2280 C.3   203  SER203      0.2089
    140  OG        32.8660  -42.3600   19.3330 O.3   203  SER203     -0.2183
    141  N         31.9680  -42.8680   12.4000 N.3   243  ILE243     -0.1231
    142  CA        33.3300  -43.1100   11.9410 C.3   243  ILE243      0.1692
    143  C         33.8310  -44.5040   12.3020 C.2   243  ILE243      0.2592
    144  O         34.2230  -45.2720   11.4270 O.2   243  ILE243     -0.2718
    145  CB        34.3320  -42.0090   12.4860 C.3   243  ILE243      0.0266
    146  CG1       35.6870  -42.1510   11.7880 C.3   243  ILE243      0.0019
    147  CG2       34.5060  -42.1300   13.9940 C.3   243  ILE243      0.0020
    148  CD1       36.6650  -41.0330   12.1000 C.3   243  ILE243      0.0001
    149  N         33.8080  -44.8330   13.5890 N.am  244  TYR244     -0.1976
    150  CA        34.1160  -46.1790   14.0540 C.3   244  TYR244      0.1639
    151  C         33.9750  -46.2690   15.5220 C.2   244  TYR244      0.2290
    152  O         34.0310  -45.2600   16.2270 O.2   244  TYR244     -0.2864
    153  CB        35.5420  -46.6030   13.6590 C.3   244  TYR244      0.0560
    154  CG        36.6090  -45.5520   13.8650 C.ar  244  TYR244     -0.0198
    155  CD1       36.8020  -44.9520   15.1050 C.ar  244  TYR244     -0.0009
    156  CD2       37.4200  -45.1480   12.8090 C.ar  244  TYR244     -0.0009
    157  CE1       37.7700  -43.9710   15.2850 C.ar  244  TYR244      0.0417
    158  CE2       38.3880  -44.1750   12.9790 C.ar  244  TYR244      0.0417
    159  CZ        38.5590  -43.5860   14.2160 C.ar  244  TYR244      0.1957
    160  OH        39.5060  -42.5950   14.3710 O.3   244  TYR244     -0.2866
    161  N         35.2450  -46.9000   19.1980 N.3   246  ALA246     -0.1245
    162  CA        36.5230  -46.6700   19.8630 C.3   246  ALA246      0.1562
    163  C         36.3160  -46.2720   21.3070 C.2   246  ALA246      0.2260
    164  O         35.5940  -45.3190   21.6050 O.2   246  ALA246     -0.2867
    165  CB        37.3080  -45.5710   19.1470 C.3   246  ALA246      0.0290
    166  N         37.6110  -42.5520   24.8910 N.3   249  GLY249     -0.1225
    167  CA        37.6980  -41.1820   24.4090 C.3   249  GLY249      0.1811
    168  C         37.1140  -40.1800   25.3890 C.2   249  GLY249      0.2280
    169  O         36.2190  -40.5190   26.1700 O.2   249  GLY249     -0.2866
    170  N         35.2760  -37.4300   24.9760 N.3   251  ASP251     -0.1225
    171  CA        33.9000  -36.9870   24.7740 C.3   251  ASP251      0.1805
    172  C         32.8790  -37.9260   25.4660 C.2   251  ASP251      0.2597
    173  O         31.9790  -37.4580   26.1660 O.2   251  ASP251     -0.2718
    174  CB        33.5860  -36.8590   23.2730 C.3   251  ASP251      0.1424
    175  CG        33.8380  -38.1420   22.4980 C.2   251  ASP251      0.3668
    176  OD1       34.3170  -39.1090   23.0800 O.co2 251  ASP251     -0.2456
    177  OD2       33.5480  -38.1590   21.3020 O.co2 251  ASP251     -0.2456
    178  N         33.0460  -39.2340   25.2900 N.am  252  ASP252     -0.1974
    179  CA        32.2220  -40.2230   25.9840 C.3   252  ASP252      0.1709
    180  C         32.3690  -40.1240   27.4860 C.2   252  ASP252      0.2293
    181  O         31.3900  -40.2450   28.2250 O.2   252  ASP252     -0.2864
    182  CB        32.6030  -41.6430   25.5600 C.3   252  ASP252      0.1436
    183  CG        32.1200  -41.9890   24.1650 C.2   252  ASP252      0.3671
    184  OD1       31.3480  -41.1980   23.5840 O.co2 252  ASP252     -0.2456
    185  OD2       32.5200  -43.0640   23.6520 O.co2 252  ASP252     -0.2456
    186  N         32.9350  -34.0190   19.6550 N.3   264  THR264     -0.1218
    187  CA        34.2430  -34.0130   19.0100 C.3   264  THR264      0.1862
    188  C         34.1400  -33.3120   17.6450 C.2   264  THR264      0.2287
    189  O         33.3300  -33.6950   16.8030 O.2   264  THR264     -0.2866
    190  CB        34.7510  -35.4510   18.7850 C.3   264  THR264      0.1770
    191  OG1       34.9590  -36.0900   20.0510 O.3   264  THR264     -0.2211
    192  CG2       36.0560  -35.4450   17.9950 C.3   264  THR264      0.0375
    193  N         35.9750  -32.7060   14.2210 N.3   266  GLU266     -0.1245
    194  CA        37.0320  -33.0150   13.2630 C.3   266  GLU266      0.1567
    195  C         36.9960  -32.0070   12.1310 C.2   266  GLU266      0.2260
    196  O         36.0490  -31.9770   11.3520 O.2   266  GLU266     -0.2867
    197  CB        36.8430  -34.4260   12.6910 C.3   266  GLU266      0.0388
    198  CG        36.9500  -35.5430   13.7240 C.3   266  GLU266      0.1160
    199  CD        38.3900  -35.9380   14.0100 C.2   266  GLU266      0.3649
    200  OE1       39.2550  -35.5670   13.2430 O.co2 266  GLU266     -0.2457
    201  OE2       38.6280  -36.6140   14.9970 O.co2 266  GLU266     -0.2457
    202  N         46.3970  -34.3030    7.4890 N.3   275  PHE275     -0.1241
    203  CA        46.9600  -33.6570    8.6730 C.3   275  PHE275      0.1605
    204  C         47.8100  -32.4690    8.3260 C.2   275  PHE275      0.2264
    205  O         47.9560  -31.5450    9.1280 O.2   275  PHE275     -0.2867
    206  CB        47.8140  -34.6430    9.4690 C.3   275  PHE275      0.0534
    207  CG        47.0700  -35.8630    9.9190 C.ar  275  PHE275     -0.0203
    208  CD1       46.0420  -35.7590   10.8420 C.ar  275  PHE275     -0.0042
    209  CD2       47.4010  -37.1190    9.4190 C.ar  275  PHE275     -0.0042
    210  CE1       45.3520  -36.8830   11.2610 C.ar  275  PHE275     -0.0003
    211  CE2       46.7200  -38.2450    9.8320 C.ar  275  PHE275     -0.0003
    212  CZ        45.6900  -38.1290   10.7570 C.ar  275  PHE275     -0.0000
@<TRIPOS>BOND
     1   112   111    1
     2   110   111   ar
     3   110   108   ar
     4   111   109   ar
     5   108   106   ar
     6   116   115    2
     7   202   203    1
     8   109   107   ar
     9   106   107   ar
    10   106   105    1
    11   115   114    1
    12   204   203    1
    13   204   205    2
    14   114   113    1
    15   114   117    1
    16   203   206    1
    17   105   102    1
    18   113   103   am
    19    37    38    1
    20    37    36    1
    21   126   125    1
    22    36    35    1
    23   209   211   ar
    24   209   207   ar
    25   118   117    1
    26   206   207    1
    27   103   102    1
    28   103   104    2
    29   211   212   ar
    30   207   208   ar
    31   102   101    1
    32   124   125    1
    33   124   123    1
    34   119   120    1
    35    35    32    1
    36   212   210   ar
    37   208   210   ar
    38   101    97   am
    39   120   123    1
    40   120   121    1
    41   196   195    2
    42   144   143    2
    43    31    32    1
    44    32    33    1
    45   146   148    1
    46   146   145    1
    47    99   100    1
    48    99    96    1
    49   142   143    1
    50   142   141    1
    51   142   145    1
    52   195   194    1
    53    97    96    1
    54    97    98    2
    55   143   149   am
    56    20    19    1
    57    14    13    2
    58   145   147    1
    59   121   122    2
    60    96    95    1
    61   197   194    1
    62   197   198    1
    63    19    21    1
    64    19    18    2
    65   156   158   ar
    66   156   154   ar
    67    17    18    1
    68    17    16    1
    69   158   159   ar
    70    33    34    2
    71   200   199   ar
    72   194   193    1
    73    15    16    1
    74    15    12    1
    75    77    75   ar
    76   149   150    1
    77    13    12    1
    78    13    22   am
    79   153   154    1
    80   153   150    1
    81   198   199    1
    82    76    75   ar
    83   154   155   ar
    84    23    24    1
    85    23    22    1
    86    23    26    1
    87    95    87   am
    88   199   201   ar
    89   150   151    1
    90    75    74    1
    91    12    11    1
    92   134   132    1
    93    88    87    2
    94   159   160    1
    95   159   157   ar
    96    24    25    2
    97    27    26    1
    98    27    28    1
    99    87    86    1
   100    30    28   ar
   101   155   157   ar
   102   132   133    1
   103   132   131    1
   104    28    29   ar
   105    74    73    1
   106   151   152    2
   107   127   128    1
   108    48    47    1
   109    73    70    1
   110    86    89    1
   111    86    85    1
   112    89    90    1
   113   131   128    1
   114   128   129    1
   115    43    40    1
   116    43    44    1
   117    45    44    1
   118    45    46    1
   119    39    40    1
   120   189   188    2
   121    47    46    2
   122    47    49    1
   123    40    41    1
   124    69    70    1
   125    84    82    1
   126    70    71    1
   127     4     3    2
   128   188   187    1
   129    90    91   ar
   130    90    92   ar
   131     5     6    1
   132     5     2    1
   133     7     6   ar
   134     7     9   ar
   135    68    66    1
   136   129   130    2
   137   192   190    1
   138    91    93   ar
   139     3     2    1
   140    83    82    1
   141    71    78   am
   142    71    72    2
   143     6     8   ar
   144    78    79    1
   145    82    79    1
   146     9    10   ar
   147    41    42    2
   148   190   187    1
   149   190   191    1
   150     2     1    1
   151    92    94   ar
   152   187   186    1
   153   165   162    1
   154   161   162    1
   155     8    10   ar
   156    79    80    1
   157    66    67    1
   158    66    65    2
   159   140   139    1
   160    93    94   ar
   161   162   163    1
   162    65    64    1
   163   139   136    1
   164   138   137    2
   165   136   137    1
   166   136   135    1
   167    80    81    2
   168    57    55   am
   169   177   175   ar
   170   163   164    2
   171    64    63    1
   172    63    62    1
   173    54    55    1
   174    54    51    1
   175    55    56    2
   176   175   176   ar
   177   175   174    1
   178    53    52    2
   179   174   171    1
   180    51    52    1
   181    51    50    1
   182    52    58   am
   183    62    59    1
   184   184   183   ar
   185   185   183   ar
   186    58    59    1
   187   183   182    1
   188    59    60    1
   189   167   166    1
   190   167   168    1
   191   171   170    1
   192   171   172    1
   193   178   172   am
   194   178   179    1
   195   168   169    2
   196   172   173    2
   197   182   179    1
   198    60    61    2
   199   179   180    1
   200   180   181    2
