@<TRIPOS>MOLECULE
tmp/5lrqA00.pdb
 125 124 0 0 0
SMALL
GASTEIGER

@<TRIPOS>ATOM
      1  N         28.7850   10.6040  100.7610 N.3    40  TRP40      -0.1228
      2  CA        28.5320    9.4550  101.6870 C.3    40  TRP40       0.1722
      3  C         29.7140    9.0390  102.5580 C.2    40  TRP40       0.2437
      4  O         29.5390    8.8740  103.7890 O.2    40  TRP40      -0.2733
      5  CB        27.9250    8.2420  100.9480 C.3    40  TRP40       0.0563
      6  CG        28.7720    7.7070   99.8520 C.ar   40  TRP40       0.0003
      7  CD1       28.7270    8.1100   98.5630 C.ar   40  TRP40       0.0946
      8  CD2       29.7880    6.6880   99.9230 C.ar   40  TRP40       0.0152
      9  NE1       29.6640    7.4330   97.8160 N.ar   40  TRP40      -0.2442
     10  CE2       30.3230    6.5460   98.6250 C.ar   40  TRP40       0.0810
     11  CE3       30.3000    5.8820  100.9520 C.ar   40  TRP40       0.0012
     12  CZ2       31.3510    5.6370   98.3160 C.ar   40  TRP40       0.0191
     13  CZ3       31.3460    4.9950  100.6480 C.ar   40  TRP40       0.0001
     14  CH2       31.8510    4.8780   99.3470 C.ar   40  TRP40       0.0015
     15  N         30.9340    9.0230  102.0210 N.am   41  PRO41      -0.2718
     16  CA        32.0320    8.7260  102.9740 C.3    41  PRO41       0.1535
     17  C         32.2530    9.7130  104.1010 C.2    41  PRO41       0.2598
     18  O         32.9150    9.3490  105.1050 O.2    41  PRO41      -0.2715
     19  CB        33.2680    8.7420  102.0990 C.3    41  PRO41       0.0310
     20  CG        32.7700    8.5270  100.7420 C.3    41  PRO41       0.0237
     21  CD        31.4920    9.3130  100.7150 C.3    41  PRO41       0.0939
     22  N         31.7960   10.9720  103.9240 N.am   42  PHE42      -0.1974
     23  CA        32.0650   12.0400  104.8640 C.3    42  PHE42       0.1639
     24  C         30.8870   12.3800  105.7420 C.2    42  PHE42       0.2290
     25  O         30.9570   13.3410  106.4900 O.2    42  PHE42      -0.2864
     26  CB        32.4800   13.2930  104.0700 C.3    42  PHE42       0.0560
     27  CG        33.6330   13.0280  103.1790 C.ar   42  PHE42      -0.0200
     28  CD1       34.9190   13.0270  103.6720 C.ar   42  PHE42      -0.0042
     29  CD2       33.4110   12.7020  101.8730 C.ar   42  PHE42      -0.0042
     30  CE1       36.0040   12.6790  102.8420 C.ar   42  PHE42      -0.0003
     31  CE2       34.4580   12.4140  101.0490 C.ar   42  PHE42      -0.0003
     32  CZ        35.7580   12.3940  101.5030 C.ar   42  PHE42      -0.0000
     33  N         29.6520   10.6650  108.1850 N.3    44  GLN44      -0.1231
     34  CA        29.8630   10.1680  109.5140 C.3    44  GLN44       0.1683
     35  C         31.3210   10.0240  109.8110 C.2    44  GLN44       0.2434
     36  O         32.1360   10.0340  108.9130 O.2    44  GLN44      -0.2733
     37  CB        29.1460    8.7830  109.6170 C.3    44  GLN44       0.0380
     38  CG        29.6660    7.6450  108.7420 C.3    44  GLN44       0.0905
     39  CD        29.3370    7.8250  107.2620 C.2    44  GLN44       0.2608
     40  OE1       28.1640    7.9200  106.8670 O.2    44  GLN44      -0.2717
     41  NE2       30.3830    7.9450  106.4440 N.am   44  GLN44      -0.0878
     42  N         31.6990    9.8680  111.0820 N.am   45  PRO45      -0.2718
     43  CA        33.1210    9.6400  111.3500 C.3    45  PRO45       0.1535
     44  C         33.6860    8.4290  110.5730 C.2    45  PRO45       0.2598
     45  O         32.9800    7.4820  110.2510 O.2    45  PRO45      -0.2715
     46  CB        33.1530    9.4320  112.8630 C.3    45  PRO45       0.0310
     47  CG        31.9800   10.2030  113.3700 C.3    45  PRO45       0.0237
     48  CD        30.9150   10.0680  112.3160 C.3    45  PRO45       0.0939
     49  N         34.9740    8.4510  110.3300 N.am   46  VAL46      -0.1964
     50  CA        35.6620    7.3130  109.7920 C.3    46  VAL46       0.1727
     51  C         35.5480    6.1850  110.8320 C.2    46  VAL46       0.2616
     52  O         35.9300    6.3370  112.0040 O.2    46  VAL46      -0.2715
     53  CB        37.1530    7.6270  109.5800 C.3    46  VAL46       0.0290
     54  CG1       37.9790    6.3880  109.3640 C.3    46  VAL46       0.0023
     55  CG2       37.4140    8.6680  108.5180 C.3    46  VAL46       0.0023
     56  N         35.0600    5.0540  110.3530 N.am   47  ASP47      -0.1971
     57  CA        34.9480    3.8620  111.1550 C.3    47  ASP47       0.1709
     58  C         36.1910    3.0250  110.9420 C.2    47  ASP47       0.2293
     59  O         36.2510    2.1960  110.0660 O.2    47  ASP47      -0.2864
     60  CB        33.6600    3.0780  110.8830 C.3    47  ASP47       0.1436
     61  CG        33.4280    1.9700  111.9510 C.2    47  ASP47       0.3671
     62  OD1       34.4150    1.4080  112.4610 O.co2  47  ASP47      -0.2456
     63  OD2       32.2660    1.7310  112.2970 O.co2  47  ASP47      -0.2456
     64  N         36.5110   -0.3360  108.6780 N.3    51  LEU51      -0.1245
     65  CA        37.3740   -0.1620  107.5080 C.3    51  LEU51       0.1561
     66  C         38.7250   -0.8260  107.7030 C.2    51  LEU51       0.2260
     67  O         39.5070   -0.8680  106.7900 O.2    51  LEU51      -0.2867
     68  CB        37.5860    1.3160  107.2080 C.3    51  LEU51       0.0270
     69  CG        36.3190    2.0600  106.7370 C.3    51  LEU51       0.0019
     70  CD1       36.4910    3.5960  106.7770 C.3    51  LEU51       0.0001
     71  CD2       35.8420    1.6510  105.3590 C.3    51  LEU51       0.0001
     72  N         41.4790    0.0810  109.7950 N.3    53  LEU53      -0.1245
     73  CA        42.4820    1.1100  109.7340 C.3    53  LEU53       0.1561
     74  C         43.0680    1.2610  111.1600 C.2    53  LEU53       0.2260
     75  O         42.7920    2.2150  111.8620 O.2    53  LEU53      -0.2867
     76  CB        41.8070    2.4310  109.3260 C.3    53  LEU53       0.0270
     77  CG        40.9780    2.4150  108.0470 C.3    53  LEU53       0.0019
     78  CD1       40.3500    3.8100  107.9230 C.3    53  LEU53       0.0001
     79  CD2       41.8150    2.0430  106.8560 C.3    53  LEU53       0.0001
     80  N         44.6530    4.7070  111.8290 N.3    56  TYR56      -0.1241
     81  CA        43.9850    5.9680  111.4820 C.3    56  TYR56       0.1605
     82  C         44.0230    6.9810  112.6300 C.2    56  TYR56       0.2264
     83  O         44.4220    8.1350  112.4320 O.2    56  TYR56      -0.2867
     84  CB        42.5480    5.7140  111.0480 C.3    56  TYR56       0.0534
     85  CG        41.9150    6.9690  110.4520 C.ar   56  TYR56      -0.0201
     86  CD1       42.1180    7.2980  109.1320 C.ar   56  TYR56      -0.0009
     87  CD2       41.1890    7.8480  111.2510 C.ar   56  TYR56      -0.0009
     88  CE1       41.5580    8.4640  108.5680 C.ar   56  TYR56       0.0417
     89  CE2       40.6640    9.0170  110.7550 C.ar   56  TYR56       0.0417
     90  CZ        40.8340    9.3470  109.4190 C.ar   56  TYR56       0.1957
     91  OH        40.2490   10.5200  108.9940 O.3    56  TYR56      -0.2866
     92  N         41.7070   13.3560  105.0580 N.3    95  CYS95      -0.1235
     93  CA        41.5440   12.3770  103.9940 C.3    95  CYS95       0.1677
     94  C         42.7870   12.3550  103.0820 C.2    95  CYS95       0.2270
     95  O         43.2640   11.2650  102.6580 O.2    95  CYS95      -0.2867
     96  CB        40.3190   12.6580  103.2190 C.3    95  CYS95       0.0956
     97  SG        39.8640   11.5860  101.8910 S.3    95  CYS95      -0.0801
     98  N         45.8270   10.6790  105.1240 N.3    98  TYR98      -0.1227
     99  CA        45.7740    9.2490  105.3450 C.3    98  TYR98       0.1736
    100  C         45.8520    8.4470  104.0810 C.2    98  TYR98       0.2595
    101  O         46.5320    7.4170  104.0320 O.2    98  TYR98      -0.2718
    102  CB        44.5110    8.8950  106.1940 C.3    98  TYR98       0.0548
    103  CG        44.6030    7.4790  106.6270 C.ar   98  TYR98      -0.0200
    104  CD1       45.3540    7.1100  107.7620 C.ar   98  TYR98      -0.0009
    105  CD2       44.0600    6.4860  105.8580 C.ar   98  TYR98      -0.0009
    106  CE1       45.5180    5.7670  108.1210 C.ar   98  TYR98       0.0417
    107  CE2       44.2210    5.1470  106.2020 C.ar   98  TYR98       0.0417
    108  CZ        44.9170    4.8050  107.3590 C.ar   98  TYR98       0.1957
    109  OH        45.0410    3.4600  107.6560 O.3    98  TYR98      -0.2866
    110  N         45.1650    8.9340  103.0500 N.am   99  ASN99      -0.1974
    111  CA        45.0860    8.3100  101.7710 C.3    99  ASN99       0.1688
    112  C         46.1630    8.8020  100.7820 C.2    99  ASN99       0.2292
    113  O         47.0710    9.4990  101.2030 O.2    99  ASN99      -0.2864
    114  CB        43.6790    8.4170  101.2470 C.3    99  ASN99       0.1181
    115  CG        42.6840    7.7800  102.2340 C.2    99  ASN99       0.2629
    116  OD1       42.7940    6.5790  102.5280 O.2    99  ASN99      -0.2716
    117  ND2       41.8190    8.5980  102.8410 N.am   99  ASN99      -0.0877
    118  N         38.7420    7.8730   97.0500 N.3   105  ILE105     -0.1245
    119  CA        38.2720    8.6640   98.1890 C.3   105  ILE105      0.1561
    120  C         38.8950   10.0880   98.1580 C.2   105  ILE105      0.2260
    121  O         38.2380   11.0870   98.4750 O.2   105  ILE105     -0.2867
    122  CB        38.5010    7.9330   99.5070 C.3   105  ILE105      0.0252
    123  CG1       37.9150    8.7280  100.6780 C.3   105  ILE105      0.0019
    124  CG2       40.0000    7.6340   99.7360 C.3   105  ILE105      0.0019
    125  CD1       36.4150    8.9700  100.5310 C.3   105  ILE105      0.0001
@<TRIPOS>BOND
     1   118   119    1
     2     9     7   ar
     3     9    10   ar
     4   120   119    1
     5   120   121    2
     6   119   122    1
     7    12    10   ar
     8    12    14   ar
     9     7     6   ar
    10    10     8   ar
    11    14    13   ar
    12   122   124    1
    13   122   123    1
    14     6     8   ar
    15     6     5    1
    16     8    11   ar
    17   125   123    1
    18    13    11   ar
    19    21    20    1
    20    21    15    1
    21    20    19    1
    22     1     2    1
    23   112   113    2
    24   112   111    1
    25     5     2    1
    26    31    32   ar
    27    31    29   ar
    28   114   111    1
    29   114   115    1
    30    32    30   ar
    31     2     3    1
    32   111   110    1
    33    29    27   ar
    34    97    96    1
    35    15     3   am
    36    15    16    1
    37    19    16    1
    38   115   116    2
    39   115   117   am
    40     3     4    2
    41    95    94    2
    42    30    28   ar
    43    16    17    1
    44   110   100   am
    45    94    93    1
    46    27    28   ar
    47    27    26    1
    48    96    93    1
    49    22    17   am
    50    22    23    1
    51    93    92    1
    52   101   100    2
    53    26    23    1
    54   100    99    1
    55    17    18    2
    56    23    24    1
    57    98    99    1
    58    99   102    1
    59    71    69    1
    60    24    25    2
    61   105   107   ar
    62   105   103   ar
    63   102   103    1
    64   107   108   ar
    65    41    39   am
    66   103   104   ar
    67    69    70    1
    68    69    68    1
    69    67    66    2
    70    79    77    1
    71    40    39    2
    72    68    65    1
    73    39    38    1
    74   108   109    1
    75   108   106   ar
    76    65    66    1
    77    65    64    1
    78   104   106   ar
    79    78    77    1
    80    77    76    1
    81    33    34    1
    82    55    53    1
    83    88    86   ar
    84    88    90   ar
    85    38    37    1
    86    36    35    2
    87    91    90    1
    88    86    85   ar
    89    76    73    1
    90    54    53    1
    91    90    89   ar
    92    34    37    1
    93    34    35    1
    94    53    50    1
    95    73    72    1
    96    73    74    1
    97    50    49    1
    98    50    51    1
    99    35    42   am
   100    59    58    2
   101    45    44    2
   102    49    44   am
   103    56    51   am
   104    56    57    1
   105    85    84    1
   106    85    87   ar
   107    44    43    1
   108    89    87   ar
   109    51    52    2
   110    60    57    1
   111    60    61    1
   112    58    57    1
   113    84    81    1
   114    42    43    1
   115    42    48    1
   116    74    75    2
   117    43    46    1
   118    81    80    1
   119    81    82    1
   120    61    63   ar
   121    61    62   ar
   122    48    47    1
   123    83    82    2
   124    46    47    1
