@<TRIPOS>MOLECULE
tmp/5lrtA00.pdb
 228 223 0 0 0
SMALL
GASTEIGER

@<TRIPOS>ATOM
      1  N          5.2110   73.2400   11.7010 N.3     4  VAL4       -0.1231
      2  CA         4.3760   73.6840   12.8340 C.3     4  VAL4        0.1692
      3  C          3.0810   72.8750   12.9100 C.2     4  VAL4        0.2592
      4  O          2.3190   72.7770   11.9380 O.2     4  VAL4       -0.2718
      5  CB         4.0810   75.1920   12.7510 C.3     4  VAL4        0.0266
      6  CG1        3.0360   75.5920   13.8480 C.3     4  VAL4        0.0020
      7  CG2        5.3490   76.0080   12.9060 C.3     4  VAL4        0.0020
      8  N          2.7860   72.3380   14.1050 N.am    5  MET5       -0.1965
      9  CA         1.6000   71.5280   14.3140 C.3     5  MET5        0.1736
     10  C          1.1470   71.6730   15.7720 C.2     5  MET5        0.2617
     11  O          1.8940   72.1660   16.6110 O.2     5  MET5       -0.2715
     12  CB         1.8690   70.0490   13.9530 C.3     5  MET5        0.0427
     13  CG         3.1010   69.4370   14.6440 C.3     5  MET5        0.0599
     14  SD         3.5420   67.7400   14.1630 S.3     5  MET5       -0.1393
     15  CE         4.3910   67.9400   12.5720 C.3     5  MET5        0.0692
     16  N         -0.0880   71.2430   16.0510 N.am    6  GLY6       -0.1940
     17  CA        -0.6030   71.2470   17.4260 C.3     6  GLY6        0.2014
     18  C         -1.8140   70.3500   17.5090 C.2     6  GLY6        0.2639
     19  O         -2.4500   70.0620   16.4950 O.2     6  GLY6       -0.2714
     20  N         -2.1630   69.9160   18.7260 N.am    7  ILE7       -0.1963
     21  CA        -3.2950   68.9960   18.9110 C.3     7  ILE7        0.1727
     22  C         -4.2800   69.6290   19.8860 C.2     7  ILE7        0.2616
     23  O         -3.8730   70.1010   20.9530 O.2     7  ILE7       -0.2715
     24  CB        -2.8570   67.6160   19.4410 C.3     7  ILE7        0.0290
     25  CG1       -1.8250   66.9430   18.4780 C.3     7  ILE7        0.0022
     26  CG2       -4.0810   66.6930   19.5910 C.3     7  ILE7        0.0023
     27  CD1       -1.1040   65.7650   19.1310 C.3     7  ILE7        0.0001
     28  N         -5.5600   69.6670   19.5110 N.am    8  GLU8       -0.1977
     29  CA        -6.6360   70.0230   20.4340 C.3     8  GLU8        0.1602
     30  C         -7.2970   68.7400   20.9000 C.2     8  GLU8        0.2287
     31  O         -7.6240   67.8950   20.0720 O.2     8  GLU8       -0.2864
     32  CB        -7.7090   70.8730   19.7470 C.3     8  GLU8        0.0415
     33  CG        -7.2580   72.1140   18.9930 C.3     8  GLU8        0.1163
     34  CD        -8.3700   72.4930   18.0000 C.2     8  GLU8        0.3649
     35  OE1       -9.4640   72.8250   18.4850 O.co2   8  GLU8       -0.2457
     36  OE2       -8.1940   72.3170   16.7660 O.co2   8  GLU8       -0.2457
     37  N         -3.5440   76.4090   25.2670 N.3    54  ARG54      -0.1245
     38  CA        -4.8520   76.9490   25.6260 C.3    54  ARG54       0.1563
     39  C         -5.6520   75.8800   26.3690 C.2    54  ARG54       0.2260
     40  O         -5.6230   74.6970   25.9960 O.2    54  ARG54      -0.2867
     41  CB        -5.5960   77.4150   24.3610 C.3    54  ARG54       0.0307
     42  CG        -6.9260   78.0880   24.5890 C.3    54  ARG54       0.0489
     43  CD        -7.5740   78.5010   23.2300 C.3    54  ARG54       0.2205
     44  NE        -8.9280   79.0360   23.4240 N.pl3  54  ARG54      -0.0865
     45  CZ        -9.8560   79.0940   22.4660 C.cat  54  ARG54       0.5346
     46  NH1       -9.5990   78.6240   21.2350 N.pl3  54  ARG54       0.1354
     47  NH2      -11.0580   79.6050   22.7370 N.pl3  54  ARG54       0.1354
     48  N         -9.6050   75.4590   27.9010 N.3    56  TYR56      -0.1241
     49  CA       -10.8620   76.2020   27.8380 C.3    56  TYR56       0.1605
     50  C        -12.0650   75.2750   27.7750 C.2    56  TYR56       0.2264
     51  O        -11.9480   74.0700   27.5270 O.2    56  TYR56      -0.2867
     52  CB       -10.8780   77.1670   26.6520 C.3    56  TYR56       0.0534
     53  CG       -11.0170   76.6270   25.2180 C.ar   56  TYR56      -0.0201
     54  CD1       -9.9540   75.9660   24.5750 C.ar   56  TYR56      -0.0009
     55  CD2      -12.1860   76.8720   24.4820 C.ar   56  TYR56      -0.0009
     56  CE1      -10.0620   75.5520   23.1770 C.ar   56  TYR56       0.0417
     57  CE2      -12.3130   76.4780   23.1280 C.ar   56  TYR56       0.0417
     58  CZ       -11.2440   75.8220   22.4900 C.ar   56  TYR56       0.1957
     59  OH       -11.3510   75.4670   21.1550 O.3    56  TYR56      -0.2866
     60  N        -15.0400   74.2270   25.7760 N.3    58  ASP58      -0.1239
     61  CA       -15.5820   74.2860   24.4170 C.3    58  ASP58       0.1674
     62  C        -16.9750   73.6820   24.5040 C.2    58  ASP58       0.2266
     63  O        -17.1630   72.4730   24.4030 O.2    58  ASP58      -0.2867
     64  CB       -14.6980   73.5750   23.3930 C.3    58  ASP58       0.1410
     65  CG       -15.1500   73.8630   21.9680 C.2    58  ASP58       0.3668
     66  OD1      -16.0230   74.7340   21.8000 O.co2  58  ASP58      -0.2456
     67  OD2      -14.6490   73.2330   21.0250 O.co2  58  ASP58      -0.2456
     68  N        -11.2740   71.5180   27.1280 N.3    63  GLU63      -0.1245
     69  CA       -10.4070   71.3120   25.9610 C.3    63  GLU63       0.1567
     70  C         -9.0100   71.8310   26.2580 C.2    63  GLU63       0.2260
     71  O         -8.8540   72.9360   26.7890 O.2    63  GLU63      -0.2867
     72  CB       -10.9950   72.0320   24.7170 C.3    63  GLU63       0.0388
     73  CG       -10.1110   71.8500   23.4530 C.3    63  GLU63       0.1160
     74  CD       -10.7760   72.3920   22.1910 C.2    63  GLU63       0.3649
     75  OE1      -10.0640   72.9120   21.3150 O.co2  63  GLU63      -0.2457
     76  OE2      -12.0130   72.2730   22.1060 O.co2  63  GLU63      -0.2457
     77  N         -5.4390   72.5460   24.1860 N.3    65  SER65      -0.1202
     78  CA        -4.8430   72.6960   22.8560 C.3    65  SER65       0.2020
     79  C         -3.3570   72.9770   23.0190 C.2    65  SER65       0.2619
     80  O         -2.9830   73.9650   23.6590 O.2    65  SER65      -0.2717
     81  CB        -5.5370   73.8160   22.0950 C.3    65  SER65       0.2103
     82  OG        -6.9510   73.5550   22.0440 O.3    65  SER65      -0.2182
     83  N         -2.5150   72.0850   22.4810 N.am   66  THR66      -0.1939
     84  CA        -1.0750   72.1930   22.7190 C.3    66  THR66       0.2013
     85  C         -0.5350   73.5390   22.2440 C.2    66  THR66       0.2484
     86  O         -1.0840   74.1460   21.3120 O.2    66  THR66      -0.2729
     87  CB        -0.2720   71.1170   21.9830 C.3    66  THR66       0.1807
     88  OG1       -0.4000   71.3360   20.5660 O.3    66  THR66      -0.2208
     89  CG2       -0.7170   69.7290   22.3660 C.3    66  THR66       0.0379
     90  N          0.5800   74.0020   22.8270 N.am   67  PRO67      -0.2715
     91  CA         1.3810   75.0070   22.1390 C.3    67  PRO67       0.1536
     92  C          1.7770   74.4710   20.7690 C.2    67  PRO67       0.2598
     93  O          1.7140   73.2630   20.5040 O.2    67  PRO67      -0.2715
     94  CB         2.6090   75.1840   23.0510 C.3    67  PRO67       0.0310
     95  CG         2.7510   73.7930   23.6930 C.3    67  PRO67       0.0237
     96  CD         1.2920   73.4660   24.0060 C.3    67  PRO67       0.0939
     97  N          2.1060   75.4020   19.8790 N.am   68  GLU68      -0.1978
     98  CA         2.6920   75.0250   18.5830 C.3    68  GLU68       0.1602
     99  C          4.0380   74.3220   18.7880 C.2    68  GLU68       0.2287
    100  O          4.9020   74.7920   19.5520 O.2    68  GLU68      -0.2864
    101  CB         2.8730   76.2760   17.7110 C.3    68  GLU68       0.0415
    102  CG         1.5870   77.0990   17.4750 C.3    68  GLU68       0.1163
    103  CD         1.4070   78.2280   18.4910 C.2    68  GLU68       0.3649
    104  OE1        1.8480   78.0690   19.6540 O.co2  68  GLU68      -0.2457
    105  OE2        0.8410   79.2810   18.1390 O.co2  68  GLU68      -0.2457
    106  N         -3.6320   70.0390   13.9390 N.3   121  ASN121     -0.1225
    107  CA        -3.4470   71.2890   13.2110 C.3   121  ASN121      0.1785
    108  C         -2.0760   71.2600   12.5680 C.2   121  ASN121      0.2597
    109  O         -1.1000   70.8990   13.2340 O.2   121  ASN121     -0.2718
    110  CB        -3.6060   72.4460   14.2010 C.3   121  ASN121      0.1169
    111  CG        -5.0280   72.5580   14.6640 C.2   121  ASN121      0.2627
    112  OD1       -5.8430   73.1410   13.9650 O.2   121  ASN121     -0.2716
    113  ND2       -5.3480   71.9240   15.7960 N.am  121  ASN121     -0.0877
    114  N         -2.0030   71.5920   11.2680 N.am  122  TYR122     -0.1962
    115  CA        -0.7590   71.5380   10.5130 C.3   122  TYR122      0.1771
    116  C         -0.5840   72.8290    9.7350 C.2   122  TYR122      0.2619
    117  O         -1.4820   73.2210    8.9770 O.2   122  TYR122     -0.2715
    118  CB        -0.7450   70.3680    9.5130 C.3   122  TYR122      0.0574
    119  CG        -0.9770   69.0020   10.1460 C.ar  122  TYR122     -0.0198
    120  CD1        0.1020   68.2580   10.6220 C.ar  122  TYR122     -0.0009
    121  CD2       -2.2710   68.4670   10.2550 C.ar  122  TYR122     -0.0009
    122  CE1       -0.0730   67.0100   11.1840 C.ar  122  TYR122      0.0417
    123  CE2       -2.4790   67.2120   10.8150 C.ar  122  TYR122      0.0417
    124  CZ        -1.3690   66.4860   11.2840 C.ar  122  TYR122      0.1957
    125  OH        -1.5560   65.2550   11.8460 O.3   122  TYR122     -0.2866
    126  N          0.5740   73.4800    9.9160 N.am  123  LEU123     -0.1977
    127  CA         0.8730   74.6850    9.1560 C.3   123  LEU123      0.1596
    128  C          1.1630   74.2940    7.7160 C.2   123  LEU123      0.2287
    129  O          1.9900   73.4110    7.4660 O.2   123  LEU123     -0.2864
    130  CB         2.0720   75.4320    9.7600 C.3   123  LEU123      0.0297
    131  CG         2.5300   76.7250    9.0700 C.3   123  LEU123      0.0022
    132  CD1        1.4220   77.7470    9.0930 C.3   123  LEU123      0.0001
    133  CD2        3.8020   77.3030    9.7330 C.3   123  LEU123      0.0001
    134  N        -12.5310   74.8040    7.9290 N.3   191  ARG191     -0.1245
    135  CA       -12.2750   75.9980    8.7370 C.3   191  ARG191      0.1563
    136  C        -10.9200   76.5980    8.3820 C.2   191  ARG191      0.2260
    137  O         -9.9250   75.8820    8.2670 O.2   191  ARG191     -0.2867
    138  CB       -12.3170   75.6910   10.2380 C.3   191  ARG191      0.0307
    139  CG       -12.1180   76.9610   11.0820 C.3   191  ARG191      0.0489
    140  CD       -12.0210   76.7250   12.6130 C.3   191  ARG191      0.2205
    141  NE       -13.2310   76.0900   13.1270 N.pl3 191  ARG191     -0.0865
    142  CZ       -13.3030   75.4900   14.3060 C.cat 191  ARG191      0.5346
    143  NH1      -12.2370   75.4630   15.0800 N.pl3 191  ARG191      0.1354
    144  NH2      -14.4420   74.9230   14.7150 N.pl3 191  ARG191      0.1354
    145  N         -8.8780   79.5190    9.8730 N.3   193  GLU193     -0.1231
    146  CA        -8.5420   80.5120   10.8930 C.3   193  GLU193      0.1684
    147  C         -7.0690   80.2700   11.2140 C.2   193  GLU193      0.2434
    148  O         -6.7260   79.5180   12.1420 O.2   193  GLU193     -0.2733
    149  CB        -9.4500   80.3780   12.1240 C.3   193  GLU193      0.0402
    150  CG        -9.0440   81.2650   13.3110 C.3   193  GLU193      0.1161
    151  CD        -9.7830   80.9520   14.6340 C.2   193  GLU193      0.3649
    152  OE1      -10.3860   81.8840   15.2140 O.co2 193  GLU193     -0.2457
    153  OE2       -9.7390   79.7970   15.1220 O.co2 193  GLU193     -0.2457
    154  N         -6.1670   80.8460   10.4200 N.am  194  PRO194     -0.2718
    155  CA        -4.7710   80.3960   10.4540 C.3   194  PRO194      0.1535
    156  C         -3.9750   80.8630   11.6560 C.2   194  PRO194      0.2599
    157  O         -2.9200   80.2700   11.9250 O.2   194  PRO194     -0.2715
    158  CB        -4.1800   80.9830    9.1590 C.3   194  PRO194      0.0310
    159  CG        -5.0530   82.1490    8.8440 C.3   194  PRO194      0.0237
    160  CD        -6.4290   81.7830    9.3080 C.3   194  PRO194      0.0939
    161  N         -4.4130   81.9140   12.3600 N.am  195  HIS195     -0.1960
    162  CA        -3.6330   82.4740   13.4710 C.3   195  HIS195      0.1787
    163  C         -2.2290   82.8360   12.9950 C.2   195  HIS195      0.2620
    164  O         -1.2330   82.6240   13.6930 O.2   195  HIS195     -0.2715
    165  CB        -3.5990   81.5040   14.6610 C.3   195  HIS195      0.0785
    166  CG        -4.9460   81.2680   15.2610 C.ar  195  HIS195      0.0821
    167  ND1       -5.7120   82.2920   15.7750 N.ar  195  HIS195     -0.2267
    168  CD2       -5.6740   80.1350   15.4180 C.ar  195  HIS195      0.1154
    169  CE1       -6.8600   81.8020   16.2140 C.ar  195  HIS195      0.1986
    170  NE2       -6.8600   80.4950   16.0150 N.ar  195  HIS195     -0.2212
    171  N         -2.1650   83.3660   11.7720 N.am  196  ALA196     -0.1977
    172  CA        -0.9380   83.7900   11.1020 C.3   196  ALA196      0.1597
    173  C         -1.3690   84.5270    9.8450 C.2   196  ALA196      0.2287
    174  O         -2.5630   84.6110    9.5470 O.2   196  ALA196     -0.2864
    175  CB        -0.0240   82.6080   10.7740 C.3   196  ALA196      0.0319
    176  N         -3.6820   77.1330    8.4210 N.3   203  ARG203     -0.1245
    177  CA        -3.7280   76.1090    9.4640 C.3   203  ARG203      0.1563
    178  C         -4.7200   75.0550    8.9820 C.2   203  ARG203      0.2260
    179  O         -5.9390   75.2660    9.0170 O.2   203  ARG203     -0.2867
    180  CB        -4.1490   76.7110   10.8040 C.3   203  ARG203      0.0307
    181  CG        -4.4440   75.6620   11.8840 C.3   203  ARG203      0.0489
    182  CD        -4.6770   76.3120   13.2400 C.3   203  ARG203      0.2205
    183  NE        -5.9070   77.1090   13.3350 N.pl3 203  ARG203     -0.0865
    184  CZ        -7.0200   76.7570   14.0070 C.cat 203  ARG203      0.5346
    185  NH1       -7.1370   75.5620   14.6080 N.pl3 203  ARG203      0.1354
    186  NH2       -8.0380   77.6230   14.0760 N.pl3 203  ARG203      0.1354
    187  N         -7.0220   72.2160    9.4430 N.3   205  HIS205     -0.1241
    188  CA        -7.7650   71.8750   10.6570 C.3   205  HIS205      0.1621
    189  C         -8.3790   70.4880   10.4610 C.2   205  HIS205      0.2264
    190  O         -9.4240   70.3460    9.8200 O.2   205  HIS205     -0.2867
    191  CB        -8.8330   72.9420   10.9140 C.3   205  HIS205      0.0745
    192  CG        -9.5850   72.7570   12.1970 C.ar  205  HIS205      0.0817
    193  ND1      -10.9580   72.6020   12.2370 N.ar  205  HIS205     -0.2268
    194  CD2       -9.1590   72.7420   13.4890 C.ar  205  HIS205      0.1154
    195  CE1      -11.3480   72.4900   13.5040 C.ar  205  HIS205      0.1986
    196  NE2      -10.2770   72.5630   14.2820 N.ar  205  HIS205     -0.2212
    197  N          6.8070   80.1750   18.3200 N.3   397  ARG397     -0.1245
    198  CA         6.3700   81.3590   19.0550 C.3   397  ARG397      0.1563
    199  C          5.7400   81.0050   20.3950 C.2   397  ARG397      0.2260
    200  O          5.5730   81.8930   21.2320 O.2   397  ARG397     -0.2867
    201  CB         5.3720   82.1790   18.2240 C.3   397  ARG397      0.0307
    202  CG         4.0860   81.3930   17.9420 C.3   397  ARG397      0.0489
    203  CD         3.0420   82.2150   17.2200 C.3   397  ARG397      0.2205
    204  NE         1.9400   81.3730   16.7620 N.pl3 397  ARG397     -0.0865
    205  CZ         1.0870   81.6950   15.7900 C.cat 397  ARG397      0.5346
    206  NH1        1.1820   82.8590   15.1480 N.pl3 397  ARG397      0.1354
    207  NH2        0.1270   80.8420   15.4630 N.pl3 397  ARG397      0.1354
    208  N         -3.0360   82.8170   20.4680 N.3   417  TRP417     -0.1241
    209  CA        -2.0320   82.3060   19.5180 C.3   417  TRP417      0.1605
    210  C         -1.2720   83.4380   18.8460 C.2   417  TRP417      0.2264
    211  O         -0.0710   83.3170   18.5580 O.2   417  TRP417     -0.2867
    212  CB        -2.6850   81.4200   18.4270 C.3   417  TRP417      0.0550
    213  CG        -3.4920   80.3300   19.0310 C.ar  417  TRP417      0.0003
    214  CD1       -4.8590   80.1800   18.9480 C.ar  417  TRP417      0.0946
    215  CD2       -3.0190   79.2560   19.8710 C.ar  417  TRP417      0.0152
    216  NE1       -5.2560   79.0760   19.6680 N.ar  417  TRP417     -0.2442
    217  CE2       -4.1570   78.4820   20.2310 C.ar  417  TRP417      0.0810
    218  CE3       -1.7400   78.8410   20.3140 C.ar  417  TRP417      0.0012
    219  CZ2       -4.0780   77.3400   21.0740 C.ar  417  TRP417      0.0191
    220  CZ3       -1.6550   77.6930   21.1350 C.ar  417  TRP417      0.0001
    221  CH2       -2.8260   76.9720   21.5210 C.ar  417  TRP417      0.0015
    222  N          4.4820   81.9130   13.1970 N.3   438  PRO438     -0.2116
    223  CA         4.6020   80.7540   14.0950 C.3   438  PRO438      0.1372
    224  C          6.0280   80.3760   14.4210 C.2   438  PRO438      0.2244
    225  O          6.2640   79.7270   15.4520 O.2   438  PRO438     -0.2868
    226  CB         3.9090   79.6440   13.3000 C.3   438  PRO438      0.0268
    227  CG         2.9200   80.3560   12.4860 C.3   438  PRO438      0.0207
    228  CD         3.5530   81.6500   12.0900 C.3   438  PRO438      0.0892
@<TRIPOS>BOND
     1   129   128    2
     2   128   127    1
     3   134   135    1
     4   137   136    2
     5   136   135    1
     6   176   177    1
     7   135   138    1
     8   159   158    1
     9   159   160    1
    10   117   116    2
    11   178   179    2
    12   178   177    1
    13   131   132    1
    14   131   133    1
    15   131   130    1
    16   127   130    1
    17   127   126    1
    18   158   155    1
    19   160   154    1
    20   187   188    1
    21   177   180    1
    22   118   119    1
    23   118   115    1
    24   174   173    2
    25   116   126   am
    26   116   115    1
    27   190   189    2
    28   173   172    1
    29   145   146    1
    30   119   121   ar
    31   119   120   ar
    32   138   139    1
    33   121   123   ar
    34   154   155    1
    35   154   147   am
    36   155   156    1
    37   189   188    1
    38   115   114    1
    39   120   122   ar
    40   188   191    1
    41   175   172    1
    42   180   181    1
    43   123   124   ar
    44   146   147    1
    45   146   149    1
    46   191   192    1
    47   139   140    1
    48   172   171    1
    49   122   124   ar
    50   147   148    2
    51   114   108   am
    52   124   125    1
    53   156   157    2
    54   156   161   am
    55     1     2    1
    56   171   163   am
    57   181   182    1
    58     4     3    2
    59   228   227    1
    60   228   222    1
    61   149   150    1
    62   192   193   ar
    63   192   194   ar
    64   193   195   ar
    65   161   162    1
    66   227   226    1
    67   108   107    1
    68   108   109    2
    69    15    14    1
    70   140   141    1
    71     5     2    1
    72     5     7    1
    73     5     6    1
    74     2     3    1
    75     3     8   am
    76   163   162    1
    77   163   164    2
    78   141   142    2
    79   222   223    1
    80   107   106    1
    81   107   110    1
    82   182   183    1
    83   226   223    1
    84   150   151    1
    85   183   184    2
    86   162   165    1
    87   194   196   ar
    88   195   196   ar
    89    12     9    1
    90    12    13    1
    91   112   111    2
    92   184   186    1
    93   184   185    1
    94   223   224    1
    95     8     9    1
    96    14    13    1
    97   110   111    1
    98   142   144    1
    99   142   143    1
   100     9    10    1
   101   224   225    2
   102   151   153   ar
   103   151   152   ar
   104   165   166    1
   105   111   113   am
   106   206   205    1
   107   166   168   ar
   108   166   167   ar
   109   168   170   ar
   110   207   205    1
   111    10    16   am
   112    10    11    2
   113   167   169   ar
   114   205   204    2
   115   170   169   ar
   116    16    17    1
   117    19    18    2
   118   204   203    1
   119    36    34   ar
   120   203   202    1
   121    17    18    1
   122   102   101    1
   123   102   103    1
   124    18    20   am
   125   101    98    1
   126   202   201    1
   127    34    35   ar
   128    34    33    1
   129   105   103   ar
   130   201   198    1
   131   197   198    1
   132   212   213    1
   133   212   209    1
   134    25    27    1
   135    25    24    1
   136   103   104   ar
   137   211   210    2
   138    98    99    1
   139    98    97    1
   140    20    21    1
   141    99   100    2
   142   210   209    1
   143    21    24    1
   144    21    22    1
   145   214   213   ar
   146   214   216   ar
   147    33    32    1
   148   213   215   ar
   149   198   199    1
   150    24    26    1
   151    28    22   am
   152    28    29    1
   153   209   208    1
   154   216   217   ar
   155    32    29    1
   156   215   217   ar
   157   215   218   ar
   158    97    92   am
   159    22    23    2
   160    31    30    2
   161   217   219   ar
   162   218   220   ar
   163   199   200    2
   164    29    30    1
   165    93    92    2
   166    88    87    1
   167    92    91    1
   168    67    65   ar
   169   219   221   ar
   170   220   221   ar
   171    59    58    1
   172    46    45    1
   173    86    85    2
   174    75    74   ar
   175    66    65   ar
   176    65    64    1
   177    87    89    1
   178    87    84    1
   179    82    81    1
   180    81    78    1
   181    76    74   ar
   182    91    90    1
   183    91    94    1
   184    74    73    1
   185    85    84    1
   186    85    90   am
   187    45    47    1
   188    45    44    2
   189    83    84    1
   190    83    79   am
   191    58    57   ar
   192    58    56   ar
   193    90    96    1
   194    78    79    1
   195    78    77    1
   196    79    80    2
   197    94    95    1
   198    57    55   ar
   199    56    54   ar
   200    43    44    1
   201    43    42    1
   202    64    61    1
   203    73    72    1
   204    95    96    1
   205    41    42    1
   206    41    38    1
   207    63    62    2
   208    61    62    1
   209    61    60    1
   210    55    53   ar
   211    54    53   ar
   212    72    69    1
   213    53    52    1
   214    37    38    1
   215    38    39    1
   216    69    70    1
   217    69    68    1
   218    40    39    2
   219    70    71    2
   220    52    49    1
   221    51    50    2
   222    50    49    1
   223    49    48    1
