@<TRIPOS>MOLECULE
tmp/5lrtA01.pdb
 104 96 0 0 0
SMALL
GASTEIGER

@<TRIPOS>ATOM
      1  N          0.3840   45.2130   20.4330 N.3   322  SER322     -0.1202
      2  CA        -0.3370   45.6100   21.6370 C.3   322  SER322      0.2020
      3  C          0.4380   46.6020   22.5100 C.2   322  SER322      0.2618
      4  O         -0.1710   47.2660   23.3550 O.2   322  SER322     -0.2717
      5  CB        -0.6880   44.3720   22.4430 C.3   322  SER322      0.2103
      6  OG         0.4950   43.6660   22.7560 O.3   322  SER322     -0.2182
      7  N          1.7550   46.7440   22.3220 N.am  323  ARG323     -0.1979
      8  CA         2.5150   47.7480   23.0580 C.3   323  ARG323      0.1597
      9  C          2.5150   49.1010   22.3630 C.2   323  ARG323      0.2287
     10  O          3.0380   50.0700   22.9300 O.2   323  ARG323     -0.2864
     11  CB         3.9790   47.2920   23.2640 C.3   323  ARG323      0.0334
     12  CG         4.1270   46.0890   24.1860 C.3   323  ARG323      0.0492
     13  CD         5.5830   45.6190   24.2880 C.3   323  ARG323      0.2205
     14  NE         6.3940   46.6830   24.8670 N.pl3 323  ARG323     -0.0865
     15  CZ         6.5930   46.8390   26.1720 C.cat 323  ARG323      0.5346
     16  NH1        6.0730   45.9700   27.0350 N.pl3 323  ARG323      0.1354
     17  NH2        7.3180   47.8600   26.6100 N.pl3 323  ARG323      0.1354
     18  N         -4.0840   47.3390   22.0710 N.3   329  ALA329     -0.1245
     19  CA        -3.9910   47.1900   23.5260 C.3   329  ALA329      0.1562
     20  C         -5.3780   47.0700   24.1580 C.2   329  ALA329      0.2260
     21  O         -5.6150   46.2010   25.0010 O.2   329  ALA329     -0.2867
     22  CB        -3.2290   48.3790   24.1320 C.3   329  ALA329      0.0290
     23  N         -6.9860   43.7940   23.4190 N.3   332  SER332     -0.1202
     24  CA        -6.3680   42.7560   24.2290 C.3   332  SER332      0.2020
     25  C         -7.0040   42.6840   25.5980 C.2   332  SER332      0.2618
     26  O         -7.3470   41.5990   26.0860 O.2   332  SER332     -0.2717
     27  CB        -4.8790   43.0320   24.3560 C.3   332  SER332      0.2103
     28  OG        -4.2620   42.7750   23.1240 O.3   332  SER332     -0.2182
     29  N         -7.1780   43.8410   26.2260 N.am  333  ILE333     -0.1979
     30  CA        -7.8630   43.9100   27.5120 C.3   333  ILE333      0.1595
     31  C         -9.2800   43.3660   27.3870 C.2   333  ILE333      0.2287
     32  O         -9.7290   42.5690   28.2200 O.2   333  ILE333     -0.2864
     33  CB        -7.8770   45.3600   28.0240 C.3   333  ILE333      0.0276
     34  CG1       -6.4440   45.8640   28.2910 C.3   333  ILE333      0.0022
     35  CG2       -8.7700   45.4600   29.2640 C.3   333  ILE333      0.0022
     36  CD1       -6.3740   47.4200   28.3740 C.3   333  ILE333      0.0001
     37  N        -12.3050   35.5500   30.3460 N.3   340  ARG340     -0.1245
     38  CA       -12.4460   35.2700   31.7720 C.3   340  ARG340      0.1563
     39  C        -13.9040   35.1370   32.1720 C.2   340  ARG340      0.2260
     40  O        -14.2500   34.2760   32.9870 O.2   340  ARG340     -0.2867
     41  CB       -11.7920   36.3670   32.6140 C.3   340  ARG340      0.0307
     42  CG       -10.2740   36.3460   32.6610 C.3   340  ARG340      0.0489
     43  CD        -9.7550   37.3350   33.7100 C.3   340  ARG340      0.2205
     44  NE       -10.2510   38.6990   33.5210 N.pl3 340  ARG340     -0.0865
     45  CZ        -9.7010   39.5900   32.6910 C.cat 340  ARG340      0.5346
     46  NH1       -8.6410   39.2670   31.9620 N.pl3 340  ARG340      0.1354
     47  NH2      -10.2110   40.8070   32.5840 N.pl3 340  ARG340      0.1354
     48  N         -6.8940   52.5530   32.2680 N.3   366  LEU366     -0.1245
     49  CA        -6.2840   51.2530   31.9780 C.3   366  LEU366      0.1561
     50  C         -5.0100   51.4220   31.1710 C.2   366  LEU366      0.2260
     51  O         -4.0350   50.6770   31.3710 O.2   366  LEU366     -0.2867
     52  CB        -7.2780   50.3440   31.2420 C.3   366  LEU366      0.0270
     53  CG        -8.6310   50.1560   31.9440 C.3   366  LEU366      0.0019
     54  CD1       -9.4490   49.0440   31.2180 C.3   366  LEU366      0.0001
     55  CD2       -8.4460   49.7750   33.4400 C.3   366  LEU366      0.0001
     56  N         -2.5030   52.2570   33.7110 N.3   369  ARG369     -0.1231
     57  CA        -2.0890   51.0790   34.4650 C.3   369  ARG369      0.1694
     58  C         -1.1380   50.1960   33.6630 C.2   369  ARG369      0.2591
     59  O         -0.2560   49.5680   34.2500 O.2   369  ARG369     -0.2718
     60  CB        -3.3210   50.2910   34.9280 C.3   369  ARG369      0.0321
     61  CG        -4.0880   51.0030   36.0830 C.3   369  ARG369      0.0489
     62  CD        -4.5040   50.0500   37.2020 C.3   369  ARG369      0.2205
     63  NE        -5.5070   49.0760   36.7880 N.pl3 369  ARG369     -0.0865
     64  CZ        -6.8160   49.2660   36.9290 C.cat 369  ARG369      0.5346
     65  NH1       -7.2690   50.3920   37.4840 N.pl3 369  ARG369      0.1354
     66  NH2       -7.6820   48.3270   36.5360 N.pl3 369  ARG369      0.1354
     67  N         -1.2950   50.1230   32.3340 N.am  370  LEU370     -0.1980
     68  CA        -0.3200   49.3980   31.5190 C.3   370  LEU370      0.1596
     69  C          1.0500   50.0830   31.5670 C.2   370  LEU370      0.2287
     70  O          2.0860   49.4240   31.7450 O.2   370  LEU370     -0.2864
     71  CB        -0.8200   49.2860   30.0720 C.3   370  LEU370      0.0297
     72  CG        -2.0410   48.4130   29.7610 C.3   370  LEU370      0.0022
     73  CD1       -2.5820   48.6730   28.3570 C.3   370  LEU370      0.0001
     74  CD2       -1.6560   46.9080   29.8900 C.3   370  LEU370      0.0001
     75  N          3.0950   49.4220   34.5200 N.3   373  ARG373     -0.1245
     76  CA         3.7490   48.1270   34.4600 C.3   373  ARG373      0.1563
     77  C          4.7780   48.0370   33.3350 C.2   373  ARG373      0.2260
     78  O          5.2570   46.9390   33.0400 O.2   373  ARG373     -0.2867
     79  CB         2.7010   47.0220   34.3170 C.3   373  ARG373      0.0307
     80  CG         1.8130   46.8830   35.5390 C.3   373  ARG373      0.0489
     81  CD         0.4370   46.3360   35.1610 C.3   373  ARG373      0.2205
     82  NE        -0.3920   46.0950   36.3400 N.pl3 373  ARG373     -0.0865
     83  CZ        -1.0000   47.0410   37.0590 C.cat 373  ARG373      0.5346
     84  NH1       -0.8800   48.3320   36.7500 N.pl3 373  ARG373      0.1354
     85  NH2       -1.7330   46.6960   38.1110 N.pl3 373  ARG373      0.1354
     86  N          4.3780   48.3080   30.1410 N.3   375  ARG375     -0.1231
     87  CA         3.8170   47.4390   29.1200 C.3   375  ARG375      0.1694
     88  C          3.4960   48.1660   27.8250 C.2   375  ARG375      0.2591
     89  O          2.9250   47.5530   26.9150 O.2   375  ARG375     -0.2718
     90  CB         2.5510   46.7620   29.6430 C.3   375  ARG375      0.0321
     91  CG         2.8570   45.7210   30.6770 C.3   375  ARG375      0.0489
     92  CD         1.6110   45.0330   31.1320 C.3   375  ARG375      0.2205
     93  NE         0.9370   44.3540   30.0420 N.pl3 375  ARG375     -0.0865
     94  CZ         0.0970   43.3480   30.2240 C.cat 375  ARG375      0.5346
     95  NH1       -0.1280   42.8880   31.4460 N.pl3 375  ARG375      0.1354
     96  NH2       -0.4910   42.7820   29.1920 N.pl3 375  ARG375      0.1354
     97  N          3.8330   49.4530   27.7210 N.am  376  MET376     -0.1979
     98  CA         3.5920   50.1950   26.5000 C.3   376  MET376      0.1605
     99  C          4.9020   50.8150   26.0640 C.2   376  MET376      0.2287
    100  O          5.6960   51.2520   26.9010 O.2   376  MET376     -0.2864
    101  CB         2.5090   51.2680   26.7170 C.3   376  MET376      0.0413
    102  CG         1.1360   50.6490   27.0580 C.3   376  MET376      0.0598
    103  SD         0.4350   49.5930   25.7680 S.3   376  MET376     -0.1393
    104  CE        -0.1540   50.8170   24.6030 C.3   376  MET376      0.0692
@<TRIPOS>BOND
     1     1     2    1
     2     2     5    1
     3     2     3    1
     4    18    19    1
     5     7     3   am
     6     7     8    1
     7     9    10    2
     8     9     8    1
     9     5     6    1
    10     3     4    2
    11     8    11    1
    12    28    27    1
    13    11    12    1
    14    23    24    1
    15    19    22    1
    16    19    20    1
    17    20    21    2
    18    12    13    1
    19    24    27    1
    20    24    25    1
    21    13    14    1
    22   104   103    1
    23    14    15    2
    24    25    26    2
    25    25    29   am
    26   103   102    1
    27    99    98    1
    28    99   100    2
    29    15    17    1
    30    15    16    1
    31    29    30    1
    32    98   101    1
    33    98    97    1
    34   101   102    1
    35    89    88    2
    36    31    30    1
    37    31    32    2
    38    30    33    1
    39    97    88   am
    40    88    87    1
    41    33    34    1
    42    33    35    1
    43    34    36    1
    44    73    72    1
    45    87    90    1
    46    87    86    1
    47    96    94    1
    48    90    91    1
    49    72    74    1
    50    72    71    1
    51    93    94    2
    52    93    92    1
    53    71    68    1
    54    94    95    1
    55    37    38    1
    56    91    92    1
    57    50    51    2
    58    50    49    1
    59    54    53    1
    60    52    53    1
    61    52    49    1
    62    68    69    1
    63    68    67    1
    64    69    70    2
    65    38    39    1
    66    38    41    1
    67    53    55    1
    68    46    45    1
    69    49    48    1
    70    39    40    2
    71    67    58   am
    72    47    45    1
    73    41    42    1
    74    42    43    1
    75    45    44    2
    76    78    77    2
    77    77    76    1
    78    44    43    1
    79    58    59    2
    80    58    57    1
    81    56    57    1
    82    79    76    1
    83    79    80    1
    84    76    75    1
    85    57    60    1
    86    60    61    1
    87    81    80    1
    88    81    82    1
    89    61    62    1
    90    82    83    2
    91    66    64    1
    92    84    83    1
    93    63    64    2
    94    63    62    1
    95    64    65    1
    96    83    85    1
