@<TRIPOS>MOLECULE
tmp/5lrzA00.pdb
 209 198 0 0 0
SMALL
GASTEIGER

@<TRIPOS>ATOM
      1  N         16.8490   20.4690   28.9680 N.3     5  ALA5       -0.1231
      2  CA        17.5540   20.3050   27.7030 C.3     5  ALA5        0.1694
      3  C         17.3150   18.9110   27.1700 C.2     5  ALA5        0.2592
      4  O         17.3150   17.9730   27.9630 O.2     5  ALA5       -0.2718
      5  CB        19.0610   20.5220   27.9130 C.3     5  ALA5        0.0304
      6  N         17.0730   18.7660   25.8340 N.am    6  PHE6       -0.1962
      7  CA        16.9480   17.4390   25.2190 C.3     6  PHE6        0.1771
      8  C         18.3830   16.9130   24.9520 C.2     6  PHE6        0.2619
      9  O         19.2750   17.7170   24.6340 O.2     6  PHE6       -0.2715
     10  CB        16.2330   17.5470   23.8570 C.3     6  PHE6        0.0574
     11  CG        14.7650   17.9090   23.8330 C.ar    6  PHE6       -0.0200
     12  CD1       13.7950   16.9710   24.1720 C.ar    6  PHE6       -0.0042
     13  CD2       14.3450   19.1470   23.3560 C.ar    6  PHE6       -0.0042
     14  CE1       12.4340   17.2820   24.0750 C.ar    6  PHE6       -0.0003
     15  CE2       12.9860   19.4580   23.2690 C.ar    6  PHE6       -0.0003
     16  CZ        12.0400   18.5250   23.6490 C.ar    6  PHE6       -0.0000
     17  N         18.5980   15.5710   24.9820 N.am    7  GLN7       -0.1977
     18  CA        19.8960   14.9730   24.6130 C.3     7  GLN7        0.1601
     19  C         20.1300   15.1550   23.1170 C.2     7  GLN7        0.2287
     20  O         19.1600   15.3200   22.3700 O.2     7  GLN7       -0.2864
     21  CB        20.0230   13.5090   25.0600 C.3     7  GLN7        0.0394
     22  CG        20.3820   13.3910   26.5460 C.3     7  GLN7        0.0908
     23  CD        20.5250   11.9520   26.9760 C.2     7  GLN7        0.2608
     24  OE1       21.4210   11.2410   26.5280 O.2     7  GLN7       -0.2717
     25  NE2       19.6540   11.4900   27.8660 N.am    7  GLN7       -0.0878
     26  N         17.9800   13.3170   20.2220 N.3    10  ILE10      -0.1245
     27  CA        16.5570   13.6950   20.2430 C.3    10  ILE10       0.1561
     28  C         16.3980   15.0870   19.6270 C.2    10  ILE10       0.2260
     29  O         15.5210   15.2780   18.7840 O.2    10  ILE10      -0.2867
     30  CB        16.0110   13.6300   21.6770 C.3    10  ILE10       0.0252
     31  CG1       15.9760   12.1850   22.1870 C.3    10  ILE10       0.0019
     32  CG2       14.6450   14.2990   21.7700 C.3    10  ILE10       0.0019
     33  CD1       15.7620   12.0660   23.7010 C.3    10  ILE10       0.0001
     34  N         -0.9110   11.1720   16.3140 N.3    32  LEU32      -0.1245
     35  CA        -1.4010   11.7410   17.5680 C.3    32  LEU32       0.1561
     36  C         -2.7010   11.0780   17.9830 C.2    32  LEU32       0.2260
     37  O         -2.9030   10.8650   19.1660 O.2    32  LEU32      -0.2867
     38  CB        -1.5810   13.2690   17.4310 C.3    32  LEU32       0.0270
     39  CG        -0.2790   14.0450   17.1420 C.3    32  LEU32       0.0019
     40  CD1       -0.5630   15.5050   16.9130 C.3    32  LEU32       0.0001
     41  CD2        0.7450   13.8490   18.2490 C.3    32  LEU32       0.0001
     42  N         -1.6920    7.8720   19.5330 N.3    35  ASN35      -0.1225
     43  CA        -1.1970    8.0840   20.8910 C.3    35  ASN35       0.1785
     44  C         -2.3790    8.2770   21.8480 C.2    35  ASN35       0.2597
     45  O         -2.3340    7.8030   22.9800 O.2    35  ASN35      -0.2718
     46  CB        -0.2800    9.3030   20.9420 C.3    35  ASN35       0.1169
     47  CG         1.0480    9.1150   20.2480 C.2    35  ASN35       0.2627
     48  OD1        1.4610    8.0030   19.8920 O.2    35  ASN35      -0.2716
     49  ND2        1.7470   10.2030   20.0510 N.am   35  ASN35      -0.0877
     50  N         -3.4560    8.9110   21.3550 N.am   36  SER36      -0.1952
     51  CA        -4.6810    9.1460   22.1120 C.3    36  SER36       0.1924
     52  C         -5.3970    7.8420   22.3890 C.2    36  SER36       0.2314
     53  O         -5.7690    7.5960   23.5280 O.2    36  SER36      -0.2863
     54  CB        -5.5770   10.1320   21.3800 C.3    36  SER36       0.2116
     55  OG        -5.0970   11.4420   21.6460 O.3    36  SER36      -0.2180
     56  N         -3.5940    5.7850   24.9950 N.3    39  ALA39      -0.1245
     57  CA        -3.8230    6.3540   26.3180 C.3    39  ALA39       0.1562
     58  C         -5.2070    5.9860   26.8750 C.2    39  ALA39       0.2260
     59  O         -5.3630    5.8280   28.0960 O.2    39  ALA39      -0.2867
     60  CB        -3.6470    7.8650   26.2650 C.3    39  ALA39       0.0290
     61  N         -7.9410   14.1240   24.4220 N.3    77  ASP77      -0.1239
     62  CA        -8.3550   12.7650   24.8120 C.3    77  ASP77       0.1674
     63  C         -8.6170   12.6860   26.3130 C.2    77  ASP77       0.2266
     64  O         -8.1690   13.5440   27.0760 O.2    77  ASP77      -0.2867
     65  CB        -7.3950   11.6660   24.3060 C.3    77  ASP77       0.1410
     66  CG        -6.0400   11.6120   24.9950 C.2    77  ASP77       0.3668
     67  OD1       -5.9880   11.2120   26.1870 O.co2  77  ASP77      -0.2456
     68  OD2       -5.0260   11.8850   24.3210 O.co2  77  ASP77      -0.2456
     69  N         -5.3420    8.0900   30.0620 N.3    80  ILE80      -0.1231
     70  CA        -4.5930    7.9710   31.3160 C.3    80  ILE80       0.1692
     71  C         -3.9670    9.2740   31.7950 C.2    80  ILE80       0.2593
     72  O         -3.7630    9.4290   33.0020 O.2    80  ILE80      -0.2718
     73  CB        -3.5370    6.8310   31.2060 C.3    80  ILE80       0.0266
     74  CG1       -3.0200    6.3900   32.5780 C.3    80  ILE80       0.0019
     75  CG2       -2.3690    7.1320   30.2430 C.3    80  ILE80       0.0020
     76  CD1       -3.5920    5.1770   33.0750 C.3    80  ILE80       0.0001
     77  N         -3.5540   10.1310   30.8570 N.am   81  GLY81      -0.1942
     78  CA        -2.8630   11.3700   31.1880 C.3    81  GLY81       0.2014
     79  C         -1.4070   11.0570   31.4470 C.2    81  GLY81       0.2638
     80  O         -0.9640    9.9120   31.2740 O.2    81  GLY81      -0.2714
     81  N         -0.6460   12.0720   31.8330 N.am   82  MET82      -0.1976
     82  CA         0.7890   11.9310   32.1200 C.3    82  MET82       0.1605
     83  C          1.1550   12.6610   33.4140 C.2    82  MET82       0.2287
     84  O          0.7060   13.7790   33.6520 O.2    82  MET82      -0.2864
     85  CB         1.6480   12.4470   30.9360 C.3    82  MET82       0.0413
     86  CG         1.5470   11.5970   29.6670 C.3    82  MET82       0.0598
     87  SD         2.2650   12.4310   28.1950 S.3    82  MET82      -0.1393
     88  CE         0.8750   13.3760   27.6910 C.3    82  MET82       0.0692
     89  N          6.5290   13.2680   31.9300 N.3    87  LEU87      -0.1231
     90  CA         6.8730   14.4420   31.1210 C.3    87  LEU87       0.1693
     91  C          8.3520   14.7850   31.1070 C.2    87  LEU87       0.2591
     92  O          8.8680   15.1260   30.0520 O.2    87  LEU87      -0.2718
     93  CB         6.0580   15.6730   31.5430 C.3    87  LEU87       0.0284
     94  CG         4.5800   15.6540   31.2730 C.3    87  LEU87       0.0019
     95  CD1        3.9280   16.8940   31.8660 C.3    87  LEU87       0.0001
     96  CD2        4.2660   15.5440   29.7820 C.3    87  LEU87       0.0001
     97  N          9.0280   14.6380   32.2480 N.am   88  ILE88      -0.1980
     98  CA        10.4460   14.9350   32.4320 C.3    88  ILE88       0.1595
     99  C         11.3820   13.7400   32.2740 C.2    88  ILE88       0.2287
    100  O         12.4140   13.8690   31.6100 O.2    88  ILE88      -0.2864
    101  CB        10.6660   15.6080   33.8140 C.3    88  ILE88       0.0276
    102  CG1        9.8660   16.9230   33.9510 C.3    88  ILE88       0.0022
    103  CG2       12.1840   15.8240   34.1140 C.3    88  ILE88       0.0022
    104  CD1        9.8070   17.4210   35.3940 C.3    88  ILE88       0.0001
    105  N          9.1760    9.4470   29.8120 N.3    91  LEU91      -0.1231
    106  CA         8.9950    9.5480   28.3580 C.3    91  LEU91       0.1693
    107  C         10.2920    9.9310   27.6460 C.2    91  LEU91       0.2592
    108  O         10.4430    9.6430   26.4620 O.2    91  LEU91      -0.2718
    109  CB         7.8280   10.4440   27.9440 C.3    91  LEU91       0.0284
    110  CG         6.4100   10.0530   28.4280 C.3    91  LEU91       0.0019
    111  CD1        5.4620   11.2100   28.2300 C.3    91  LEU91       0.0001
    112  CD2        5.8680    8.7870   27.7340 C.3    91  LEU91       0.0001
    113  N         11.2180   10.5430   28.3920 N.am   92  GLY92      -0.1957
    114  CA        12.5520   10.8900   27.9060 C.3    92  GLY92       0.1869
    115  C         13.3730    9.6430   27.6620 C.2    92  GLY92       0.2309
    116  O         14.1610    9.5950   26.7160 O.2    92  GLY92      -0.2863
    117  N         11.9340    6.6950   26.7790 N.3    94  ILE94      -0.1231
    118  CA        11.2600    6.1570   25.5690 C.3    94  ILE94       0.1692
    119  C         11.7500    6.8680   24.3220 C.2    94  ILE94       0.2591
    120  O         12.0530    6.2310   23.3230 O.2    94  ILE94      -0.2718
    121  CB         9.6960    6.2780   25.6970 C.3    94  ILE94       0.0266
    122  CG1        9.1410    5.4580   26.8750 C.3    94  ILE94       0.0019
    123  CG2        8.9470    5.9520   24.3810 C.3    94  ILE94       0.0020
    124  CD1        9.6240    3.9790   26.9800 C.3    94  ILE94       0.0001
    125  N         11.7730    8.2040   24.3750 N.am   95  ALA95      -0.1980
    126  CA        12.2190    9.0500   23.2820 C.3    95  ALA95       0.1597
    127  C         13.6970    8.8050   22.9110 C.2    95  ALA95       0.2287
    128  O         14.0500    9.0370   21.7500 O.2    95  ALA95      -0.2864
    129  CB        12.0050   10.5110   23.6380 C.3    95  ALA95       0.0319
    130  N          7.8690    4.3830   18.3760 N.3   119  GLY119     -0.1210
    131  CA         7.2740    4.9270   19.5960 C.3   119  GLY119      0.1956
    132  C          7.4960    6.4120   19.8150 C.2   119  GLY119      0.2611
    133  O          7.3140    6.9110   20.9210 O.2   119  GLY119     -0.2717
    134  N          7.9230    7.1200   18.7660 N.am  120  VAL120     -0.1979
    135  CA         8.2100    8.5680   18.8060 C.3   120  VAL120      0.1595
    136  C          7.3520    9.3240   17.8180 C.2   120  VAL120      0.2287
    137  O          7.7110   10.4260   17.4060 O.2   120  VAL120     -0.2864
    138  CB         9.7200    8.8600   18.6350 C.3   120  VAL120      0.0276
    139  CG1       10.4990    8.4510   19.8850 C.3   120  VAL120      0.0022
    140  CG2       10.2800    8.1960   17.3720 C.3   120  VAL120      0.0022
    141  N          4.8760   11.0120   18.3560 N.3   122  PHE122     -0.1227
    142  CA         4.5310   12.3160   18.9310 C.3   122  PHE122      0.1736
    143  C          5.3130   13.4320   18.2320 C.2   122  PHE122      0.2595
    144  O          4.7350   14.4660   17.9330 O.2   122  PHE122     -0.2718
    145  CB         4.7860   12.3270   20.4570 C.3   122  PHE122      0.0547
    146  CG         4.6880   13.7000   21.0920 C.ar  122  PHE122     -0.0202
    147  CD1        3.4600   14.3330   21.2350 C.ar  122  PHE122     -0.0042
    148  CD2        5.8310   14.3620   21.5410 C.ar  122  PHE122     -0.0042
    149  CE1        3.3760   15.6010   21.8250 C.ar  122  PHE122     -0.0003
    150  CE2        5.7460   15.6430   22.1040 C.ar  122  PHE122     -0.0003
    151  CZ         4.5260   16.2530   22.2370 C.ar  122  PHE122     -0.0000
    152  N          6.6060   13.2130   17.9320 N.am  123  TYR123     -0.1976
    153  CA         7.4400   14.2060   17.2690 C.3   123  TYR123      0.1639
    154  C          6.9910   14.5530   15.8630 C.2   123  TYR123      0.2290
    155  O          7.3610   15.6060   15.3690 O.2   123  TYR123     -0.2864
    156  CB         8.9050   13.7750   17.2590 C.3   123  TYR123      0.0560
    157  CG         9.5880   13.6430   18.6020 C.ar  123  TYR123     -0.0198
    158  CD1        9.2140   14.4490   19.6820 C.ar  123  TYR123     -0.0009
    159  CD2       10.7400   12.8700   18.7390 C.ar  123  TYR123     -0.0009
    160  CE1        9.8950   14.3860   20.8960 C.ar  123  TYR123      0.0417
    161  CE2       11.4200   12.7870   19.9490 C.ar  123  TYR123      0.0417
    162  CZ        10.9910   13.5410   21.0250 C.ar  123  TYR123      0.1957
    163  OH        11.7030   13.4590   22.1860 O.3   123  TYR123     -0.2866
    164  N          1.4340   20.6880   25.5180 N.3   134  VAL134     -0.1245
    165  CA         0.7230   19.4960   25.9740 C.3   134  VAL134      0.1561
    166  C          0.1670   19.7850   27.3690 C.2   134  VAL134      0.2260
    167  O          0.9540   20.0100   28.2940 O.2   134  VAL134     -0.2867
    168  CB         1.6250   18.2300   25.9460 C.3   134  VAL134      0.0252
    169  CG1        0.8610   16.9990   26.4310 C.3   134  VAL134      0.0019
    170  CG2        2.2150   17.9880   24.5570 C.3   134  VAL134      0.0019
    171  N          3.3950   20.9090   29.3100 N.3   146  TRP146     -0.1241
    172  CA         4.6930   20.6250   28.7020 C.3   146  TRP146      0.1605
    173  C          4.7170   21.4630   27.4530 C.2   146  TRP146      0.2264
    174  O          3.6780   21.6080   26.8110 O.2   146  TRP146     -0.2867
    175  CB         4.7940   19.1300   28.3330 C.3   146  TRP146      0.0550
    176  CG         6.0940   18.7120   27.7030 C.ar  146  TRP146      0.0003
    177  CD1        7.1380   18.1120   28.3290 C.ar  146  TRP146      0.0946
    178  CD2        6.4190   18.7200   26.3000 C.ar  146  TRP146      0.0152
    179  NE1        8.1060   17.7700   27.4120 N.ar  146  TRP146     -0.2442
    180  CE2        7.7220   18.1980   26.1710 C.ar  146  TRP146      0.0810
    181  CE3        5.7750   19.2110   25.1510 C.ar  146  TRP146      0.0012
    182  CZ2        8.3460   18.0400   24.9290 C.ar  146  TRP146      0.0191
    183  CZ3        6.4240   19.1130   23.9280 C.ar  146  TRP146      0.0001
    184  CH2        7.6800   18.5050   23.8250 C.ar  146  TRP146      0.0015
    185  N         12.7090   22.1900   26.4160 N.3   154  PHE154     -0.1241
    186  CA        11.2770   22.1260   26.6360 C.3   154  PHE154      0.1605
    187  C         11.0450   22.6620   28.0140 C.2   154  PHE154      0.2264
    188  O         11.9960   22.7700   28.7910 O.2   154  PHE154     -0.2867
    189  CB        10.7250   20.6830   26.4710 C.3   154  PHE154      0.0534
    190  CG        11.1900   19.6490   27.4700 C.ar  154  PHE154     -0.0203
    191  CD1       10.5080   19.4590   28.6700 C.ar  154  PHE154     -0.0042
    192  CD2       12.2680   18.8120   27.1800 C.ar  154  PHE154     -0.0042
    193  CE1       10.8910   18.4540   29.5510 C.ar  154  PHE154     -0.0003
    194  CE2       12.6620   17.8190   28.0700 C.ar  154  PHE154     -0.0003
    195  CZ        11.9710   17.6430   29.2500 C.ar  154  PHE154     -0.0000
    196  N         -5.3360   14.2780   28.1450 N.3   168  THR168     -0.1218
    197  CA        -4.2910   15.0250   27.4300 C.3   168  THR168      0.1862
    198  C         -4.8310   15.9070   26.3330 C.2   168  THR168      0.2287
    199  O         -5.6620   15.4620   25.5620 O.2   168  THR168     -0.2866
    200  CB        -3.2650   13.9840   26.8840 C.3   168  THR168      0.1770
    201  OG1       -2.6860   13.3400   28.0110 O.3   168  THR168     -0.2211
    202  CG2       -2.1370   14.6080   25.9920 C.3   168  THR168      0.0375
    203  N         -3.1880   18.0790   23.1970 N.3   170  VAL170     -0.1245
    204  CA        -1.9910   18.3340   22.3880 C.3   170  VAL170      0.1561
    205  C         -2.3770   19.5200   21.5050 C.2   170  VAL170      0.2260
    206  O         -3.2010   19.3860   20.6030 O.2   170  VAL170     -0.2867
    207  CB        -1.4950   17.0990   21.5770 C.3   170  VAL170      0.0252
    208  CG1       -0.3160   17.4820   20.6640 C.3   170  VAL170      0.0019
    209  CG2       -1.0980   15.9400   22.5110 C.3   170  VAL170      0.0019
@<TRIPOS>BOND
     1   155   154    2
     2   154   153    1
     3    34    35    1
     4    40    39    1
     5    39    38    1
     6    39    41    1
     7   156   153    1
     8   156   157    1
     9   153   152    1
    10   140   138    1
    11   137   136    2
    12    38    35    1
    13    35    36    1
    14   136   135    1
    15   152   143   am
    16   144   143    2
    17    36    37    2
    18   143   142    1
    19   141   142    1
    20   130   131    1
    21   157   159   ar
    22   157   158   ar
    23   138   135    1
    24   138   139    1
    25   159   161   ar
    26   134   135    1
    27   134   132   am
    28    29    28    2
    29   142   145    1
    30    42    43    1
    31   131   132    1
    32    28    27    1
    33   158   160   ar
    34   132   133    2
    35    48    47    2
    36   161   162   ar
    37    49    47   am
    38    26    27    1
    39    27    30    1
    40    47    46    1
    41   145   146    1
    42   206   205    2
    43   208   207    1
    44    43    46    1
    45    43    44    1
    46   160   162   ar
    47   162   163    1
    48   146   147   ar
    49   146   148   ar
    50   147   149   ar
    51    50    44   am
    52    50    51    1
    53    54    55    1
    54    54    51    1
    55   205   204    1
    56   148   150   ar
    57   207   204    1
    58   207   209    1
    59    30    32    1
    60    30    31    1
    61   128   127    2
    62   149   151   ar
    63    44    45    2
    64   150   151   ar
    65    51    52    1
    66    31    33    1
    67    20    19    2
    68   204   203    1
    69    52    53    2
    70   127   126    1
    71    19    18    1
    72    15    13   ar
    73    15    16   ar
    74   126   129    1
    75   126   125    1
    76   120   119    2
    77    13    11   ar
    78    16    14   ar
    79   184   183   ar
    80   184   182   ar
    81    11    10    1
    82    11    12   ar
    83    10     7    1
    84   183   181   ar
    85    14    12   ar
    86    65    62    1
    87    65    66    1
    88    68    66   ar
    89   119   125   am
    90   119   118    1
    91   123   121    1
    92    61    62    1
    93   170   168    1
    94    18    17    1
    95    18    21    1
    96     9     8    2
    97    62    63    1
    98   182   180   ar
    99     8    17   am
   100     8     7    1
   101    66    67   ar
   102    56    57    1
   103    21    22    1
   104   181   178   ar
   105     7     6    1
   106   164   165    1
   107   199   198    2
   108   118   121    1
   109   118   117    1
   110   121   122    1
   111     6     3   am
   112   168   165    1
   113   168   169    1
   114   165   166    1
   115   202   200    1
   116   180   178   ar
   117   180   179   ar
   118    60    57    1
   119   178   176   ar
   120    63    64    2
   121    57    58    1
   122   198   197    1
   123   185   186    1
   124   108   107    2
   125   189   186    1
   126   189   190    1
   127    24    23    2
   128    22    23    1
   129   186   187    1
   130   116   115    2
   131   174   173    2
   132   122   124    1
   133    58    59    2
   134   200   197    1
   135   200   201    1
   136    23    25   am
   137     3     2    1
   138     3     4    2
   139   192   190   ar
   140   192   194   ar
   141   166   167    2
   142   179   177   ar
   143   197   196    1
   144   173   172    1
   145   190   191   ar
   146   107   106    1
   147   107   113   am
   148   115   114    1
   149    88    87    1
   150     2     5    1
   151     2     1    1
   152   176   177   ar
   153   176   175    1
   154   112   110    1
   155   114   113    1
   156   109   106    1
   157   109   110    1
   158   187   188    2
   159   194   195   ar
   160    87    86    1
   161   111   110    1
   162   175   172    1
   163   106   105    1
   164   191   193   ar
   165   172   171    1
   166   195   193   ar
   167    86    85    1
   168    96    94    1
   169    92    91    2
   170    69    70    1
   171    75    73    1
   172    77    78    1
   173    77    71   am
   174    85    82    1
   175    91    90    1
   176    91    97   am
   177    90    93    1
   178    90    89    1
   179    78    79    1
   180    73    70    1
   181    73    74    1
   182    94    93    1
   183    94    95    1
   184    80    79    2
   185    70    71    1
   186    79    81   am
   187   100    99    2
   188    71    72    2
   189    81    82    1
   190    82    83    1
   191    97    98    1
   192    99    98    1
   193    98   101    1
   194    74    76    1
   195    83    84    2
   196   101   102    1
   197   101   103    1
   198   102   104    1
