@<TRIPOS>MOLECULE
tmp/5ls1A00.pdb
 182 171 0 0 0
SMALL
GASTEIGER

@<TRIPOS>ATOM
      1  N         33.9240   16.3130   11.4700 N.3    32  LEU32      -0.1245
      2  CA        34.4610   17.5500   12.0270 C.3    32  LEU32       0.1561
      3  C         35.7020   17.9730   11.2720 C.2    32  LEU32       0.2260
      4  O         35.8630   19.1610   10.9940 O.2    32  LEU32      -0.2867
      5  CB        34.7420   17.4060   13.5260 C.3    32  LEU32       0.0270
      6  CG        33.5330   16.9660   14.3870 C.3    32  LEU32       0.0019
      7  CD1       33.9190   16.9100   15.8430 C.3    32  LEU32       0.0001
      8  CD2       32.2990   17.8760   14.1890 C.3    32  LEU32       0.0001
      9  N         34.6260   19.5690    8.0090 N.3    35  ASN35      -0.1225
     10  CA        34.1640   20.9460    8.2270 C.3    35  ASN35       0.1785
     11  C         35.3790   21.8630    8.3490 C.2    35  ASN35       0.2597
     12  O         35.3880   22.9330    7.7580 O.2    35  ASN35      -0.2718
     13  CB        33.3130   21.0380    9.4930 C.3    35  ASN35       0.1169
     14  CG        31.8840   20.5650    9.2830 C.2    35  ASN35       0.2627
     15  OD1       31.4390   20.2760    8.1580 O.2    35  ASN35      -0.2716
     16  ND2       31.1590   20.4260   10.3680 N.am   35  ASN35      -0.0877
     17  N         36.4230   21.4190    9.0820 N.am   36  SER36      -0.1952
     18  CA        37.6730   22.1790    9.2340 C.3    36  SER36       0.1924
     19  C         38.3540   22.3740    7.8690 C.2    36  SER36       0.2314
     20  O         38.8040   23.4800    7.5370 O.2    36  SER36      -0.2863
     21  CB        38.6170   21.4330   10.1740 C.3    36  SER36       0.2116
     22  OG        38.1530   21.5630   11.5070 O.3    36  SER36      -0.2180
     23  N         36.9410   22.2800    4.8730 N.3    38  ASP38      -0.1225
     24  CA        36.1380   23.2030    4.0660 C.3    38  ASP38       0.1805
     25  C         36.4020   24.6560    4.4830 C.2    38  ASP38       0.2597
     26  O         36.5670   25.5330    3.6300 O.2    38  ASP38      -0.2718
     27  CB        34.6550   22.8670    4.1780 C.3    38  ASP38       0.1424
     28  CG        34.2460   21.5620    3.5320 C.2    38  ASP38       0.3668
     29  OD1       35.1010   20.9270    2.8640 O.co2  38  ASP38      -0.2456
     30  OD2       33.0910   21.1560    3.7200 O.co2  38  ASP38      -0.2456
     31  N         36.5260   24.8900    5.7900 N.am   39  ALA39      -0.1979
     32  CA        36.8320   26.2260    6.3370 C.3    39  ALA39       0.1597
     33  C         38.2190   26.7190    5.9160 C.2    39  ALA39       0.2287
     34  O         38.4040   27.9150    5.6350 O.2    39  ALA39      -0.2864
     35  CB        36.7160   26.1970    7.8510 C.3    39  ALA39       0.0319
     36  N         38.2400   27.7280    2.2710 N.3    42  LYS42      -0.1245
     37  CA        37.6210   29.0370    2.0870 C.3    42  LYS42       0.1561
     38  C         38.5590   30.2040    2.3900 C.2    42  LYS42       0.2260
     39  O         38.6310   31.1490    1.5950 O.2    42  LYS42      -0.2867
     40  CB        36.3120   29.1320    2.8970 C.3    42  LYS42       0.0271
     41  CG        35.4750   30.3260    2.5060 C.3    42  LYS42       0.0035
     42  CD        34.0540   30.1570    2.9790 C.3    42  LYS42       0.0206
     43  CE        33.2520   31.3120    2.4820 C.3    42  LYS42       0.1093
     44  NZ        31.8470   31.1790    2.9060 N.3    42  LYS42      -0.1314
     45  N         41.0850   24.3410   14.1210 N.3    77  ASP77      -0.1239
     46  CA        41.5400   24.6690   12.7830 C.3    77  ASP77       0.1674
     47  C         41.7980   26.1590   12.7020 C.2    77  ASP77       0.2266
     48  O         41.2770   26.9300   13.5160 O.2    77  ASP77      -0.2867
     49  CB        40.5560   24.1860   11.7000 C.3    77  ASP77       0.1410
     50  CG        39.2240   24.9220   11.7050 C.2    77  ASP77       0.3668
     51  OD1       39.2120   26.1330   11.3570 O.co2  77  ASP77      -0.2456
     52  OD2       38.1910   24.2840   12.0310 O.co2  77  ASP77      -0.2456
     53  N         38.4520   29.7170    8.0000 N.3    80  ILE80      -0.1231
     54  CA        37.7940   31.0270    7.8930 C.3    80  ILE80       0.1692
     55  C         37.1260   31.5060    9.2100 C.2    80  ILE80       0.2593
     56  O         37.0040   32.7070    9.4270 O.2    80  ILE80      -0.2718
     57  CB        36.7970   31.0320    6.6910 C.3    80  ILE80       0.0266
     58  CG1       36.2990   32.4590    6.3560 C.3    80  ILE80       0.0019
     59  CG2       35.6240   30.0420    6.8850 C.3    80  ILE80       0.0020
     60  CD1       36.4580   32.8500    4.9700 C.3    80  ILE80       0.0001
     61  N         36.6830   30.5700   10.0350 N.am   81  GLY81      -0.1942
     62  CA        35.9640   30.8960   11.2590 C.3    81  GLY81       0.2014
     63  C         34.5270   31.2540   10.9470 C.2    81  GLY81       0.2638
     64  O         34.0950   31.2480    9.7780 O.2    81  GLY81      -0.2714
     65  N         33.7620   31.5280   11.9980 N.am   82  MET82      -0.1976
     66  CA        32.3530   31.8550   11.8640 C.3    82  MET82       0.1605
     67  C         32.0040   33.1400   12.5500 C.2    82  MET82       0.2287
     68  O         32.5110   33.4320   13.6360 O.2    82  MET82      -0.2864
     69  CB        31.4590   30.7120   12.4020 C.3    82  MET82       0.0413
     70  CG        31.4120   29.4970   11.4560 C.3    82  MET82       0.0598
     71  SD        30.7500   28.0050   12.2370 S.3    82  MET82      -0.1393
     72  CE        32.1290   27.5130   13.2690 C.3    82  MET82       0.0692
     73  N         26.5370   33.6100   11.4190 N.3    86  ASP86      -0.1225
     74  CA        26.7150   32.1920   11.0860 C.3    86  ASP86       0.1805
     75  C         26.2090   31.3190   12.2390 C.2    86  ASP86       0.2597
     76  O         25.4610   30.3530   12.0270 O.2    86  ASP86      -0.2718
     77  CB        28.2190   31.8850   10.8930 C.3    86  ASP86       0.1424
     78  CG        28.8000   32.3050    9.5610 C.2    86  ASP86       0.3668
     79  OD1       28.0430   32.3860    8.5930 O.co2  86  ASP86      -0.2456
     80  OD2       30.0290   32.4660    9.4770 O.co2  86  ASP86      -0.2456
     81  N         26.6580   31.6370   13.4630 N.am   87  LEU87      -0.1979
     82  CA        26.3300   30.8470   14.6580 C.3    87  LEU87       0.1596
     83  C         24.8610   30.8370   15.0180 C.2    87  LEU87       0.2287
     84  O         24.3320   29.7950   15.4010 O.2    87  LEU87      -0.2864
     85  CB        27.1360   31.3190   15.8730 C.3    87  LEU87       0.0297
     86  CG        28.6570   31.1370   15.8060 C.3    87  LEU87       0.0022
     87  CD1       29.2970   31.7570   17.0390 C.3    87  LEU87       0.0001
     88  CD2       29.0460   29.6610   15.7300 C.3    87  LEU87       0.0001
     89  N         23.9850   29.2850    9.3420 N.3    91  LEU91      -0.1231
     90  CA        24.2320   27.8480    9.2650 C.3    91  LEU91       0.1693
     91  C         23.0130   27.0130    9.6530 C.2    91  LEU91       0.2592
     92  O         22.7970   25.9720    9.0380 O.2    91  LEU91      -0.2718
     93  CB        25.5060   27.4620   10.0410 C.3    91  LEU91       0.0284
     94  CG        26.7810   28.1050    9.4140 C.3    91  LEU91       0.0019
     95  CD1       27.9790   27.8550   10.2330 C.3    91  LEU91       0.0001
     96  CD2       27.0260   27.6140    7.9670 C.3    91  LEU91       0.0001
     97  N         22.1780   27.5180   10.5600 N.am   92  GLY92      -0.1957
     98  CA        20.9150   26.8620   10.9260 C.3    92  GLY92       0.1869
     99  C         19.9460   26.8320    9.7470 C.2    92  GLY92       0.2309
    100  O         19.2560   25.8300    9.5240 O.2    92  GLY92      -0.2863
    101  N         20.8020   26.7720    6.5140 N.3    94  ILE94      -0.1231
    102  CA        21.3710   25.7440    5.6280 C.3    94  ILE94       0.1692
    103  C         21.1450   24.3300    6.2130 C.2    94  ILE94       0.2591
    104  O         20.7580   23.4050    5.4830 O.2    94  ILE94      -0.2718
    105  CB        22.8700   26.0590    5.3040 C.3    94  ILE94       0.0266
    106  CG1       23.0080   27.4290    4.6010 C.3    94  ILE94       0.0019
    107  CG2       23.5250   24.9570    4.4540 C.3    94  ILE94       0.0020
    108  CD1       24.4260   28.0680    4.6870 C.3    94  ILE94       0.0001
    109  N         21.3250   24.1810    7.5280 N.am   95  ALA95      -0.1980
    110  CA        21.1450   22.9050    8.2120 C.3    95  ALA95       0.1597
    111  C         19.6850   22.3850    8.1360 C.2    95  ALA95       0.2287
    112  O         19.4840   21.1720    8.1190 O.2    95  ALA95      -0.2864
    113  CB        21.6000   23.0090    9.6500 C.3    95  ALA95       0.0319
    114  N         25.3760   17.9690    4.4860 N.3   119  GLY119     -0.1210
    115  CA        25.9180   19.1900    5.0710 C.3   119  GLY119      0.1956
    116  C         25.6210   19.4290    6.5380 C.2   119  GLY119      0.2611
    117  O         25.8250   20.5370    7.0310 O.2   119  GLY119     -0.2717
    118  N         25.2090   18.3930    7.2710 N.am  120  VAL120     -0.1979
    119  CA        24.9090   18.5180    8.7060 C.3   120  VAL120      0.1595
    120  C         25.7890   17.6040    9.5630 C.2   120  VAL120      0.2287
    121  O         25.4430   17.2890   10.7130 O.2   120  VAL120     -0.2864
    122  CB        23.3970   18.3480    9.0160 C.3   120  VAL120      0.0276
    123  CG1       22.6040   19.4690    8.3710 C.3   120  VAL120      0.0022
    124  CG2       22.8710   16.9820    8.5650 C.3   120  VAL120      0.0022
    125  N         28.3470   18.2330   11.2560 N.3   122  PHE122     -0.1227
    126  CA        28.6830   18.8120   12.5820 C.3   122  PHE122      0.1736
    127  C         27.9300   18.1130   13.7350 C.2   122  PHE122      0.2595
    128  O         28.5130   17.8600   14.8020 O.2   122  PHE122     -0.2718
    129  CB        28.3530   20.3290   12.6260 C.3   122  PHE122      0.0547
    130  CG        28.4260   20.9060   14.0270 C.ar  122  PHE122     -0.0202
    131  CD1       29.6540   21.1410   14.6380 C.ar  122  PHE122     -0.0042
    132  CD2       27.2610   21.1480   14.7640 C.ar  122  PHE122     -0.0042
    133  CE1       29.7170   21.6290   15.9580 C.ar  122  PHE122     -0.0003
    134  CE2       27.3270   21.6030   16.0900 C.ar  122  PHE122     -0.0003
    135  CZ        28.5520   21.8520   16.6700 C.ar  122  PHE122     -0.0000
    136  N         26.6190   17.8530   13.5330 N.am  123  TYR123     -0.1976
    137  CA        25.7480   17.2720   14.5590 C.3   123  TYR123      0.1639
    138  C         26.1000   15.8240   14.8920 C.2   123  TYR123      0.2290
    139  O         25.7010   15.3550   15.9580 O.2   123  TYR123     -0.2864
    140  CB        24.2450   17.4650   14.2060 C.3   123  TYR123      0.0560
    141  CG        23.8580   18.9290   14.2440 C.ar  123  TYR123     -0.0198
    142  CD1       23.6390   19.5790   15.4570 C.ar  123  TYR123     -0.0009
    143  CD2       23.8450   19.7000   13.0770 C.ar  123  TYR123     -0.0009
    144  CE1       23.3540   20.9420   15.5090 C.ar  123  TYR123      0.0417
    145  CE2       23.5580   21.0680   13.1170 C.ar  123  TYR123      0.0417
    146  CZ        23.2960   21.6800   14.3370 C.ar  123  TYR123      0.1957
    147  OH        23.0250   23.0300   14.4050 O.3   123  TYR123     -0.2866
    148  N         31.7670   25.3880   20.7720 N.3   134  VAL134     -0.1245
    149  CA        32.4220   25.8640   19.5530 C.3   134  VAL134      0.1561
    150  C         32.9640   27.2600   19.8150 C.2   134  VAL134      0.2260
    151  O         32.1820   28.2000   19.9900 O.2   134  VAL134     -0.2867
    152  CB        31.4600   25.8190   18.3100 C.3   134  VAL134      0.0252
    153  CG1       32.1240   26.4200   17.0620 C.3   134  VAL134      0.0019
    154  CG2       31.0090   24.3810   18.0200 C.3   134  VAL134      0.0019
    155  N         29.9000   29.2860   21.1800 N.3   146  TRP146     -0.1241
    156  CA        28.5830   28.6510   20.9790 C.3   146  TRP146      0.1605
    157  C         28.6050   27.4000   21.8450 C.2   146  TRP146      0.2264
    158  O         29.6490   26.7580   21.9580 O.2   146  TRP146     -0.2867
    159  CB        28.4170   28.2460   19.4860 C.3   146  TRP146      0.0550
    160  CG        27.1770   27.4790   19.1090 C.ar  146  TRP146      0.0003
    161  CD1       26.0880   27.9750   18.4470 C.ar  146  TRP146      0.0946
    162  CD2       26.9720   26.0590   19.2080 C.ar  146  TRP146      0.0152
    163  NE1       25.2120   26.9540   18.1430 N.ar  146  TRP146     -0.2442
    164  CE2       25.7110   25.7750   18.6300 C.ar  146  TRP146      0.0810
    165  CE3       27.7240   24.9910   19.7520 C.ar  146  TRP146      0.0012
    166  CZ2       25.1810   24.4770   18.5780 C.ar  146  TRP146      0.0191
    167  CZ3       27.1820   23.7050   19.7230 C.ar  146  TRP146      0.0001
    168  CH2       25.9510   23.4500   19.0980 C.ar  146  TRP146      0.0015
    169  N         38.4200   27.9790   14.1950 N.3   168  THR168     -0.1218
    170  CA        37.4000   27.3590   15.0250 C.3   168  THR168      0.1862
    171  C         37.9970   26.2490   15.8860 C.2   168  THR168      0.2287
    172  O         38.8510   25.4810   15.4200 O.2   168  THR168     -0.2866
    173  CB        36.2900   26.7880   14.1130 C.3   168  THR168      0.1770
    174  OG1       35.7630   27.8480   13.3070 O.3   168  THR168     -0.2211
    175  CG2       35.1460   26.0650   14.9010 C.3   168  THR168      0.0375
    176  N         36.3430   23.0510   18.0200 N.3   170  VAL170     -0.1245
    177  CA        35.1400   22.3000   18.3830 C.3   170  VAL170      0.1561
    178  C         35.5540   21.4350   19.5840 C.2   170  VAL170      0.2260
    179  O         36.3490   20.5100   19.4320 O.2   170  VAL170     -0.2867
    180  CB        34.5560   21.4680   17.2310 C.3   170  VAL170      0.0252
    181  CG1       33.3940   20.5990   17.7230 C.3   170  VAL170      0.0019
    182  CG2       34.1240   22.3690   16.0620 C.3   170  VAL170      0.0019
@<TRIPOS>BOND
     1    39    38    2
     2    37    36    1
     3    37    38    1
     4    37    40    1
     5    43    44    1
     6    43    42    1
     7    41    40    1
     8    41    42    1
     9    29    28   ar
    10    28    30   ar
    11    28    27    1
    12    26    25    2
    13    24    27    1
    14    24    25    1
    15    24    23    1
    16   107   105    1
    17    25    31   am
    18   114   115    1
    19   106   108    1
    20   106   105    1
    21    60    58    1
    22   115   116    1
    23   105   102    1
    24   104   103    2
    25   102   103    1
    26   102   101    1
    27    34    33    2
    28    31    32    1
    29    33    32    1
    30   103   109   am
    31    32    35    1
    32    58    57    1
    33   116   117    2
    34   116   118   am
    35    57    59    1
    36    57    54    1
    37   118   119    1
    38   109   110    1
    39    20    19    2
    40    12    11    2
    41    19    18    1
    42    54    53    1
    43    54    55    1
    44    96    94    1
    45     9    10    1
    46   112   111    2
    47   111   110    1
    48    15    14    2
    49   110   113    1
    50    10    11    1
    51    10    13    1
    52    11    17   am
    53   123   122    1
    54   124   122    1
    55    79    78   ar
    56   119   122    1
    57   119   120    1
    58    92    91    2
    59    17    18    1
    60    55    56    2
    61    55    61   am
    62    18    21    1
    63    90    89    1
    64    90    91    1
    65    90    93    1
    66    14    13    1
    67    14    16   am
    68    94    93    1
    69    94    95    1
    70    80    78   ar
    71   100    99    2
    72    78    77    1
    73   120   121    2
    74    91    97   am
    75    99    98    1
    76    64    63    2
    77    61    62    1
    78    21    22    1
    79    97    98    1
    80    77    74    1
    81    63    62    1
    82    63    65   am
    83     4     3    2
    84    74    73    1
    85    74    75    1
    86   125   126    1
    87     3     2    1
    88    51    50   ar
    89    70    71    1
    90    70    69    1
    91     1     2    1
    92    49    50    1
    93    49    46    1
    94    50    52   ar
    95    66    65    1
    96    66    69    1
    97    66    67    1
    98     2     5    1
    99    76    75    2
   100    71    72    1
   101    75    81   am
   102    67    68    2
   103   126   129    1
   104   126   127    1
   105   129   130    1
   106    47    46    1
   107    47    48    2
   108    46    45    1
   109   143   145   ar
   110   143   141   ar
   111   145   146   ar
   112   174   173    1
   113    81    82    1
   114     5     6    1
   115   136   127   am
   116   136   137    1
   117   127   128    2
   118   130   131   ar
   119   130   132   ar
   120   173   175    1
   121   173   170    1
   122     8     6    1
   123   169   170    1
   124   140   141    1
   125   140   137    1
   126   141   142   ar
   127   146   147    1
   128   146   144   ar
   129     6     7    1
   130   137   138    1
   131   131   133   ar
   132    82    83    1
   133    82    85    1
   134   132   134   ar
   135   138   139    2
   136    83    84    2
   137   170   171    1
   138   172   171    2
   139   142   144   ar
   140    88    86    1
   141    86    85    1
   142    86    87    1
   143   133   135   ar
   144   182   180    1
   145   134   135   ar
   146   153   152    1
   147   180   181    1
   148   180   177    1
   149   154   152    1
   150   176   177    1
   151   163   161   ar
   152   163   164   ar
   153   152   149    1
   154   177   178    1
   155   161   160   ar
   156   166   164   ar
   157   166   168   ar
   158   164   162   ar
   159   168   167   ar
   160   160   162   ar
   161   160   159    1
   162   162   165   ar
   163   179   178    2
   164   159   156    1
   165   149   150    1
   166   149   148    1
   167   167   165   ar
   168   150   151    2
   169   156   155    1
   170   156   157    1
   171   157   158    2
