@<TRIPOS>MOLECULE
tmp/5ls6J00.pdb
 185 183 0 0 0
SMALL
GASTEIGER

@<TRIPOS>ATOM
      1  N        147.0290   69.4570   55.0090 N.3   100  ILE100     -0.1231
      2  CA       148.3210   68.7730   55.2150 C.3   100  ILE100      0.1692
      3  C        148.3260   68.0950   56.5760 C.2   100  ILE100      0.2592
      4  O        147.8240   68.6510   57.5540 O.2   100  ILE100     -0.2718
      5  CB       149.5320   69.7300   55.1410 C.3   100  ILE100      0.0266
      6  CG1      149.5240   70.4980   53.8230 C.3   100  ILE100      0.0019
      7  CG2      150.8440   68.9600   55.2380 C.3   100  ILE100      0.0020
      8  CD1      150.6890   71.4510   53.6470 C.3   100  ILE100      0.0001
      9  N        148.8870   66.8920   56.6330 N.am  101  MET101     -0.1965
     10  CA       149.1130   66.2020   57.9040 C.3   101  MET101      0.1736
     11  C        150.3270   65.3120   57.7820 C.2   101  MET101      0.2616
     12  O        150.5650   64.7740   56.7240 O.2   101  MET101     -0.2715
     13  CB       147.9050   65.3440   58.2830 C.3   101  MET101      0.0427
     14  CG       148.0980   64.5130   59.5540 C.3   101  MET101      0.0599
     15  SD       146.6770   63.5480   60.0840 S.3   101  MET101     -0.1393
     16  CE       145.3930   64.7830   60.0470 C.3   101  MET101      0.0692
     17  N        151.0820   65.1570   58.8660 N.am  102  TYR102     -0.1960
     18  CA       152.1500   64.1650   58.9330 C.3   102  TYR102      0.1771
     19  C        151.7120   63.0750   59.8580 C.2   102  TYR102      0.2620
     20  O        150.9880   63.3320   60.8140 O.2   102  TYR102     -0.2715
     21  CB       153.4230   64.7830   59.4740 C.3   102  TYR102      0.0574
     22  CG       153.9880   65.8720   58.6030 C.ar  102  TYR102     -0.0198
     23  CD1      153.4690   67.1630   58.6590 C.ar  102  TYR102     -0.0009
     24  CD2      155.0460   65.6150   57.7300 C.ar  102  TYR102     -0.0009
     25  CE1      153.9850   68.1760   57.8660 C.ar  102  TYR102      0.0417
     26  CE2      155.5780   66.6180   56.9360 C.ar  102  TYR102      0.0417
     27  CZ       155.0490   67.9040   57.0020 C.ar  102  TYR102      0.1957
     28  OH       155.5660   68.9210   56.2070 O.3   102  TYR102     -0.2866
     29  N        152.1820   61.8650   59.6000 N.am  103  SER103     -0.1950
     30  CA       151.7390   60.7240   60.3790 C.3   103  SER103      0.1924
     31  C        152.2320   60.8250   61.8300 C.2   103  SER103      0.2314
     32  O        153.1630   61.5890   62.1420 O.2   103  SER103     -0.2863
     33  CB       152.1710   59.3960   59.7440 C.3   103  SER103      0.2116
     34  OG       153.5730   59.2440   59.7930 O.3   103  SER103     -0.2180
     35  N        169.0510   64.3580   60.8230 N.3   121  ASN121     -0.1240
     36  CA       168.3110   64.7830   59.6590 C.3   121  ASN121      0.1653
     37  C        168.4030   66.2780   59.5260 C.2   121  ASN121      0.2266
     38  O        168.1240   66.9920   60.4860 O.2   121  ASN121     -0.2867
     39  CB       166.8470   64.4170   59.8580 C.3   121  ASN121      0.1155
     40  CG       166.1100   64.3540   58.5700 C.2   121  ASN121      0.2627
     41  OD1      166.2220   63.3770   57.8670 O.2   121  ASN121     -0.2716
     42  ND2      165.3650   65.4010   58.2420 N.am  121  ASN121     -0.0877
     43  N        166.3850   69.1760   58.1300 N.3   123  PRO123     -0.2116
     44  CA       165.0570   69.2740   57.5100 C.3   123  PRO123      0.1372
     45  C        165.1190   70.0320   56.1970 C.2   123  PRO123      0.2244
     46  O        165.7210   71.1060   56.1450 O.2   123  PRO123     -0.2868
     47  CB       164.2270   70.0680   58.5350 C.3   123  PRO123      0.0268
     48  CG       165.1260   70.3410   59.6960 C.3   123  PRO123      0.0207
     49  CD       166.5360   70.1040   59.2630 C.3   123  PRO123      0.0892
     50  N        141.4890   76.8220   59.7450 N.3   464  ALA464     -0.1231
     51  CA       142.6920   76.4280   58.9830 C.3   464  ALA464      0.1694
     52  C        143.2030   75.0160   59.2820 C.2   464  ALA464      0.2593
     53  O        143.1020   74.5430   60.4100 O.2   464  ALA464     -0.2718
     54  CB       143.8090   77.4380   59.2220 C.3   464  ALA464      0.0304
     55  N        143.7910   74.3690   58.2730 N.am  465  GLY465     -0.1942
     56  CA       144.3000   73.0040   58.4120 C.3   465  GLY465      0.2014
     57  C        143.2220   72.0700   58.9420 C.2   465  GLY465      0.2638
     58  O        142.0500   72.1780   58.5530 O.2   465  GLY465     -0.2714
     59  N        143.6150   71.1800   59.8520 N.am  466  TRP466     -0.1973
     60  CA       142.6910   70.2200   60.4710 C.3   466  TRP466      0.1640
     61  C        142.1520   70.7530   61.7830 C.2   466  TRP466      0.2290
     62  O        142.8190   71.5370   62.4590 O.2   466  TRP466     -0.2864
     63  CB       143.3570   68.8580   60.7290 C.3   466  TRP466      0.0576
     64  CG       143.6960   68.0890   59.4820 C.ar  466  TRP466      0.0006
     65  CD1      144.8530   68.1550   58.7670 C.ar  466  TRP466      0.0946
     66  CD2      142.8690   67.1330   58.8140 C.ar  466  TRP466      0.0152
     67  NE1      144.7890   67.3090   57.6900 N.ar  466  TRP466     -0.2442
     68  CE2      143.5780   66.6710   57.7000 C.ar  466  TRP466      0.0810
     69  CE3      141.5930   66.6310   59.0460 C.ar  466  TRP466      0.0012
     70  CZ2      143.0590   65.7190   56.8320 C.ar  466  TRP466      0.0191
     71  CZ3      141.0750   65.6880   58.1710 C.ar  466  TRP466      0.0001
     72  CH2      141.8070   65.2390   57.0890 C.ar  466  TRP466      0.0015
     73  N        163.1800   73.8180   65.4650 N.3   499  VAL499     -0.1231
     74  CA       162.6600   73.2510   64.2350 C.3   499  VAL499      0.1692
     75  C        161.1700   73.6220   64.0540 C.2   499  VAL499      0.2592
     76  O        160.8110   74.1390   63.0110 O.2   499  VAL499     -0.2718
     77  CB       162.9970   71.7370   64.0870 C.3   499  VAL499      0.0266
     78  CG1      162.0230   70.8320   64.8170 C.3   499  VAL499      0.0020
     79  CG2      163.0410   71.3490   62.6190 C.3   499  VAL499      0.0020
     80  N        160.3240   73.4410   65.0700 N.am  500  TYR500     -0.1976
     81  CA       158.8920   73.7590   64.9090 C.3   500  TYR500      0.1639
     82  C        158.6660   75.2460   64.6990 C.2   500  TYR500      0.2290
     83  O        157.6940   75.6310   64.0590 O.2   500  TYR500     -0.2864
     84  CB       158.0030   73.3030   66.0870 C.3   500  TYR500      0.0560
     85  CG       158.0780   71.8510   66.4970 C.ar  500  TYR500     -0.0198
     86  CD1      158.5980   70.8820   65.6600 C.ar  500  TYR500     -0.0009
     87  CD2      157.6300   71.4520   67.7410 C.ar  500  TYR500     -0.0009
     88  CE1      158.6860   69.5670   66.0660 C.ar  500  TYR500      0.0417
     89  CE2      157.7020   70.1380   68.1470 C.ar  500  TYR500      0.0417
     90  CZ       158.2300   69.2020   67.3030 C.ar  500  TYR500      0.1957
     91  OH       158.3210   67.8930   67.6840 O.3   500  TYR500     -0.2866
     92  N        158.5050   75.9760   61.0520 N.3   503  TYR503     -0.1241
     93  CA       157.2390   75.6560   60.3920 C.3   503  TYR503      0.1605
     94  C        156.0500   76.5010   60.8960 C.2   503  TYR503      0.2264
     95  O        154.9090   76.2000   60.5520 O.2   503  TYR503     -0.2867
     96  CB       156.9280   74.1620   60.5280 C.3   503  TYR503      0.0534
     97  CG       157.9130   73.2660   59.8280 C.ar  503  TYR503     -0.0201
     98  CD1      159.1060   72.9220   60.4360 C.ar  503  TYR503     -0.0009
     99  CD2      157.6520   72.7490   58.5590 C.ar  503  TYR503     -0.0009
    100  CE1      160.0290   72.0910   59.8080 C.ar  503  TYR503      0.0417
    101  CE2      158.5650   71.9120   57.9170 C.ar  503  TYR503      0.0417
    102  CZ       159.7600   71.5860   58.5510 C.ar  503  TYR503      0.1957
    103  OH       160.6910   70.7570   57.9640 O.3   503  TYR503     -0.2866
    104  N        154.1630   76.5400   63.3660 N.3   505  CYS505     -0.1235
    105  CA       153.2970   75.8940   64.3510 C.3   505  CYS505      0.1677
    106  C        154.0980   74.8500   65.1290 C.2   505  CYS505      0.2270
    107  O        154.9510   74.1720   64.5630 O.2   505  CYS505     -0.2867
    108  CB       152.1110   75.2310   63.6620 C.3   505  CYS505      0.0956
    109  SG       152.5370   73.6990   62.8180 S.3   505  CYS505     -0.0801
    110  N        153.5120   71.8690   68.5760 N.3   507  PHE507     -0.1241
    111  CA       152.5310   71.2020   69.4030 C.3   507  PHE507      0.1605
    112  C        153.1920   70.6630   70.6570 C.2   507  PHE507      0.2264
    113  O        153.1020   69.4670   70.9670 O.2   507  PHE507     -0.2867
    114  CB       151.8440   70.1170   68.5930 C.3   507  PHE507      0.0534
    115  CG       151.1330   70.6460   67.3890 C.ar  507  PHE507     -0.0203
    116  CD1      149.8240   71.0850   67.4820 C.ar  507  PHE507     -0.0042
    117  CD2      151.7790   70.7300   66.1730 C.ar  507  PHE507     -0.0042
    118  CE1      149.1620   71.5830   66.3730 C.ar  507  PHE507     -0.0003
    119  CE2      151.1230   71.2240   65.0580 C.ar  507  PHE507     -0.0003
    120  CZ       149.8110   71.6530   65.1570 C.ar  507  PHE507     -0.0000
    121  N        153.2120   66.1380   68.7470 N.3   520  THR520     -0.1203
    122  CA       153.7250   66.0670   67.3700 C.3   520  THR520      0.1994
    123  C        153.8910   64.6110   66.8940 C.2   520  THR520      0.2617
    124  O        153.1140   64.1590   66.0650 O.2   520  THR520     -0.2717
    125  CB       155.0650   66.8610   67.1880 C.3   520  THR520      0.1784
    126  OG1      154.8770   68.2790   67.4210 O.3   520  THR520     -0.2211
    127  CG2      155.6320   66.6590   65.7850 C.3   520  THR520      0.0376
    128  N        154.8580   63.8790   67.4450 N.am  521  ARG521     -0.1979
    129  CA       155.1700   62.5270   66.9530 C.3   521  ARG521      0.1597
    130  C        154.0770   61.5040   67.2710 C.2   521  ARG521      0.2287
    131  O        153.6470   60.7240   66.4170 O.2   521  ARG521     -0.2864
    132  CB       156.4860   62.0260   67.5450 C.3   521  ARG521      0.0334
    133  CG       157.6870   62.9240   67.2890 C.3   521  ARG521      0.0492
    134  CD       158.9980   62.1870   67.5240 C.3   521  ARG521      0.2205
    135  NE       160.1620   63.0730   67.4530 N.pl3 521  ARG521     -0.0865
    136  CZ       161.4310   62.6820   67.6140 C.cat 521  ARG521      0.5346
    137  NH1      161.7310   61.4020   67.8580 N.pl3 521  ARG521      0.1354
    138  NH2      162.4170   63.5760   67.5240 N.pl3 521  ARG521      0.1354
    139  N        144.5650   66.5790   70.1870 N.3   527  ARG527     -0.1231
    140  CA       145.6990   67.3250   69.6050 C.3   527  ARG527      0.1694
    141  C        145.3190   68.2230   68.4180 C.2   527  ARG527      0.2592
    142  O        146.0020   69.2320   68.1870 O.2   527  ARG527     -0.2718
    143  CB       146.8490   66.3770   69.1870 C.3   527  ARG527      0.0321
    144  CG       146.6510   65.6510   67.8490 C.3   527  ARG527      0.0489
    145  CD       147.5870   64.4550   67.6340 C.3   527  ARG527      0.2205
    146  NE       148.0300   64.3040   66.2320 N.pl3 527  ARG527     -0.0865
    147  CZ       149.2530   64.5870   65.7500 C.cat 527  ARG527      0.5346
    148  NH1      149.4930   64.4240   64.4480 N.pl3 527  ARG527      0.1354
    149  NH2      150.2320   65.0740   66.5170 N.pl3 527  ARG527      0.1354
    150  N        144.2530   67.8360   67.6890 N.am  528  PHE528     -0.1962
    151  CA       143.7390   68.5520   66.4980 C.3   528  PHE528      0.1771
    152  C        142.8130   69.7280   66.7840 C.2   528  PHE528      0.2619
    153  O        142.3450   70.3540   65.8470 O.2   528  PHE528     -0.2715
    154  CB       142.9890   67.5920   65.5540 C.3   528  PHE528      0.0574
    155  CG       143.8790   66.6110   64.8360 C.ar  528  PHE528     -0.0200
    156  CD1      144.7320   67.0410   63.8330 C.ar  528  PHE528     -0.0042
    157  CD2      143.8440   65.2390   65.1540 C.ar  528  PHE528     -0.0042
    158  CE1      145.5450   66.1300   63.1840 C.ar  528  PHE528     -0.0003
    159  CE2      144.6580   64.3240   64.5090 C.ar  528  PHE528     -0.0003
    160  CZ       145.5130   64.7700   63.5250 C.ar  528  PHE528     -0.0000
    161  N        142.5220   70.0230   68.0500 N.am  529  ALA529     -0.1963
    162  CA       141.8420   71.2830   68.4160 C.3   529  ALA529      0.1728
    163  C        142.7960   72.4670   68.2600 C.2   529  ALA529      0.2616
    164  O        143.8960   72.4840   68.8460 O.2   529  ALA529     -0.2715
    165  CB       141.3190   71.2290   69.8440 C.3   529  ALA529      0.0334
    166  N        142.3650   73.4570   67.4830 N.am  530  ASN530     -0.1972
    167  CA       143.2410   74.5640   67.1340 C.3   530  ASN530      0.1688
    168  C        143.3170   75.6000   68.2270 C.2   530  ASN530      0.2292
    169  O        142.4740   75.6750   69.1230 O.2   530  ASN530     -0.2864
    170  CB       142.7770   75.2740   65.8700 C.3   530  ASN530      0.1181
    171  CG       142.7070   74.3590   64.6890 C.2   530  ASN530      0.2629
    172  OD1      141.8310   73.4900   64.6210 O.2   530  ASN530     -0.2716
    173  ND2      143.6190   74.5510   63.7390 N.am  530  ASN530     -0.0877
    174  N        146.7800   78.9790   73.3690 N.3   568  TYR568     -0.1241
    175  CA       148.0760   78.3450   73.6030 C.3   568  TYR568      0.1605
    176  C        148.9230   79.3430   74.4530 C.2   568  TYR568      0.2264
    177  O        150.0750   79.6610   74.1500 O.2   568  TYR568     -0.2867
    178  CB       148.7610   77.9060   72.2750 C.3   568  TYR568      0.0534
    179  CG       148.1420   76.7150   71.4630 C.ar  568  TYR568     -0.0201
    180  CD1      146.7650   76.5400   71.3020 C.ar  568  TYR568     -0.0009
    181  CD2      148.9730   75.7970   70.8080 C.ar  568  TYR568     -0.0009
    182  CE1      146.2430   75.4680   70.5620 C.ar  568  TYR568      0.0417
    183  CE2      148.4550   74.7360   70.0550 C.ar  568  TYR568      0.0417
    184  CZ       147.0930   74.5580   69.9370 C.ar  568  TYR568      0.1957
    185  OH       146.6100   73.4730   69.2020 O.3   568  TYR568     -0.2866
@<TRIPOS>BOND
     1     8     6    1
     2     6     5    1
     3     1     2    1
     4     5     2    1
     5     5     7    1
     6     2     3    1
     7    46    45    2
     8    45    44    1
     9    28    27    1
    10     3     9   am
    11     3     4    2
    12     9    10    1
    13    12    11    2
    14    70    72   ar
    15    70    68   ar
    16    26    27   ar
    17    26    24   ar
    18    27    25   ar
    19    72    71   ar
    20    44    43    1
    21    44    47    1
    22    67    68   ar
    23    67    65   ar
    24    68    66   ar
    25    24    22   ar
    26    11    10    1
    27    11    17   am
    28    25    23   ar
    29    41    40    2
    30    10    13    1
    31   101   102   ar
    32   101    99   ar
    33   103   102    1
    34    43    49    1
    35    71    69   ar
    36    42    40   am
    37    55    56    1
    38    55    52   am
    39    13    14    1
    40    56    57    1
    41    47    48    1
    42   102   100   ar
    43    58    57    2
    44    99    97   ar
    45    40    39    1
    46    22    23   ar
    47    22    21    1
    48    65    64   ar
    49    66    69   ar
    50    66    64   ar
    51    17    18    1
    52    18    21    1
    53    18    19    1
    54    57    59   am
    55    51    54    1
    56    51    52    1
    57    51    50    1
    58    49    48    1
    59    52    53    2
    60    64    63    1
    61    37    36    1
    62    37    38    2
    63    14    15    1
    64    29    19   am
    65    29    30    1
    66    36    39    1
    67    36    35    1
    68    33    34    1
    69    33    30    1
    70   100    98   ar
    71    97    98   ar
    72    97    96    1
    73    59    60    1
    74    19    20    2
    75    16    15    1
    76    30    31    1
    77    93    96    1
    78    93    94    1
    79    93    92    1
    80    60    63    1
    81    60    61    1
    82    95    94    2
    83    61    62    2
    84    31    32    2
    85    79    77    1
    86   109   108    1
    87    76    75    2
    88   158   160   ar
    89   158   156   ar
    90   104   105    1
    91   160   159   ar
    92   108   105    1
    93   173   171   am
    94   156   155   ar
    95    75    74    1
    96    75    80   am
    97    83    82    2
    98    77    74    1
    99    77    78    1
   100    74    73    1
   101   105   106    1
   102   148   147    1
   103   159   157   ar
   104   107   106    2
   105   172   171    2
   106   171   170    1
   107    82    81    1
   108   155   157   ar
   109   155   154    1
   110    81    80    1
   111    81    84    1
   112   119   120   ar
   113   119   117   ar
   114   120   118   ar
   115   154   151    1
   116    86    88   ar
   117    86    85   ar
   118   147   146    2
   119   147   149    1
   120   127   125    1
   121   153   152    2
   122   170   167    1
   123   124   123    2
   124    88    90   ar
   125    84    85    1
   126   117   115   ar
   127   146   145    1
   128   118   116   ar
   129   131   130    2
   130    85    87   ar
   131   151   152    1
   132   151   150    1
   133   152   161   am
   134   123   122    1
   135   123   128   am
   136   129   130    1
   137   129   128    1
   138   129   132    1
   139   167   166    1
   140   167   168    1
   141   125   122    1
   142   125   126    1
   143   133   134    1
   144   133   132    1
   145    90    91    1
   146    90    89   ar
   147   122   121    1
   148   115   116   ar
   149   115   114    1
   150   135   134    1
   151   135   136    2
   152   166   163   am
   153   138   136    1
   154   136   137    1
   155   145   144    1
   156   150   141   am
   157    87    89   ar
   158   144   143    1
   159   161   162    1
   160   142   141    2
   161   168   169    2
   162   163   162    1
   163   163   164    2
   164   162   165    1
   165   141   140    1
   166   110   111    1
   167   114   111    1
   168   143   140    1
   169   185   184    1
   170   111   112    1
   171   140   139    1
   172   184   183   ar
   173   184   182   ar
   174   183   181   ar
   175   182   180   ar
   176   112   113    2
   177   181   179   ar
   178   180   179   ar
   179   179   178    1
   180   178   175    1
   181   174   175    1
   182   175   176    1
   183   177   176    2
