@<TRIPOS>MOLECULE
tmp/5lscB00.pdb
 150 149 0 0 0
SMALL
GASTEIGER

@<TRIPOS>ATOM
      1  N        -43.5760    8.0850    9.1360 N.3    31  GLN31      -0.1231
      2  CA       -42.4740    8.8270    8.5300 C.3    31  GLN31       0.1698
      3  C        -41.3460    7.8760    8.2350 C.2    31  GLN31       0.2593
      4  O        -41.1830    6.8840    8.9290 O.2    31  GLN31      -0.2718
      5  CB       -41.9780    9.9200    9.4720 C.3    31  GLN31       0.0381
      6  CG       -42.3290   11.3310    9.0250 C.3    31  GLN31       0.0905
      7  CD       -41.7970   11.6640    7.6480 C.2    31  GLN31       0.2608
      8  OE1      -40.8900   11.0110    7.1360 O.2    31  GLN31      -0.2717
      9  NE2      -42.3690   12.6870    7.0380 N.am   31  GLN31      -0.0878
     10  N        -40.5680    8.1970    7.2060 N.am   32  SER32      -0.1938
     11  CA       -39.4330    7.3800    6.8070 C.3    32  SER32       0.2055
     12  C        -38.1210    8.0910    7.1110 C.2    32  SER32       0.2643
     13  O        -37.9130    9.2300    6.6920 O.2    32  SER32      -0.2714
     14  CB       -39.5020    7.0660    5.3110 C.3    32  SER32       0.2130
     15  OG       -40.6930    6.3700    4.9910 O.3    32  SER32      -0.2179
     16  N        -37.2410    7.4130    7.8410 N.am   33  PHE33      -0.1973
     17  CA       -35.8790    7.8950    8.0420 C.3    33  PHE33       0.1639
     18  C        -34.9960    6.7210    8.4590 C.2    33  PHE33       0.2290
     19  O        -35.5000    5.6850    8.9090 O.2    33  PHE33      -0.2864
     20  CB       -35.8110    9.0580    9.0480 C.3    33  PHE33       0.0560
     21  CG       -36.5050    8.7970   10.3550 C.ar   33  PHE33      -0.0200
     22  CD1      -35.8220    8.2560   11.4310 C.ar   33  PHE33      -0.0042
     23  CD2      -37.8460    9.1010   10.5060 C.ar   33  PHE33      -0.0042
     24  CE1      -36.4820    8.0290   12.6480 C.ar   33  PHE33      -0.0003
     25  CE2      -38.5010    8.8780   11.7030 C.ar   33  PHE33      -0.0003
     26  CZ       -37.8130    8.3370   12.7740 C.ar   33  PHE33      -0.0000
     27  N        -41.5890    4.3490   10.2790 N.3    38  TYR38      -0.1228
     28  CA       -42.0260    4.2520   11.6660 C.3    38  TYR38       0.1721
     29  C        -43.3840    4.9160   11.8110 C.2    38  TYR38       0.2437
     30  O        -43.6620    5.9360   11.1740 O.2    38  TYR38      -0.2733
     31  CB       -41.0610    4.9890   12.6080 C.3    38  TYR38       0.0547
     32  CG       -39.6390    4.5140   12.5500 C.ar   38  TYR38      -0.0200
     33  CD1      -38.7160    5.1100   11.7090 C.ar   38  TYR38      -0.0009
     34  CD2      -39.2240    3.4420   13.3260 C.ar   38  TYR38      -0.0009
     35  CE1      -37.4180    4.6520   11.6530 C.ar   38  TYR38       0.0417
     36  CE2      -37.9240    2.9790   13.2850 C.ar   38  TYR38       0.0417
     37  CZ       -37.0270    3.5790   12.4450 C.ar   38  TYR38       0.1957
     38  OH       -35.7270    3.1100   12.3990 O.3    38  TYR38      -0.2866
     39  N        -44.2390    4.3520   12.6790 N.am   39  PRO39      -0.2729
     40  CA       -45.4900    5.0150   13.0090 C.3    39  PRO39       0.1401
     41  C        -45.3040    5.8850   14.2420 C.2    39  PRO39       0.2269
     42  O        -44.3310    5.7140   14.9730 O.2    39  PRO39      -0.2865
     43  CB       -46.4010    3.8360   13.3520 C.3    39  PRO39       0.0296
     44  CG       -45.4450    2.8790   14.0700 C.3    39  PRO39       0.0237
     45  CD       -44.0920    3.0840   13.4140 C.3    39  PRO39       0.0939
     46  N        -45.3530   13.8070   13.6390 N.3    58  TRP58      -0.1227
     47  CA       -44.0330   14.0180   13.0580 C.3    58  TRP58       0.1737
     48  C        -43.7940   15.5170   12.8040 C.2    58  TRP58       0.2596
     49  O        -43.9260   16.3130   13.7370 O.2    58  TRP58      -0.2718
     50  CB       -43.8330   13.1450   11.7940 C.3    58  TRP58       0.0564
     51  CG       -43.9050   11.6340   12.0720 C.ar   58  TRP58       0.0003
     52  CD1      -44.9100   10.7920   11.7190 C.ar   58  TRP58       0.0946
     53  CD2      -42.9380   10.8320   12.7840 C.ar   58  TRP58       0.0152
     54  NE1      -44.6330    9.5080   12.1530 N.ar   58  TRP58      -0.2442
     55  CE2      -43.4370    9.5130   12.8240 C.ar   58  TRP58       0.0810
     56  CE3      -41.7060   11.1040   13.3970 C.ar   58  TRP58       0.0012
     57  CZ2      -42.7280    8.4560   13.4180 C.ar   58  TRP58       0.0191
     58  CZ3      -41.0230   10.0740   14.0030 C.ar   58  TRP58       0.0001
     59  CH2      -41.5300    8.7580   14.0090 C.ar   58  TRP58       0.0015
     60  N        -43.4720   15.8960   11.5730 N.am   59  GLY59      -0.1957
     61  CA       -43.0880   17.2570   11.2730 C.3    59  GLY59       0.1869
     62  C        -44.2200   18.1210   10.7630 C.2    59  GLY59       0.2309
     63  O        -45.4010   17.8540   10.9490 O.2    59  GLY59      -0.2863
     64  N        -38.5750   16.2240   21.9040 N.3    87  HIS87      -0.1226
     65  CA       -38.1110   15.7300   20.6130 C.3    87  HIS87       0.1752
     66  C        -39.0230   16.0950   19.4450 C.2    87  HIS87       0.2596
     67  O        -40.1990   16.3680   19.6300 O.2    87  HIS87      -0.2718
     68  CB       -37.9940   14.2200   20.6630 C.3    87  HIS87       0.0759
     69  CG       -36.8380   13.7250   21.4830 C.ar   87  HIS87       0.0818
     70  ND1      -36.7990   12.4470   21.9990 N.ar   87  HIS87      -0.2268
     71  CD2      -35.6580   14.3050   21.8280 C.ar   87  HIS87       0.1154
     72  CE1      -35.6570   12.2680   22.6360 C.ar   87  HIS87       0.1986
     73  NE2      -34.9480   13.3810   22.5540 N.ar   87  HIS87      -0.2212
     74  N        -38.4670   16.0640   18.2380 N.am   88  ASP88      -0.1960
     75  CA       -39.2240   16.4130   17.0480 C.3    88  ASP88       0.1840
     76  C        -40.4310   15.5220   16.7490 C.2    88  ASP88       0.2622
     77  O        -41.3310   15.9250   16.0130 O.2    88  ASP88      -0.2715
     78  CB       -38.2880   16.5200   15.8520 C.3    88  ASP88       0.1450
     79  CG       -37.6530   17.9050   15.7340 C.2    88  ASP88       0.3671
     80  OD1      -38.2180   18.8890   16.2710 O.co2  88  ASP88      -0.2456
     81  OD2      -36.5870   17.9910   15.1120 O.co2  88  ASP88      -0.2456
     82  N        -40.4850   14.3120   17.3030 N.am   89  ASP89      -0.1971
     83  CA       -41.6920   13.5060   17.1080 C.3    89  ASP89       0.1709
     84  C        -42.8590   13.9910   17.9780 C.2    89  ASP89       0.2293
     85  O        -43.9880   13.5310   17.8110 O.2    89  ASP89      -0.2864
     86  CB       -41.4430   11.9750   17.2330 C.3    89  ASP89       0.1436
     87  CG       -41.1100   11.5030   18.6400 C.2    89  ASP89       0.3671
     88  OD1      -40.5650   12.2670   19.4480 O.co2  89  ASP89      -0.2456
     89  OD2      -41.3620   10.2950   18.8700 O.co2  89  ASP89      -0.2456
     90  N        -37.7500    7.7860   28.7910 N.3   150  HIS150     -0.1241
     91  CA       -37.2880    8.0260   27.4160 C.3   150  HIS150      0.1621
     92  C        -36.5180    9.3470   27.3110 C.2   150  HIS150      0.2264
     93  O        -35.5350    9.4430   26.5870 O.2   150  HIS150     -0.2867
     94  CB       -38.5190    8.0250   26.4880 C.3   150  HIS150      0.0745
     95  CG       -38.2550    8.5090   25.0850 C.ar  150  HIS150      0.0817
     96  ND1      -37.8080    7.6720   24.0850 N.ar  150  HIS150     -0.2268
     97  CD2      -38.4070    9.7290   24.5160 C.ar  150  HIS150      0.1154
     98  CE1      -37.6880    8.3610   22.9590 C.ar  150  HIS150      0.1986
     99  NE2      -38.0440    9.6100   23.1940 N.ar  150  HIS150     -0.2212
    100  N        -43.5590    8.2660   24.5520 N.3   169  CYS169     -0.1235
    101  CA       -42.3740    7.4670   24.2170 C.3   169  CYS169      0.1677
    102  C        -41.7300    6.7780   25.4130 C.2   169  CYS169      0.2270
    103  O        -40.8540    5.9320   25.2470 O.2   169  CYS169     -0.2867
    104  CB       -41.3890    8.3180   23.4060 C.3   169  CYS169      0.0956
    105  SG       -42.1830    8.9010   21.9120 S.3   169  CYS169     -0.0801
    106  N        -43.3400    1.4980   25.4280 N.3   172  TYR172     -0.1241
    107  CA       -43.1500    0.7930   24.1700 C.3   172  TYR172      0.1605
    108  C        -44.3180   -0.1260   23.8460 C.2   172  TYR172      0.2264
    109  O        -44.9060   -0.7320   24.7510 O.2   172  TYR172     -0.2867
    110  CB       -41.9070   -0.0710   24.2640 C.3   172  TYR172      0.0534
    111  CG       -40.5670    0.6360   24.2030 C.ar  172  TYR172     -0.0201
    112  CD1      -40.4580    1.9660   23.9060 C.ar  172  TYR172     -0.0009
    113  CD2      -39.4070   -0.0650   24.4320 C.ar  172  TYR172     -0.0009
    114  CE1      -39.2060    2.5970   23.8540 C.ar  172  TYR172      0.0417
    115  CE2      -38.1540    0.5300   24.3590 C.ar  172  TYR172      0.0417
    116  CZ       -38.0730    1.8830   24.0720 C.ar  172  TYR172      0.1957
    117  OH       -36.8480    2.4800   23.9930 O.3   172  TYR172     -0.2866
    118  N        -42.1790   -4.1230   20.0350 N.3   176  ARG176     -0.1245
    119  CA       -40.8430   -3.5650   20.1690 C.3   176  ARG176      0.1563
    120  C        -40.0990   -4.2830   21.2770 C.2   176  ARG176      0.2260
    121  O        -40.4560   -4.1770   22.4540 O.2   176  ARG176     -0.2867
    122  CB       -40.8600   -2.0640   20.3890 C.3   176  ARG176      0.0307
    123  CG       -39.4800   -1.5160   20.6580 C.3   176  ARG176      0.0489
    124  CD       -39.4140   -0.0060   20.6540 C.3   176  ARG176      0.2205
    125  NE       -39.3150    0.5240   19.3040 N.pl3 176  ARG176     -0.0865
    126  CZ       -38.2320    0.4300   18.5350 C.cat 176  ARG176      0.5346
    127  NH1      -37.1320   -0.2310   18.9350 N.pl3 176  ARG176      0.1354
    128  NH2      -38.2670    0.9510   17.3220 N.pl3 176  ARG176      0.1354
    129  N        -35.5290    1.7150   21.5200 N.3   180  GLY180     -0.1210
    130  CA       -35.6770    2.6730   20.4410 C.3   180  GLY180      0.1956
    131  C        -34.6220    3.7560   20.6030 C.2   180  GLY180      0.2611
    132  O        -33.4740    3.4680   20.9370 O.2   180  GLY180     -0.2717
    133  N        -34.9950    5.0020   20.3440 N.am  181  ASN181     -0.1974
    134  CA       -34.0630    6.1060   20.5340 C.3   181  ASN181      0.1688
    135  C        -33.8840    6.3760   22.0160 C.2   181  ASN181      0.2292
    136  O        -34.8180    6.8170   22.6820 O.2   181  ASN181     -0.2864
    137  CB       -34.5490    7.3730   19.8380 C.3   181  ASN181      0.1181
    138  CG       -33.7270    8.5930   20.2200 C.2   181  ASN181      0.2629
    139  OD1      -32.5270    8.6560   19.9480 O.2   181  ASN181     -0.2716
    140  ND2      -34.3690    9.5670   20.8600 N.am  181  ASN181     -0.0877
    141  N        -45.3840    5.0050   19.8700 N.3   211  HIS211     -0.1241
    142  CA       -45.2400    4.4440   18.5450 C.3   211  HIS211      0.1621
    143  C        -45.8650    3.0640   18.5690 C.2   211  HIS211      0.2264
    144  O        -45.4810    2.2400   19.3870 O.2   211  HIS211     -0.2867
    145  CB       -43.7590    4.3680   18.1650 C.3   211  HIS211      0.0745
    146  CG       -43.0380    5.6850   18.2420 C.ar  211  HIS211      0.0817
    147  ND1      -42.9740    6.5760   17.1910 N.ar  211  HIS211     -0.2268
    148  CD2      -42.3440    6.2480   19.2570 C.ar  211  HIS211      0.1154
    149  CE1      -42.2790    7.6430   17.5610 C.ar  211  HIS211      0.1986
    150  NE2      -41.8840    7.4730   18.8130 N.ar  211  HIS211     -0.2212
@<TRIPOS>BOND
     1    15    14    1
     2    14    11    1
     3    13    12    2
     4    11    12    1
     5    11    10    1
     6     9     7   am
     7    12    16   am
     8     8     7    2
     9    10     3   am
    10     7     6    1
    11    16    17    1
    12    17    18    1
    13    17    20    1
    14     3     2    1
    15     3     4    2
    16    18    19    2
    17     2     1    1
    18     2     5    1
    19     6     5    1
    20    20    21    1
    21    27    28    1
    22    21    23   ar
    23    21    22   ar
    24    23    25   ar
    25    62    63    2
    26    62    61    1
    27    30    29    2
    28    61    60    1
    29    22    24   ar
    30    60    48   am
    31    35    33   ar
    32    35    37   ar
    33    28    29    1
    34    28    31    1
    35    25    26   ar
    36    33    32   ar
    37    52    51   ar
    38    52    54   ar
    39    50    51    1
    40    50    47    1
    41    29    39   am
    42    51    53   ar
    43    54    55   ar
    44    38    37    1
    45    37    36   ar
    46    32    31    1
    47    32    34   ar
    48    24    26   ar
    49    39    40    1
    50    39    45    1
    51    53    55   ar
    52    53    56   ar
    53    48    47    1
    54    48    49    2
    55    55    57   ar
    56    40    43    1
    57    40    41    1
    58    47    46    1
    59    36    34   ar
    60    43    44    1
    61    56    58   ar
    62    45    44    1
    63    57    59   ar
    64    58    59   ar
    65    41    42    2
    66    81    79   ar
    67    79    78    1
    68    79    80   ar
    69    78    75    1
    70    77    76    2
    71    76    75    1
    72    76    82   am
    73    75    74    1
    74    83    86    1
    75    83    82    1
    76    83    84    1
    77   147   149   ar
    78   147   146   ar
    79    86    87    1
    80   128   126    1
    81   149   150   ar
    82    85    84    2
    83   145   146    1
    84   145   142    1
    85    74    66   am
    86   146   148   ar
    87   126   127    1
    88   126   125    2
    89   142   143    1
    90   142   141    1
    91   143   144    2
    92    87    89   ar
    93    87    88   ar
    94   150   148   ar
    95   125   124    1
    96    66    67    2
    97    66    65    1
    98   137   138    1
    99   137   134    1
   100   139   138    2
   101   118   119    1
   102   119   122    1
   103   119   120    1
   104   138   140   am
   105   133   134    1
   106   133   131   am
   107   122   123    1
   108   130   131    1
   109   130   129    1
   110   134   135    1
   111   131   132    2
   112    65    68    1
   113    65    64    1
   114   124   123    1
   115    68    69    1
   116   120   121    2
   117    69    71   ar
   118    69    70   ar
   119    71    73   ar
   120   105   104    1
   121    70    72   ar
   122   135   136    2
   123    73    72   ar
   124    98    99   ar
   125    98    96   ar
   126    99    97   ar
   127   104   101    1
   128   108   107    1
   129   108   109    2
   130   114   112   ar
   131   114   116   ar
   132   112   111   ar
   133   117   116    1
   134   116   115   ar
   135    96    95   ar
   136   107   110    1
   137   107   106    1
   138   111   110    1
   139   111   113   ar
   140   101   100    1
   141   101   102    1
   142   115   113   ar
   143    97    95   ar
   144    95    94    1
   145   103   102    2
   146    94    91    1
   147    93    92    2
   148    92    91    1
   149    91    90    1
