@<TRIPOS>MOLECULE
tmp/5lsgA00.pdb
 214 203 0 0 0
SMALL
GASTEIGER

@<TRIPOS>ATOM
      1  N         22.4900   26.1410    9.5490 N.3    63  ILE63      -0.1231
      2  CA        21.8610   24.8270    9.4380 C.3    63  ILE63       0.1692
      3  C         21.6680   24.2180   10.8250 C.2    63  ILE63       0.2592
      4  O         20.6090   23.6800   11.1390 O.2    63  ILE63      -0.2718
      5  CB        22.6990   23.8640    8.5760 C.3    63  ILE63       0.0266
      6  CG1       22.5950   24.2380    7.1000 C.3    63  ILE63       0.0019
      7  CG2       22.2440   22.4290    8.7670 C.3    63  ILE63       0.0020
      8  CD1       23.3320   23.2770    6.1900 C.3    63  ILE63       0.0001
      9  N         22.7010   24.3200   11.6540 N.am   64  PHE64      -0.1976
     10  CA        22.6590   23.7780   13.0100 C.3    64  PHE64       0.1639
     11  C         21.5210   24.3930   13.8240 C.2    64  PHE64       0.2290
     12  O         20.8480   23.6970   14.5780 O.2    64  PHE64      -0.2864
     13  CB        24.0070   24.0010   13.7100 C.3    64  PHE64       0.0560
     14  CG        24.1020   23.3660   15.0700 C.ar   64  PHE64      -0.0200
     15  CD1       24.3530   22.0120   15.1960 C.ar   64  PHE64      -0.0042
     16  CD2       23.9610   24.1270   16.2220 C.ar   64  PHE64      -0.0042
     17  CE1       24.4470   21.4240   16.4430 C.ar   64  PHE64      -0.0003
     18  CE2       24.0600   23.5410   17.4760 C.ar   64  PHE64      -0.0003
     19  CZ        24.3020   22.1910   17.5850 C.ar   64  PHE64      -0.0000
     20  N         18.8210   25.6960   12.5190 N.3    66  GLY66      -0.1210
     21  CA        17.6150   25.2170   11.8740 C.3    66  GLY66       0.1956
     22  C         17.2360   23.8890   12.4900 C.2    66  GLY66       0.2612
     23  O         16.0680   23.6240   12.7740 O.2    66  GLY66      -0.2717
     24  N         18.2460   23.0520   12.7030 N.am   67  CYS67      -0.1956
     25  CA        18.0750   21.8220   13.4620 C.3    67  CYS67       0.1843
     26  C         17.5280   22.1180   14.8550 C.2    67  CYS67       0.2625
     27  O         16.5030   21.5600   15.2530 O.2    67  CYS67      -0.2714
     28  CB        19.3960   21.0650   13.5730 C.3    67  CYS67       0.0997
     29  SG        19.9740   20.3790   12.0240 S.3    67  CYS67      -0.0797
     30  N         18.2000   23.0070   15.5840 N.am   68  GLN68      -0.1977
     31  CA        17.7600   23.3650   16.9310 C.3    68  GLN68       0.1601
     32  C         16.2720   23.6920   16.9840 C.2    68  GLN68       0.2287
     33  O         15.5680   23.2240   17.8850 O.2    68  GLN68      -0.2864
     34  CB        18.5600   24.5470   17.4840 C.3    68  GLN68       0.0394
     35  CG        20.0150   24.2400   17.7770 C.3    68  GLN68       0.0908
     36  CD        20.6210   25.2020   18.8030 C.2    68  GLN68       0.2608
     37  OE1       19.9100   25.7680   19.6430 O.2    68  GLN68      -0.2717
     38  NE2       21.9370   25.3850   18.7420 N.am   68  GLN68      -0.0878
     39  N         13.7900   22.7180   14.8700 N.3    70  ARG70      -0.1231
     40  CA        12.9550   21.5480   14.6080 C.3    70  ARG70       0.1694
     41  C         12.9250   20.5860   15.7960 C.2    70  ARG70       0.2592
     42  O         11.8860   19.9760   16.0860 O.2    70  ARG70      -0.2718
     43  CB        13.4270   20.8180   13.3510 C.3    70  ARG70       0.0321
     44  CG        12.7100   19.4940   13.1070 C.3    70  ARG70       0.0489
     45  CD        11.1920   19.6340   12.9390 C.3    70  ARG70       0.2205
     46  NE        10.5380   18.3490   13.1810 N.pl3  70  ARG70      -0.0865
     47  CZ         9.2540   18.1960   13.4830 C.cat  70  ARG70       0.5346
     48  NH1        8.4640   19.2510   13.5830 N.pl3  70  ARG70       0.1354
     49  NH2        8.7630   16.9840   13.6930 N.pl3  70  ARG70       0.1354
     50  N         14.0540   20.4510   16.4890 N.am   71  SER71      -0.1952
     51  CA        14.0490   19.6990   17.7350 C.3    71  SER71       0.1924
     52  C         13.1190   20.2430   18.7580 C.2    71  SER71       0.2314
     53  O         12.4950   19.4730   19.4580 O.2    71  SER71      -0.2863
     54  CB        15.4190   19.6230   18.3700 C.3    71  SER71       0.2116
     55  OG        16.1550   18.6500   17.7240 O.3    71  SER71      -0.2180
     56  N         14.9850   12.6660   23.4570 N.3   105  HIS105     -0.1241
     57  CA        16.0100   12.6020   22.4050 C.3   105  HIS105      0.1621
     58  C         16.0600   11.2530   21.7130 C.2   105  HIS105      0.2264
     59  O         16.3000   11.1720   20.4980 O.2   105  HIS105     -0.2867
     60  CB        17.3750   12.9630   22.9730 C.3   105  HIS105      0.0745
     61  CG        17.6340   14.4310   22.9550 C.ar  105  HIS105      0.0817
     62  ND1       17.2460   15.2700   23.9780 N.ar  105  HIS105     -0.2268
     63  CD2       18.1880   15.2220   22.0080 C.ar  105  HIS105      0.1154
     64  CE1       17.5730   16.5120   23.6700 C.ar  105  HIS105      0.1986
     65  NE2       18.1450   16.5110   22.4790 N.ar  105  HIS105     -0.2212
     66  N         13.2310   11.3630   19.2840 N.3   108  ILE108     -0.1231
     67  CA        13.5780   12.2010   18.1560 C.3   108  ILE108      0.1692
     68  C         14.4390   11.4570   17.1150 C.2   108  ILE108      0.2592
     69  O         14.2410   11.6310   15.9190 O.2   108  ILE108     -0.2718
     70  CB        14.3070   13.4680   18.6380 C.3   108  ILE108      0.0266
     71  CG1       13.2960   14.4620   19.2160 C.3   108  ILE108      0.0019
     72  CG2       15.1310   14.1070   17.5110 C.3   108  ILE108      0.0020
     73  CD1       13.9270   15.7070   19.8140 C.3   108  ILE108      0.0001
     74  N         15.3670   10.6130   17.5670 N.am  109  TYR109     -0.1976
     75  CA        16.2280    9.8860   16.6290 C.3   109  TYR109      0.1639
     76  C         15.5230    8.6590   16.0690 C.2   109  TYR109      0.2290
     77  O         15.7950    8.2480   14.9470 O.2   109  TYR109     -0.2864
     78  CB        17.5420    9.4910   17.3070 C.3   109  TYR109      0.0560
     79  CG        18.2930   10.6920   17.8250 C.ar  109  TYR109     -0.0198
     80  CD1       18.3180   11.8760   17.0940 C.ar  109  TYR109     -0.0009
     81  CD2       18.9450   10.6640   19.0500 C.ar  109  TYR109     -0.0009
     82  CE1       18.9800   12.9900   17.5560 C.ar  109  TYR109      0.0417
     83  CE2       19.6160   11.7800   19.5240 C.ar  109  TYR109      0.0417
     84  CZ        19.6290   12.9400   18.7630 C.ar  109  TYR109      0.1957
     85  OH        20.3000   14.0600   19.2100 O.3   109  TYR109     -0.2866
     86  N         13.2690   10.4010   13.4980 N.3   112  LEU112     -0.1245
     87  CA        14.1690   10.9470   12.4920 C.3   112  LEU112      0.1561
     88  C         14.5140    9.9060   11.4360 C.2   112  LEU112      0.2260
     89  O         14.6500   10.2230   10.2430 O.2   112  LEU112     -0.2867
     90  CB        15.4500   11.4580   13.1510 C.3   112  LEU112      0.0270
     91  CG        16.5290   11.9110   12.1790 C.3   112  LEU112      0.0019
     92  CD1       15.9910   13.0770   11.3710 C.3   112  LEU112      0.0001
     93  CD2       17.7840   12.2670   12.9340 C.3   112  LEU112      0.0001
     94  N         12.3960    9.7710    8.4000 N.3   115  LEU115     -0.1245
     95  CA        12.6130   10.8030    7.3970 C.3   115  LEU115      0.1561
     96  C         13.9060   10.5930    6.6090 C.2   115  LEU115      0.2260
     97  O         14.2220   11.3820    5.7180 O.2   115  LEU115     -0.2867
     98  CB        12.6550   12.1840    8.0380 C.3   115  LEU115      0.0270
     99  CG        11.5550   12.5620    9.0330 C.3   115  LEU115      0.0019
    100  CD1       11.6030   14.0540    9.3590 C.3   115  LEU115      0.0001
    101  CD2       10.2170   12.1860    8.4880 C.3   115  LEU115      0.0001
    102  N         18.0490   13.3190    4.1960 N.3   121  VAL121     -0.1231
    103  CA        16.9530   13.4510    5.1510 C.3   121  VAL121      0.1692
    104  C         15.9780   14.5480    4.7330 C.2   121  VAL121      0.2592
    105  O         16.3770   15.6310    4.2800 O.2   121  VAL121     -0.2718
    106  CB        17.5100   13.7380    6.5790 C.3   121  VAL121      0.0266
    107  CG1       18.3810   14.9670    6.5670 C.3   121  VAL121      0.0020
    108  CG2       16.3740   13.8900    7.6140 C.3   121  VAL121      0.0020
    109  N         14.6920   14.2460    4.8600 N.am  122  LEU122     -0.1966
    110  CA        13.6330   15.2110    4.6110 C.3   122  LEU122      0.1728
    111  C         13.6880   16.3620    5.5870 C.2   122  LEU122      0.2616
    112  O         13.8870   16.1570    6.7990 O.2   122  LEU122     -0.2715
    113  CB        12.2700   14.5360    4.7100 C.3   122  LEU122      0.0311
    114  CG        11.9520   13.6030    3.5470 C.3   122  LEU122      0.0022
    115  CD1       10.6610   12.8410    3.8620 C.3   122  LEU122      0.0001
    116  CD2       11.7860   14.4400    2.2900 C.3   122  LEU122      0.0001
    117  N         13.4970   17.5710    5.0780 N.am  123  ILE123     -0.1977
    118  CA        13.4410   18.7370    5.9450 C.3   123  ILE123      0.1596
    119  C         12.2000   19.5500    5.6420 C.2   123  ILE123      0.2287
    120  O         11.5310   19.3200    4.6310 O.2   123  ILE123     -0.2864
    121  CB        14.6780   19.6340    5.7920 C.3   123  ILE123      0.0276
    122  CG1       14.6640   20.3660    4.4570 C.3   123  ILE123      0.0022
    123  CG2       15.9460   18.8300    5.8620 C.3   123  ILE123      0.0022
    124  CD1       15.8770   21.2230    4.2680 C.3   123  ILE123      0.0001
    125  N         17.7370   17.1600    2.3470 N.3   130  MET130     -0.1245
    126  CA        19.1290   17.5370    2.4730 C.3   130  MET130      0.1570
    127  C         20.0030   16.3080    2.4040 C.2   130  MET130      0.2261
    128  O         19.7920   15.3130    3.1060 O.2   130  MET130     -0.2867
    129  CB        19.3800   18.3030    3.7690 C.3   130  MET130      0.0387
    130  CG        20.7570   18.9650    3.8310 C.3   130  MET130      0.0595
    131  SD        20.9070   20.0400    5.2750 S.3   130  MET130     -0.1393
    132  CE        19.6330   21.2520    4.9830 C.3   130  MET130      0.0692
    133  N         25.6990   17.3210    4.3800 N.3   135  LEU135     -0.1245
    134  CA        25.7760   17.4730    5.8310 C.3   135  LEU135      0.1561
    135  C         27.1610   17.0950    6.3420 C.2   135  LEU135      0.2260
    136  O         27.6960   17.7400    7.2430 O.2   135  LEU135     -0.2867
    137  CB        24.7050   16.6260    6.5310 C.3   135  LEU135      0.0270
    138  CG        23.2800   17.1830    6.4770 C.3   135  LEU135      0.0019
    139  CD1       22.2720   16.1470    6.9310 C.3   135  LEU135      0.0001
    140  CD2       23.1800   18.4280    7.3390 C.3   135  LEU135      0.0001
    141  N         27.7560   15.9180   13.0190 N.3   145  PHE145     -0.1227
    142  CA        26.6000   15.8820   13.9000 C.3   145  PHE145      0.1736
    143  C         25.6300   14.8170   13.4170 C.2   145  PHE145      0.2595
    144  O         25.0940   14.0500   14.2080 O.2   145  PHE145     -0.2718
    145  CB        25.9060   17.2470   13.9640 C.3   145  PHE145      0.0547
    146  CG        26.1860   18.0060   15.2320 C.ar  145  PHE145     -0.0202
    147  CD1       25.4800   17.7290   16.3910 C.ar  145  PHE145     -0.0042
    148  CD2       27.1610   18.9910   15.2680 C.ar  145  PHE145     -0.0042
    149  CE1       25.7440   18.4230   17.5660 C.ar  145  PHE145     -0.0003
    150  CE2       27.4280   19.6890   16.4400 C.ar  145  PHE145     -0.0003
    151  CZ        26.7210   19.4070   17.5880 C.ar  145  PHE145     -0.0000
    152  N         25.4420   14.7540   12.1030 N.am  146  MET146     -0.1979
    153  CA        24.3520   13.9740   11.5320 C.3   146  MET146      0.1605
    154  C         24.7270   12.5410   11.1680 C.2   146  MET146      0.2287
    155  O         23.8720   11.6580   11.1760 O.2   146  MET146     -0.2864
    156  CB        23.7920   14.6910   10.3020 C.3   146  MET146      0.0413
    157  CG        22.9980   15.9490   10.6430 C.3   146  MET146      0.0598
    158  SD        21.6800   15.5900   11.8320 S.3   146  MET146     -0.1393
    159  CE        20.9470   14.1850   10.9910 C.3   146  MET146      0.0692
    160  N         23.5050    9.5500   13.1520 N.3   149  LYS149     -0.1245
    161  CA        22.0590    9.4180   13.0190 C.3   149  LYS149      0.1561
    162  C         21.7250    8.6610   11.7340 C.2   149  LYS149      0.2260
    163  O         20.8690    7.7760   11.7460 O.2   149  LYS149     -0.2867
    164  CB        21.3810   10.7850   13.0510 C.3   149  LYS149      0.0271
    165  CG        21.2780   11.3510   14.4640 C.3   149  LYS149      0.0035
    166  CD        21.5260   12.8460   14.4960 C.3   149  LYS149      0.0206
    167  CE        21.9620   13.3020   15.8840 C.3   149  LYS149      0.1093
    168  NZ        23.3620   12.9420   16.2300 N.3   149  LYS149     -0.1314
    169  N         25.9240   12.6420   20.9140 N.3   231  HIS231     -0.1241
    170  CA        25.4410   13.9450   20.5030 C.3   231  HIS231      0.1621
    171  C         25.7070   14.9940   21.5930 C.2   231  HIS231      0.2264
    172  O         26.1640   16.1050   21.3080 O.2   231  HIS231     -0.2867
    173  CB        23.9480   13.9000   20.1610 C.3   231  HIS231      0.0745
    174  CG        23.3700   15.2530   19.9170 C.ar  231  HIS231      0.0817
    175  ND1       23.4680   15.8960   18.7020 N.ar  231  HIS231     -0.2268
    176  CD2       22.7510   16.1200   20.7530 C.ar  231  HIS231      0.1154
    177  CE1       22.9210   17.0930   18.7980 C.ar  231  HIS231      0.1986
    178  NE2       22.4770   17.2520   20.0330 N.ar  231  HIS231     -0.2212
    179  N         27.8480   18.5720   21.5980 N.3   235  LEU235     -0.1245
    180  CA        27.2650   19.8670   21.9220 C.3   235  LEU235      0.1561
    181  C         28.1540   20.6460   22.9080 C.2   235  LEU235      0.2260
    182  O         28.2480   21.8740   22.8520 O.2   235  LEU235     -0.2867
    183  CB        25.8650   19.6720   22.4980 C.3   235  LEU235      0.0270
    184  CG        24.7190   20.4870   21.8940 C.3   235  LEU235      0.0019
    185  CD1       24.5180   20.1610   20.4330 C.3   235  LEU235      0.0001
    186  CD2       23.4310   20.2450   22.6770 C.3   235  LEU235      0.0001
    187  N         21.8700   28.2120   22.6900 N.3   247  LEU247     -0.1245
    188  CA        21.0180   27.0300   22.7370 C.3   247  LEU247      0.1561
    189  C         19.6290   27.4030   23.2570 C.2   247  LEU247      0.2260
    190  O         19.4760   28.3920   23.9730 O.2   247  LEU247     -0.2867
    191  CB        21.6520   25.9520   23.6170 C.3   247  LEU247      0.0270
    192  CG        21.0810   24.5360   23.5380 C.3   247  LEU247      0.0019
    193  CD1       21.0830   24.0290   22.0990 C.3   247  LEU247      0.0001
    194  CD2       21.8580   23.5920   24.4500 C.3   247  LEU247      0.0001
    195  N         15.5990   23.1190   25.1380 N.3   251  LEU251     -0.1245
    196  CA        16.6140   22.1230   24.8090 C.3   251  LEU251      0.1561
    197  C         17.6980   22.0510   25.8790 C.2   251  LEU251      0.2260
    198  O         18.1920   20.9740   26.2030 O.2   251  LEU251     -0.2867
    199  CB        17.2480   22.4240   23.4450 C.3   251  LEU251      0.0270
    200  CG        16.4040   22.1110   22.2080 C.3   251  LEU251      0.0019
    201  CD1       17.2280   22.2670   20.9360 C.3   251  LEU251      0.0001
    202  CD2       15.8150   20.7090   22.3140 C.3   251  LEU251      0.0001
    203  N         19.3020   18.7690   28.5220 N.3   255  TYR255     -0.1241
    204  CA        20.6700   18.2940   28.7630 C.3   255  TYR255      0.1605
    205  C         21.2030   18.6720   30.1580 C.2   255  TYR255      0.2264
    206  O         21.4110   19.8530   30.4430 O.2   255  TYR255     -0.2867
    207  CB        21.6300   18.8370   27.6980 C.3   255  TYR255      0.0534
    208  CG        21.1640   18.6750   26.2630 C.ar  255  TYR255     -0.0201
    209  CD1       21.1010   17.4220   25.6620 C.ar  255  TYR255     -0.0009
    210  CD2       20.8130   19.7810   25.5030 C.ar  255  TYR255     -0.0009
    211  CE1       20.6810   17.2770   24.3390 C.ar  255  TYR255      0.0417
    212  CE2       20.3860   19.6470   24.1910 C.ar  255  TYR255      0.0417
    213  CZ        20.3270   18.3960   23.6110 C.ar  255  TYR255      0.1957
    214  OH        19.9090   18.2720   22.2990 O.3   255  TYR255     -0.2866
@<TRIPOS>BOND
     1   116   114    1
     2   125   126    1
     3   127   126    1
     4   127   128    2
     5   126   129    1
     6   114   115    1
     7   114   113    1
     8   129   130    1
     9   130   131    1
    10   102   103    1
    11   124   122    1
    12   105   104    2
    13   133   134    1
    14   122   121    1
    15   110   113    1
    16   110   109    1
    17   110   111    1
    18   120   119    2
    19   104   109   am
    20   104   103    1
    21   132   131    1
    22   117   111   am
    23   117   118    1
    24   103   106    1
    25   111   112    2
    26   119   118    1
    27    97    96    2
    28   121   123    1
    29   121   118    1
    30   134   135    1
    31   134   137    1
    32     8     6    1
    33   135   136    2
    34   138   137    1
    35   138   139    1
    36   138   140    1
    37   107   106    1
    38   106   108    1
    39    96    95    1
    40     6     5    1
    41    95    98    1
    42    95    94    1
    43    98    99    1
    44   101    99    1
    45     5     7    1
    46     5     2    1
    47    99   100    1
    48     2     1    1
    49     2     3    1
    50    89    88    2
    51   156   157    1
    52   156   153    1
    53   157   158    1
    54     3     4    2
    55     3     9   am
    56   159   158    1
    57   154   155    2
    58   154   153    1
    59    92    91    1
    60    88    87    1
    61   153   152    1
    62     9    10    1
    63   162   163    2
    64   162   161    1
    65    21    22    1
    66    21    20    1
    67    29    28    1
    68   152   143   am
    69    91    93    1
    70    91    90    1
    71    22    24   am
    72    22    23    2
    73    87    90    1
    74    87    86    1
    75    24    25    1
    76    45    44    1
    77    45    46    1
    78    10    13    1
    79    10    11    1
    80   161   164    1
    81   161   160    1
    82   141   142    1
    83   164   165    1
    84    44    43    1
    85    46    47    2
    86    43    40    1
    87   143   142    1
    88   143   144    2
    89    25    28    1
    90    25    26    1
    91    47    48    1
    92    47    49    1
    93    13    14    1
    94    11    12    2
    95   142   145    1
    96   145   146    1
    97   165   166    1
    98   166   167    1
    99    40    39    1
   100    40    41    1
   101    26    27    2
   102    26    30   am
   103    77    76    2
   104    14    15   ar
   105    14    16   ar
   106    15    17   ar
   107   146   148   ar
   108   146   147   ar
   109   148   150   ar
   110    30    31    1
   111    41    42    2
   112    41    50   am
   113   167   168    1
   114    69    68    2
   115    76    75    1
   116    16    18   ar
   117   147   149   ar
   118   150   151   ar
   119    17    19   ar
   120    50    51    1
   121    75    78    1
   122    75    74    1
   123    31    32    1
   124    31    34    1
   125    32    33    2
   126    80    82   ar
   127    80    79   ar
   128    68    74   am
   129    68    67    1
   130    78    79    1
   131    18    19   ar
   132    34    35    1
   133    72    70    1
   134    82    84   ar
   135   149   151   ar
   136    55    54    1
   137    51    54    1
   138    51    52    1
   139    35    36    1
   140    79    81   ar
   141    67    70    1
   142    67    66    1
   143    70    71    1
   144   175   177   ar
   145   175   174   ar
   146    38    36   am
   147    52    53    2
   148    84    85    1
   149    84    83   ar
   150   177   178   ar
   151    36    37    2
   152    81    83   ar
   153    71    73    1
   154   174   173    1
   155   174   176   ar
   156   178   176   ar
   157   173   170    1
   158   185   184    1
   159    59    58    2
   160   170   169    1
   161   170   171    1
   162   201   200    1
   163   172   171    2
   164   179   180    1
   165    58    57    1
   166   184   183    1
   167   184   186    1
   168   180   183    1
   169   180   181    1
   170    63    65   ar
   171    63    61   ar
   172   193   192    1
   173   200   202    1
   174   200   199    1
   175   214   213    1
   176    57    60    1
   177    57    56    1
   178    65    64   ar
   179   187   188    1
   180   188   189    1
   181   188   191    1
   182   182   181    2
   183    61    60    1
   184    61    62   ar
   185   189   190    2
   186   199   196    1
   187   192   191    1
   188   192   194    1
   189   213   212   ar
   190   213   211   ar
   191    64    62   ar
   192   212   210   ar
   193   211   209   ar
   194   196   195    1
   195   196   197    1
   196   210   208   ar
   197   209   208   ar
   198   197   198    2
   199   208   207    1
   200   207   204    1
   201   203   204    1
   202   204   205    1
   203   205   206    2
