@<TRIPOS>MOLECULE
tmp/5lshA00.pdb
 172 168 0 0 0
SMALL
GASTEIGER

@<TRIPOS>ATOM
      1  N         11.4530   15.1370   11.0380 N.3    35  GLU35      -0.1245
      2  CA        10.4660   16.0980   10.5380 C.3    35  GLU35       0.1567
      3  C         10.9460   17.5450   10.6790 C.2    35  GLU35       0.2260
      4  O         10.8130   18.3420    9.7360 O.2    35  GLU35      -0.2867
      5  CB         9.0990   15.9400   11.2140 C.3    35  GLU35       0.0388
      6  CG         8.2860   14.6810   10.8540 C.3    35  GLU35       0.1160
      7  CD         7.7920   14.6360    9.4070 C.2    35  GLU35       0.3649
      8  OE1        7.7870   15.6850    8.7040 O.co2  35  GLU35      -0.2457
      9  OE2        7.3910   13.5140    8.9960 O.co2  35  GLU35      -0.2457
     10  N          0.7930   20.9410   -3.6300 N.3    49  ASP49      -0.1239
     11  CA        -0.6190   20.7480   -3.3180 C.3    49  ASP49       0.1674
     12  C         -1.2380   21.8680   -2.5040 C.2    49  ASP49       0.2266
     13  O         -2.3880   21.7300   -2.0990 O.2    49  ASP49      -0.2867
     14  CB        -0.9310   19.3570   -2.7210 C.3    49  ASP49       0.1410
     15  CG        -0.7480   19.2970   -1.1910 C.2    49  ASP49       0.3668
     16  OD1        0.0810   20.0830   -0.7010 O.co2  49  ASP49      -0.2456
     17  OD2       -1.4430   18.4970   -0.4650 O.co2  49  ASP49      -0.2456
     18  N          3.0180   22.2220    6.1690 N.3    53  ASP53      -0.1239
     19  CA         3.3500   21.4380    7.3460 C.3    53  ASP53       0.1674
     20  C          3.7750   22.3410    8.4940 C.2    53  ASP53       0.2266
     21  O          4.5650   23.2570    8.2930 O.2    53  ASP53      -0.2867
     22  CB         4.5150   20.4870    7.0450 C.3    53  ASP53       0.1410
     23  CG         4.2810   19.5740    5.8450 C.2    53  ASP53       0.3668
     24  OD1        3.1400   19.1470    5.5950 O.co2  53  ASP53      -0.2456
     25  OD2        5.2830   19.3030    5.1470 O.co2  53  ASP53      -0.2456
     26  N          5.5840   18.5340   12.0070 N.3    58  GLN58      -0.1231
     27  CA         5.3140   18.8940   10.6330 C.3    58  GLN58       0.1698
     28  C          3.9540   18.3730   10.2050 C.2    58  GLN58       0.2592
     29  O          3.8110   17.7520    9.1610 O.2    58  GLN58      -0.2718
     30  CB         6.4470   18.4800    9.6930 C.3    58  GLN58       0.0381
     31  CG         7.7000   19.3250    9.9480 C.3    58  GLN58       0.0905
     32  CD         7.5740   20.7440    9.4380 C.2    58  GLN58       0.2608
     33  OE1        7.7350   20.9920    8.2170 O.2    58  GLN58      -0.2717
     34  NE2        7.2540   21.6760   10.3210 N.am   58  GLN58      -0.0878
     35  N          2.9360   18.6370   11.0120 N.am   59  ILE59      -0.1966
     36  CA         1.5740   18.2030   10.7460 C.3    59  ILE59       0.1727
     37  C          0.9650   19.0530    9.6330 C.2    59  ILE59       0.2616
     38  O          1.0930   20.2920    9.6010 O.2    59  ILE59      -0.2715
     39  CB         0.7790   18.2950   12.0520 C.3    59  ILE59       0.0290
     40  CG1        1.2760   17.1860   12.9870 C.3    59  ILE59       0.0022
     41  CG2       -0.7170   18.2230   11.8000 C.3    59  ILE59       0.0023
     42  CD1        0.7910   17.2450   14.4200 C.3    59  ILE59       0.0001
     43  N          0.2720   18.4000    8.7340 N.am   60  ASN60      -0.1972
     44  CA        -0.1460   19.0010    7.4820 C.3    60  ASN60       0.1688
     45  C         -1.5660   19.5450    7.5210 C.2    60  ASN60       0.2292
     46  O         -2.4950   18.9420    8.0610 O.2    60  ASN60      -0.2864
     47  CB         0.0100   17.9470    6.3830 C.3    60  ASN60       0.1181
     48  CG        -0.3210   18.4810    5.0400 C.2    60  ASN60       0.2629
     49  OD1       -1.4550   18.3530    4.6010 O.2    60  ASN60      -0.2716
     50  ND2        0.6270   19.1530    4.3910 N.am   60  ASN60      -0.0877
     51  N         -3.8810   19.8260    5.1820 N.3    62  ARG62      -0.1231
     52  CA        -4.9800   19.3140    4.3670 C.3    62  ARG62       0.1694
     53  C         -6.0380   18.6120    5.1990 C.2    62  ARG62       0.2592
     54  O         -7.2370   18.7780    4.9430 O.2    62  ARG62      -0.2718
     55  CB        -4.4550   18.4130    3.2510 C.3    62  ARG62       0.0321
     56  CG        -5.5450   17.7840    2.4140 C.3    62  ARG62       0.0489
     57  CD        -5.0190   17.3910    1.0210 C.3    62  ARG62       0.2205
     58  NE        -4.4890   18.5760    0.3380 N.pl3  62  ARG62      -0.0865
     59  CZ        -5.2440   19.5550   -0.1570 C.cat  62  ARG62       0.5346
     60  NH1       -6.5700   19.4900   -0.0940 N.pl3  62  ARG62       0.1354
     61  NH2       -4.6670   20.6060   -0.7280 N.pl3  62  ARG62       0.1354
     62  N         -5.6330   17.8240    6.1970 N.am   63  TYR63      -0.1962
     63  CA        -6.5980   17.1500    7.0610 C.3    63  TYR63       0.1771
     64  C         -6.6040   17.6100    8.5030 C.2    63  TYR63       0.2619
     65  O         -7.6060   17.3940    9.1890 O.2    63  TYR63      -0.2715
     66  CB        -6.3620   15.6330    7.0850 C.3    63  TYR63       0.0574
     67  CG        -6.8920   14.9850    5.8490 C.ar   63  TYR63      -0.0198
     68  CD1       -8.2490   14.7580    5.6770 C.ar   63  TYR63      -0.0009
     69  CD2       -6.0520   14.6690    4.7910 C.ar   63  TYR63      -0.0009
     70  CE1       -8.7360   14.1710    4.4910 C.ar   63  TYR63       0.0417
     71  CE2       -6.5160   14.1060    3.6160 C.ar   63  TYR63       0.0417
     72  CZ        -7.8610   13.8640    3.4630 C.ar   63  TYR63       0.1957
     73  OH        -8.3080   13.2790    2.2890 O.3    63  TYR63      -0.2866
     74  N         -5.4940   18.1400    9.0160 N.am   64  TRP64      -0.1974
     75  CA        -5.3100   18.1020   10.4670 C.3    64  TRP64       0.1640
     76  C         -5.5360   19.4190   11.1990 C.2    64  TRP64       0.2290
     77  O         -5.9880   19.4000   12.3370 O.2    64  TRP64      -0.2864
     78  CB        -3.9410   17.4950   10.8200 C.3    64  TRP64       0.0576
     79  CG        -3.7980   16.1350   10.2080 C.ar   64  TRP64       0.0006
     80  CD1       -2.9640   15.7740    9.1910 C.ar   64  TRP64       0.0946
     81  CD2       -4.6080   14.9810   10.4820 C.ar   64  TRP64       0.0152
     82  NE1       -3.1830   14.4530    8.8160 N.ar   64  TRP64      -0.2442
     83  CE2       -4.1850   13.9560    9.6060 C.ar   64  TRP64       0.0810
     84  CE3       -5.6290   14.7220   11.3850 C.ar   64  TRP64       0.0012
     85  CZ2       -4.7820   12.6870    9.6030 C.ar   64  TRP64       0.0191
     86  CZ3       -6.2090   13.4290   11.3840 C.ar   64  TRP64       0.0001
     87  CH2       -5.7880   12.4570   10.4940 C.ar   64  TRP64       0.0015
     88  N         -9.7200   20.0090    5.6180 N.3    74  VAL74      -0.1245
     89  CA       -10.4760   19.8790    6.8520 C.3    74  VAL74       0.1561
     90  C         -9.5350   20.0820    8.0490 C.2    74  VAL74       0.2260
     91  O         -8.3330   20.3600    7.8700 O.2    74  VAL74      -0.2867
     92  CB       -11.2390   18.5400    6.8930 C.3    74  VAL74       0.0252
     93  CG1      -12.1790   18.4250    5.6430 C.3    74  VAL74       0.0019
     94  CG2      -10.2800   17.4020    6.9050 C.3    74  VAL74       0.0019
     95  N         -9.1890   18.1960   11.4830 N.3    76  ALA76      -0.1245
     96  CA        -9.5660   17.0950   12.3590 C.3    76  ALA76       0.1562
     97  C         -9.0720   17.2850   13.7840 C.2    76  ALA76       0.2260
     98  O         -9.6440   16.7040   14.7110 O.2    76  ALA76      -0.2867
     99  CB        -9.0960   15.7720   11.7690 C.3    76  ALA76       0.0290
    100  N         -4.3810   12.4190   17.4550 N.3    98  ARG98      -0.1231
    101  CA        -5.5020   12.3110   16.5290 C.3    98  ARG98       0.1694
    102  C         -5.0640   11.6950   15.2010 C.2    98  ARG98       0.2591
    103  O         -5.7790   10.8590   14.6320 O.2    98  ARG98      -0.2718
    104  CB        -6.1560   13.6880   16.3270 C.3    98  ARG98       0.0321
    105  CG        -7.2200   13.7330   15.2290 C.3    98  ARG98       0.0489
    106  CD        -8.3870   12.8100   15.4880 C.3    98  ARG98       0.2205
    107  NE        -9.3660   12.7720   14.4020 N.pl3  98  ARG98      -0.0865
    108  CZ        -9.3080   11.9470   13.3700 C.cat  98  ARG98       0.5346
    109  NH1       -8.3010   11.0570   13.2320 N.pl3  98  ARG98       0.1354
    110  NH2      -10.2650   12.0050   12.4470 N.pl3  98  ARG98       0.1354
    111  N         -3.9300   12.1340   14.6590 N.am   99  VAL99      -0.1980
    112  CA        -3.4720   11.5710   13.4010 C.3    99  VAL99       0.1595
    113  C         -3.4110   10.0660   13.5040 C.2    99  VAL99       0.2287
    114  O         -3.8650    9.3360   12.5890 O.2    99  VAL99      -0.2864
    115  CB        -2.0890   12.1270   13.0300 C.3    99  VAL99       0.0276
    116  CG1       -1.5440   11.3970   11.7880 C.3    99  VAL99       0.0022
    117  CG2       -2.1890   13.5890   12.7530 C.3    99  VAL99       0.0022
    118  N         -6.1930    7.3040   13.0880 N.3   102  ASP102     -0.1225
    119  CA        -6.5850    6.8060   11.7620 C.3   102  ASP102      0.1790
    120  C         -5.8560    5.5010   11.4570 C.2   102  ASP102      0.2440
    121  O         -4.8510    5.1540   12.1010 O.2   102  ASP102     -0.2733
    122  CB        -6.3480    7.8460   10.6680 C.3   102  ASP102      0.1423
    123  CG        -7.5270    8.8030   10.5380 C.2   102  ASP102      0.3668
    124  OD1       -8.3480    8.9130   11.4570 O.co2 102  ASP102     -0.2456
    125  OD2       -7.5990    9.4990    9.5100 O.co2 102  ASP102     -0.2456
    126  N         -6.3640    4.7440   10.4830 N.am  103  PRO103     -0.2718
    127  CA        -5.8170    3.3980   10.2130 C.3   103  PRO103      0.1535
    128  C         -4.3220    3.3190   10.0040 C.2   103  PRO103      0.2598
    129  O         -3.6900    2.3640   10.4930 O.2   103  PRO103     -0.2715
    130  CB        -6.5930    2.9550    8.9590 C.3   103  PRO103      0.0310
    131  CG        -7.9510    3.6470    9.1170 C.3   103  PRO103      0.0237
    132  CD        -7.6050    4.9790    9.7270 C.3   103  PRO103      0.0939
    133  N         -3.7170    4.2980    9.3300 N.am  104  GLN104     -0.1978
    134  CA        -2.2860    4.2370    9.0320 C.3   104  GLN104      0.1601
    135  C         -1.4410    4.3010   10.2940 C.2   104  GLN104      0.2287
    136  O         -0.3030    3.8230   10.3160 O.2   104  GLN104     -0.2864
    137  CB        -1.8680    5.4040    8.1450 C.3   104  GLN104      0.0394
    138  CG        -2.2580    5.2110    6.7210 C.3   104  GLN104      0.0908
    139  CD        -1.6900    6.3420    5.9020 C.2   104  GLN104      0.2608
    140  OE1       -0.6040    6.2190    5.3390 O.2   104  GLN104     -0.2717
    141  NE2       -2.3890    7.4770    5.8800 N.am  104  GLN104     -0.0878
    142  N          1.3660    7.4330    8.7460 N.3   108  ALA108     -0.1231
    143  CA         0.8840    8.6380    8.0910 C.3   108  ALA108      0.1694
    144  C          2.0270    9.5280    7.6510 C.2   108  ALA108      0.2592
    145  O          1.9220   10.2190    6.6150 O.2   108  ALA108     -0.2718
    146  CB        -0.0020    9.4340    9.0450 C.3   108  ALA108      0.0304
    147  N          3.1430    9.5310    8.3980 N.am  109  TRP109     -0.1962
    148  CA         4.2720   10.3690    8.0150 C.3   109  TRP109      0.1771
    149  C          5.2500    9.5730    7.1560 C.2   109  TRP109      0.2619
    150  O          5.8750    8.6130    7.6360 O.2   109  TRP109     -0.2715
    151  CB         4.9660   10.8700    9.2740 C.3   109  TRP109      0.0590
    152  CG         4.2570   11.9150   10.1120 C.ar  109  TRP109      0.0006
    153  CD1        4.4390   13.2780   10.0380 C.ar  109  TRP109      0.0946
    154  CD2        3.3500   11.6930   11.1960 C.ar  109  TRP109      0.0152
    155  NE1        3.6710   13.9110   10.9710 N.ar  109  TRP109     -0.2442
    156  CE2        3.0100   12.9730   11.7190 C.ar  109  TRP109      0.0810
    157  CE3        2.8150   10.5570   11.8130 C.ar  109  TRP109      0.0012
    158  CZ2        2.1600   13.1410   12.8290 C.ar  109  TRP109      0.0191
    159  CZ3        1.9810   10.7410   12.9150 C.ar  109  TRP109      0.0001
    160  CH2        1.6470   12.0170   13.4020 C.ar  109  TRP109      0.0015
    161  N          5.4210    9.9760    5.8820 N.am  110  VAL110     -0.1963
    162  CA         6.4190    9.3290    5.0300 C.3   110  VAL110      0.1727
    163  C          7.7930    9.3570    5.6860 C.2   110  VAL110      0.2616
    164  O          8.5890    8.4190    5.5700 O.2   110  VAL110     -0.2715
    165  CB         6.4310   10.0190    3.6570 C.3   110  VAL110      0.0290
    166  CG1        7.4510    9.3760    2.7450 C.3   110  VAL110      0.0023
    167  CG2        5.0440    9.9670    3.0590 C.3   110  VAL110      0.0023
    168  N          8.1120   10.4700    6.3470 N.am  111  ALA111     -0.1977
    169  CA         9.4330   10.5620    6.9720 C.3   111  ALA111      0.1597
    170  C          9.6520    9.4340    7.9880 C.2   111  ALA111      0.2287
    171  O         10.7810    8.9510    8.1600 O.2   111  ALA111     -0.2864
    172  CB         9.6210   11.9340    7.6370 C.3   111  ALA111      0.0319
@<TRIPOS>BOND
     1    10    11    1
     2    11    14    1
     3    11    12    1
     4    14    15    1
     5    12    13    2
     6    15    16   ar
     7    15    17   ar
     8    61    59    1
     9    59    60    1
    10    59    58    2
    11    58    57    1
    12    57    56    1
    13    73    72    1
    14    56    55    1
    15   166   165    1
    16   167   165    1
    17    55    52    1
    18    72    71   ar
    19    72    70   ar
    20    71    69   ar
    21   165   162    1
    22    52    51    1
    23    52    53    1
    24    50    48   am
    25    70    68   ar
    26    49    48    2
    27    69    67   ar
    28    54    53    2
    29   162   163    1
    30   162   161    1
    31    48    47    1
    32    25    23   ar
    33    53    62   am
    34   140   139    2
    35   164   163    2
    36    24    23   ar
    37    88    89    1
    38    93    92    1
    39    68    67   ar
    40   163   168   am
    41    23    22    1
    42    67    66    1
    43   141   139   am
    44   161   149   am
    45   139   138    1
    46    18    19    1
    47    62    63    1
    48   168   169    1
    49    47    44    1
    50   145   144    2
    51   138   137    1
    52    89    92    1
    53    89    90    1
    54    92    94    1
    55   169   172    1
    56   169   170    1
    57    22    19    1
    58    63    66    1
    59    63    64    1
    60   149   150    2
    61   149   148    1
    62    19    20    1
    63    44    45    1
    64    44    43    1
    65    45    46    2
    66   144   143    1
    67   144   147   am
    68    91    90    2
    69   170   171    2
    70   148   147    1
    71   148   151    1
    72   143   142    1
    73   143   146    1
    74   137   134    1
    75    33    32    2
    76    21    20    2
    77    64    74   am
    78    64    65    2
    79     8     7   ar
    80    43    37   am
    81    82    80   ar
    82    82    83   ar
    83   130   131    1
    84   130   127    1
    85     9     7   ar
    86    74    75    1
    87   134   133    1
    88   134   135    1
    89   131   132    1
    90    29    28    2
    91    80    79   ar
    92   151   152    1
    93   133   128   am
    94     7     6    1
    95    32    31    1
    96    32    34   am
    97   125   123   ar
    98    38    37    2
    99    85    83   ar
   100    85    87   ar
   101    83    81   ar
   102    37    36    1
   103    30    31    1
   104    30    27    1
   105   132   126    1
   106     4     3    2
   107   128   127    1
   108   128   129    2
   109   153   152   ar
   110   153   155   ar
   111   152   154   ar
   112    28    27    1
   113    28    35   am
   114    79    81   ar
   115    79    78    1
   116   127   126    1
   117   135   136    2
   118    75    78    1
   119    75    76    1
   120    81    84   ar
   121   126   120   am
   122    87    86   ar
   123     2     3    1
   124     2     1    1
   125     2     5    1
   126   123   122    1
   127   123   124   ar
   128    27    26    1
   129   122   119    1
   130    36    35    1
   131    36    39    1
   132     6     5    1
   133   155   156   ar
   134   154   156   ar
   135   154   157   ar
   136    76    77    2
   137    86    84   ar
   138   120   119    1
   139   120   121    2
   140    95    96    1
   141   156   158   ar
   142   119   118    1
   143    99    96    1
   144   116   115    1
   145    41    39    1
   146   157   159   ar
   147    39    40    1
   148    96    97    1
   149   110   108    1
   150   114   113    2
   151   117   115    1
   152   158   160   ar
   153   159   160   ar
   154    40    42    1
   155   115   112    1
   156   109   108    1
   157   108   107    2
   158   112   113    1
   159   112   111    1
   160    97    98    2
   161   107   106    1
   162   103   102    2
   163   111   102   am
   164   102   101    1
   165   105   106    1
   166   105   104    1
   167   104   101    1
   168   101   100    1
