@<TRIPOS>MOLECULE
tmp/5lsqA00.pdb
 185 174 0 0 0
SMALL
GASTEIGER

@<TRIPOS>ATOM
      1  N         25.2120   17.9140   18.9880 N.3    82  GLU82      -0.1231
      2  CA        25.8960   19.1860   19.0700 C.3    82  GLU82       0.1699
      3  C         27.0470   19.0790   20.0110 C.2    82  GLU82       0.2592
      4  O         26.9890   18.3320   20.9850 O.2    82  GLU82      -0.2718
      5  CB        24.9450   20.2530   19.5110 C.3    82  GLU82       0.0402
      6  CG        23.9050   20.5490   18.4310 C.3    82  GLU82       0.1161
      7  CD        23.1860   21.8240   18.7320 C.2    82  GLU82       0.3649
      8  OE1       23.3490   22.3310   19.8710 O.co2  82  GLU82      -0.2457
      9  OE2       22.4620   22.3040   17.8360 O.co2  82  GLU82      -0.2457
     10  N         28.1240   19.7840   19.6900 N.am   83  VAL83      -0.1966
     11  CA        29.3500   19.6950   20.4420 C.3    83  VAL83       0.1727
     12  C         29.8380   21.1040   20.7490 C.2    83  VAL83       0.2616
     13  O         29.8730   21.9730   19.8710 O.2    83  VAL83      -0.2715
     14  CB        30.4160   18.9020   19.6790 C.3    83  VAL83       0.0290
     15  CG1       31.6800   18.8240   20.4710 C.3    83  VAL83       0.0023
     16  CG2       29.9030   17.4940   19.3900 C.3    83  VAL83       0.0023
     17  N         30.2410   21.3070   21.9960 N.am   84  THR84      -0.1951
     18  CA        30.8380   22.5850   22.4460 C.3    84  THR84       0.1897
     19  C         32.1780   22.3170   23.0790 C.2    84  THR84       0.2313
     20  O         32.2700   21.5270   24.0290 O.2    84  THR84      -0.2863
     21  CB        29.9130   23.3020   23.4630 C.3    84  THR84       0.1794
     22  OG1       28.6750   23.6170   22.8170 O.3    84  THR84      -0.2208
     23  CG2       30.5620   24.5840   23.9990 C.3    84  THR84       0.0378
     24  N         26.9580   17.9320   23.8420 N.3    89  ASP89      -0.1239
     25  CA        25.9590   18.6000   24.6650 C.3    89  ASP89       0.1674
     26  C         24.7080   17.7230   24.7560 C.2    89  ASP89       0.2266
     27  O         24.4670   16.8200   23.9320 O.2    89  ASP89      -0.2867
     28  CB        25.6100   19.9530   24.0490 C.3    89  ASP89       0.1410
     29  CG        26.8280   20.9130   23.9750 C.2    89  ASP89       0.3668
     30  OD1       27.6670   20.9400   24.9230 O.co2  89  ASP89      -0.2456
     31  OD2       26.8590   21.6860   22.9820 O.co2  89  ASP89      -0.2456
     32  N         16.8840   19.2020   20.0800 N.3    93  ILE93      -0.1245
     33  CA        16.5590   20.4820   19.4820 C.3    93  ILE93       0.1561
     34  C         15.6460   20.3170   18.2870 C.2    93  ILE93       0.2260
     35  O         15.7840   19.3840   17.5300 O.2    93  ILE93      -0.2867
     36  CB        17.8340   21.2210   19.0630 C.3    93  ILE93       0.0252
     37  CG1       18.8080   21.2830   20.2370 C.3    93  ILE93       0.0019
     38  CG2       17.4840   22.6590   18.5810 C.3    93  ILE93       0.0019
     39  CD1       20.1110   21.9400   19.9150 C.3    93  ILE93       0.0001
     40  N         15.6720   27.9610   18.0250 N.3   169  ARG169     -0.1245
     41  CA        16.0470   26.6460   18.5060 C.3   169  ARG169      0.1563
     42  C         15.1690   26.3160   19.7140 C.2   169  ARG169      0.2260
     43  O         15.2160   27.0060   20.7490 O.2   169  ARG169     -0.2867
     44  CB        17.5440   26.6080   18.8360 C.3   169  ARG169      0.0307
     45  CG        18.4220   26.7880   17.5740 C.3   169  ARG169      0.0489
     46  CD        19.8560   27.1570   17.9130 C.3   169  ARG169      0.2205
     47  NE        20.8020   26.8540   16.8320 N.pl3 169  ARG169     -0.0865
     48  CZ        21.4500   25.6990   16.7370 C.cat 169  ARG169      0.5346
     49  NH1       22.2800   25.4840   15.7290 N.pl3 169  ARG169      0.1354
     50  NH2       21.2730   24.7460   17.6520 N.pl3 169  ARG169      0.1354
     51  N         14.4080   23.8410   22.5820 N.3   171  LEU171     -0.1245
     52  CA        15.2850   22.9530   23.3520 C.3   171  LEU171      0.1561
     53  C         14.5720   22.1510   24.4250 C.2   171  LEU171      0.2260
     54  O         13.7160   22.6800   25.1700 O.2   171  LEU171     -0.2867
     55  CB        16.3680   23.7970   24.0260 C.3   171  LEU171      0.0270
     56  CG        17.1950   24.7250   23.1140 C.3   171  LEU171      0.0019
     57  CD1       17.5140   26.0470   23.7400 C.3   171  LEU171      0.0001
     58  CD2       18.4680   24.0260   22.8160 C.3   171  LEU171      0.0001
     59  N         16.1440   19.9110   27.6310 N.3   173  PHE173     -0.1241
     60  CA        17.2410   19.3040   28.3960 C.3   173  PHE173      0.1605
     61  C         16.7530   18.1550   29.2710 C.2   173  PHE173      0.2264
     62  O         15.7340   18.2910   29.9350 O.2   173  PHE173     -0.2867
     63  CB        17.9150   20.3540   29.2920 C.3   173  PHE173      0.0534
     64  CG        18.4990   21.5040   28.5360 C.ar  173  PHE173     -0.0203
     65  CD1       17.7220   22.5550   28.1520 C.ar  173  PHE173     -0.0042
     66  CD2       19.8390   21.4720   28.1540 C.ar  173  PHE173     -0.0042
     67  CE1       18.2360   23.6020   27.3980 C.ar  173  PHE173     -0.0003
     68  CE2       20.3590   22.5560   27.3880 C.ar  173  PHE173     -0.0003
     69  CZ        19.5390   23.5640   27.0170 C.ar  173  PHE173     -0.0000
     70  N         25.0380   22.2290   28.3830 N.3   184  ILE184     -0.1245
     71  CA        25.7880   22.8490   27.3040 C.3   184  ILE184      0.1561
     72  C         26.9380   23.5920   27.9590 C.2   184  ILE184      0.2260
     73  O         26.7590   24.3160   28.9580 O.2   184  ILE184     -0.2867
     74  CB        24.9770   23.8260   26.4770 C.3   184  ILE184      0.0252
     75  CG1       23.7000   23.1890   25.9560 C.3   184  ILE184      0.0019
     76  CG2       25.8420   24.3470   25.3000 C.3   184  ILE184      0.0019
     77  CD1       22.8260   24.2170   25.2600 C.3   184  ILE184      0.0001
     78  N         29.7420   29.1000   25.9220 N.3   187  HIS187     -0.1226
     79  CA        29.8960   29.4890   24.5250 C.3   187  HIS187      0.1752
     80  C         29.2410   30.8290   24.3290 C.2   187  HIS187      0.2597
     81  O         28.5290   31.3430   25.1900 O.2   187  HIS187     -0.2718
     82  CB        29.2760   28.4630   23.5650 C.3   187  HIS187      0.0759
     83  CG        27.7880   28.4060   23.6680 C.ar  187  HIS187      0.0818
     84  ND1       27.1510   27.7580   24.6970 N.ar  187  HIS187     -0.2268
     85  CD2       26.8210   28.9390   22.8930 C.ar  187  HIS187      0.1154
     86  CE1       25.8400   27.8950   24.5500 C.ar  187  HIS187      0.1986
     87  NE2       25.6090   28.6150   23.4550 N.ar  187  HIS187     -0.2212
     88  N         29.4870   31.3920   23.1540 N.am  188  THR188     -0.1939
     89  CA        28.7360   32.5620   22.7040 C.3   188  THR188      0.2028
     90  C         27.9770   32.2000   21.4370 C.2   188  THR188      0.2642
     91  O         28.3520   31.2970   20.6830 O.2   188  THR188     -0.2714
     92  CB        29.6160   33.8240   22.4720 C.3   188  THR188      0.1808
     93  OG1       30.5960   33.5950   21.4420 O.3   188  THR188     -0.2208
     94  CG2       30.3280   34.2480   23.7630 C.3   188  THR188      0.0379
     95  N         26.8640   32.8840   21.2250 N.am  189  ASP189     -0.1957
     96  CA        25.9860   32.5860   20.0800 C.3   189  ASP189      0.1840
     97  C         26.4220   33.3760   18.8380 C.2   189  ASP189      0.2622
     98  O         26.7970   34.5370   18.9370 O.2   189  ASP189     -0.2715
     99  CB        24.5400   32.9000   20.4020 C.3   189  ASP189      0.1450
    100  CG        23.8580   31.8480   21.2770 C.2   189  ASP189      0.3671
    101  OD1       24.4790   30.8410   21.6380 O.co2 189  ASP189     -0.2456
    102  OD2       22.6810   32.1000   21.6250 O.co2 189  ASP189     -0.2456
    103  N         26.3110   32.7290   17.6870 N.am  190  TYR190     -0.1974
    104  CA        26.7840   33.2380   16.3860 C.3   190  TYR190      0.1639
    105  C         25.9680   34.3450   15.7700 C.2   190  TYR190      0.2290
    106  O         26.4080   34.9370   14.7690 O.2   190  TYR190     -0.2864
    107  CB        26.8540   32.0680   15.3890 C.3   190  TYR190      0.0560
    108  CG        25.5350   31.3310   15.2200 C.ar  190  TYR190     -0.0198
    109  CD1       24.5570   31.8250   14.3450 C.ar  190  TYR190     -0.0009
    110  CD2       25.2490   30.1480   15.9100 C.ar  190  TYR190     -0.0009
    111  CE1       23.3450   31.2060   14.2390 C.ar  190  TYR190      0.0417
    112  CE2       24.0250   29.5310   15.8020 C.ar  190  TYR190      0.0417
    113  CZ        23.0890   30.0670   14.9780 C.ar  190  TYR190      0.1957
    114  OH        21.8990   29.3940   14.9620 O.3   190  TYR190     -0.2866
    115  N         19.8380   28.1310   33.0710 N.3   204  LEU204     -0.1245
    116  CA        20.6750   28.9990   32.2210 C.3   204  LEU204      0.1561
    117  C         21.5330   29.9150   33.0920 C.2   204  LEU204      0.2260
    118  O         21.0210   30.5660   34.0070 O.2   204  LEU204     -0.2867
    119  CB        19.7840   29.8390   31.3100 C.3   204  LEU204      0.0270
    120  CG        20.4890   30.8680   30.4160 C.3   204  LEU204      0.0019
    121  CD1       21.4200   30.2440   29.4090 C.3   204  LEU204      0.0001
    122  CD2       19.4590   31.6930   29.6830 C.3   204  LEU204      0.0001
    123  N         34.5090   29.0690   22.7870 N.3   226  ALA226     -0.1245
    124  CA        33.9590   27.8700   23.4050 C.3   226  ALA226      0.1562
    125  C         34.7930   27.4170   24.6100 C.2   226  ALA226      0.2260
    126  O         36.0120   27.2950   24.5390 O.2   226  ALA226     -0.2867
    127  CB        33.8740   26.7460   22.3850 C.3   226  ALA226      0.0290
    128  N         19.9320   39.0320   24.9830 N.3   248  PHE248     -0.1241
    129  CA        21.3790   39.3090   25.0230 C.3   248  PHE248      0.1605
    130  C         21.9740   39.4300   23.6240 C.2   248  PHE248      0.2264
    131  O         21.4170   38.9350   22.6510 O.2   248  PHE248     -0.2867
    132  CB        22.1580   38.2560   25.8510 C.3   248  PHE248      0.0534
    133  CG        22.0180   36.8260   25.4190 C.ar  248  PHE248     -0.0203
    134  CD1       22.8810   36.2860   24.4760 C.ar  248  PHE248     -0.0042
    135  CD2       21.0940   35.9970   26.0370 C.ar  248  PHE248     -0.0042
    136  CE1       22.8120   34.9400   24.1250 C.ar  248  PHE248     -0.0003
    137  CE2       21.0260   34.6150   25.6870 C.ar  248  PHE248     -0.0003
    138  CZ        21.8800   34.1200   24.7430 C.ar  248  PHE248     -0.0000
    139  N         27.3650   32.0220   27.7900 N.3   266  HIS266     -0.1241
    140  CA        26.3220   31.3710   28.5470 C.3   266  HIS266      0.1621
    141  C         26.5480   29.8710   28.4920 C.2   266  HIS266      0.2264
    142  O         27.2660   29.3390   27.6480 O.2   266  HIS266     -0.2867
    143  CB        24.9020   31.7720   28.0420 C.3   266  HIS266      0.0745
    144  CG        24.6830   31.5490   26.5740 C.ar  266  HIS266      0.0817
    145  ND1       25.2710   32.3450   25.6150 N.ar  266  HIS266     -0.2268
    146  CD2       24.0210   30.5820   25.8820 C.ar  266  HIS266      0.1154
    147  CE1       24.9550   31.9100   24.4080 C.ar  266  HIS266      0.1986
    148  NE2       24.1890   30.8460   24.5380 N.ar  266  HIS266     -0.2212
    149  N         24.4810   25.9720   30.1890 N.3   268  VAL268     -0.1245
    150  CA        23.2830   25.3880   30.7950 C.3   268  VAL268      0.1561
    151  C         23.6670   24.2170   31.6960 C.2   268  VAL268      0.2260
    152  O         24.4030   23.3220   31.2810 O.2   268  VAL268     -0.2867
    153  CB        22.2820   24.9360   29.7440 C.3   268  VAL268      0.0252
    154  CG1       21.0500   24.2640   30.4310 C.3   268  VAL268      0.0019
    155  CG2       21.8160   26.1300   28.8940 C.3   268  VAL268      0.0019
    156  N         15.3840   29.5500   22.1630 N.3   279  ALA279     -0.1245
    157  CA        16.3000   30.6150   21.8560 C.3   279  ALA279      0.1562
    158  C         15.9850   31.1160   20.4640 C.2   279  ALA279      0.2260
    159  O         16.1030   30.3630   19.4850 O.2   279  ALA279     -0.2867
    160  CB        17.7450   30.1130   21.9610 C.3   279  ALA279      0.0290
    161  N         16.6720   33.7800   17.4080 N.3   281  PHE281     -0.1241
    162  CA        17.7000   34.5900   16.7540 C.3   281  PHE281      0.1605
    163  C         17.0230   35.5450   15.7830 C.2   281  PHE281      0.2264
    164  O         16.3670   35.1150   14.8360 O.2   281  PHE281     -0.2867
    165  CB        18.7060   33.7070   16.0000 C.3   281  PHE281      0.0534
    166  CG        19.6150   32.8930   16.8900 C.ar  281  PHE281     -0.0203
    167  CD1       19.1170   31.9890   17.8120 C.ar  281  PHE281     -0.0042
    168  CD2       20.9750   32.9670   16.6890 C.ar  281  PHE281     -0.0042
    169  CE1       20.0050   31.2090   18.5930 C.ar  281  PHE281     -0.0003
    170  CE2       21.8740   32.2080   17.4390 C.ar  281  PHE281     -0.0003
    171  CZ        21.3900   31.3500   18.4130 C.ar  281  PHE281     -0.0000
    172  N         28.4210   27.7250    9.4240 N.3   311  MET311     -0.1245
    173  CA        28.1630   27.2640   10.7790 C.3   311  MET311      0.1570
    174  C         27.3980   25.9350   10.8110 C.2   311  MET311      0.2261
    175  O         27.7880   24.9930   11.5050 O.2   311  MET311     -0.2867
    176  CB        27.3770   28.3300   11.5580 C.3   311  MET311      0.0387
    177  CG        26.9150   27.9160   12.9620 C.3   311  MET311      0.0595
    178  SD        28.2400   27.7370   14.1560 S.3   311  MET311     -0.1393
    179  CE        29.0970   29.2490   13.8990 C.3   311  MET311      0.0692
    180  N         28.3850   22.2630   12.1370 N.3   315  CYS315     -0.1235
    181  CA        27.6210   21.6380   13.2210 C.3   315  CYS315      0.1677
    182  C         27.1770   20.2270   12.8750 C.2   315  CYS315      0.2270
    183  O         27.1780   19.3380   13.7430 O.2   315  CYS315     -0.2867
    184  CB        26.3390   22.4230   13.5340 C.3   315  CYS315      0.0956
    185  SG        26.5260   24.0290   14.3560 S.3   315  CYS315     -0.0801
@<TRIPOS>BOND
     1   172   173    1
     2   173   174    1
     3   173   176    1
     4   174   175    2
     5   176   177    1
     6   180   181    1
     7   182   181    1
     8   182   183    2
     9   177   178    1
    10   181   184    1
    11   184   185    1
    12   179   178    1
    13   111   109   ar
    14   111   113   ar
    15   109   108   ar
    16   106   105    2
    17   164   163    2
    18   114   113    1
    19   113   112   ar
    20   108   107    1
    21   108   110   ar
    22   107   104    1
    23    49    48    1
    24   105   104    1
    25   163   162    1
    26   112   110   ar
    27   165   162    1
    28   165   166    1
    29   104   103    1
    30   168   166   ar
    31   168   170   ar
    32    48    47    2
    33    48    50    1
    34   162   161    1
    35    47    46    1
    36   166   167   ar
    37   170   171   ar
    38    35    34    2
    39    45    46    1
    40    45    44    1
    41   103    97   am
    42   167   169   ar
    43     9     7   ar
    44    40    41    1
    45    34    33    1
    46   171   169   ar
    47     6     7    1
    48     6     5    1
    49    41    44    1
    50    41    42    1
    51    38    36    1
    52     7     8   ar
    53    97    98    2
    54    97    96    1
    55     1     2    1
    56    36    33    1
    57    36    37    1
    58     2     5    1
    59     2     3    1
    60    16    14    1
    61    33    32    1
    62   159   158    2
    63    14    11    1
    64    14    15    1
    65    10     3   am
    66    10    11    1
    67    42    43    2
    68    13    12    2
    69    39    37    1
    70     3     4    2
    71    96    99    1
    72    96    95    1
    73    99   100    1
    74    11    12    1
    75   158   157    1
    76    91    90    2
    77    12    17   am
    78    95    90   am
    79   100   102   ar
    80   100   101   ar
    81    90    89    1
    82    93    92    1
    83   157   160    1
    84   157   156    1
    85    17    18    1
    86   127   124    1
    87    18    19    1
    88    18    21    1
    89    92    89    1
    90    92    94    1
    91    51    52    1
    92   131   130    2
    93    89    88    1
    94   123   124    1
    95    58    56    1
    96    22    21    1
    97    85    87   ar
    98    85    83   ar
    99    31    29   ar
   100    19    20    2
   101    56    57    1
   102    56    55    1
   103    88    80   am
   104    52    55    1
   105    52    53    1
   106   124   125    1
   107    87    86   ar
   108    21    23    1
   109    82    83    1
   110    82    79    1
   111   130   129    1
   112    83    84   ar
   113    24    25    1
   114    27    26    2
   115    29    28    1
   116    29    30   ar
   117    28    25    1
   118   136   134   ar
   119   136   138   ar
   120    80    79    1
   121    80    81    2
   122   147   148   ar
   123   147   145   ar
   124    53    54    2
   125   134   133   ar
   126    79    78    1
   127   148   146   ar
   128   126   125    2
   129    86    84   ar
   130    25    26    1
   131   138   137   ar
   132   128   129    1
   133   129   132    1
   134    77    75    1
   135    76    74    1
   136   133   132    1
   137   133   135   ar
   138   145   144   ar
   139   137   135   ar
   140   146   144   ar
   141    75    74    1
   142    74    71    1
   143   144   143    1
   144    69    68   ar
   145    69    67   ar
   146    71    72    1
   147    71    70    1
   148    68    66   ar
   149    67    65   ar
   150    59    60    1
   151   142   141    2
   152   139   140    1
   153    72    73    2
   154   143   140    1
   155    65    64   ar
   156    66    64   ar
   157    60    61    1
   158    60    63    1
   159   141   140    1
   160    64    63    1
   161   155   153    1
   162    61    62    2
   163   121   120    1
   164   122   120    1
   165   153   154    1
   166   153   150    1
   167   149   150    1
   168   120   119    1
   169   150   151    1
   170   152   151    2
   171   119   116    1
   172   116   115    1
   173   116   117    1
   174   117   118    2
