@<TRIPOS>MOLECULE
tmp/5lsuA00.pdb
 234 236 0 0 0
SMALL
GASTEIGER

@<TRIPOS>ATOM
      1  N          4.5330   44.8670   24.6910 N.3    16  PRO16      -0.2103
      2  CA         3.4060   45.3830   23.8840 C.3    16  PRO16       0.1489
      3  C          2.7540   44.2760   23.0660 C.2    16  PRO16       0.2417
      4  O          3.4380   43.3020   22.7110 O.2    16  PRO16      -0.2734
      5  CB         4.0530   46.4420   22.9850 C.3    16  PRO16       0.0282
      6  CG         5.3370   46.8240   23.6800 C.3    16  PRO16       0.0208
      7  CD         5.8010   45.5020   24.2730 C.3    16  PRO16       0.0893
      8  N          1.4390   44.3790   22.7690 N.am   17  PRO17      -0.2729
      9  CA         0.8130   43.3330   21.9440 C.3    17  PRO17       0.1401
     10  C          1.4620   43.2520   20.5350 C.2    17  PRO17       0.2269
     11  O          2.1700   44.1900   20.1110 O.2    17  PRO17      -0.2865
     12  CB        -0.6800   43.6840   21.9660 C.3    17  PRO17       0.0296
     13  CG        -0.7520   45.1150   22.3860 C.3    17  PRO17       0.0237
     14  CD         0.4780   45.4380   23.1560 C.3    17  PRO17       0.0939
     15  N         -0.2050   56.2020   32.2100 N.3   100  GLN100     -0.1231
     16  CA        -1.5190   56.5360   31.6370 C.3   100  GLN100      0.1698
     17  C         -1.6060   56.4330   30.1210 C.2   100  GLN100      0.2592
     18  O         -2.7140   56.4400   29.5660 O.2   100  GLN100     -0.2718
     19  CB        -1.9430   57.9610   32.0730 C.3   100  GLN100      0.0381
     20  CG        -2.2100   58.0740   33.5610 C.3   100  GLN100      0.0905
     21  CD        -2.8850   59.3820   33.8530 C.2   100  GLN100      0.2608
     22  OE1       -2.2330   60.3920   34.2260 O.2   100  GLN100     -0.2717
     23  NE2       -4.2030   59.3860   33.6080 N.am  100  GLN100     -0.0878
     24  N         -0.4540   56.3500   29.4480 N.am  101  ARG101     -0.1966
     25  CA        -0.4330   56.4940   27.9870 C.3   101  ARG101      0.1729
     26  C          0.0320   55.2380   27.2810 C.2   101  ARG101      0.2617
     27  O          0.4730   55.3440   26.1480 O.2   101  ARG101     -0.2715
     28  CB         0.3990   57.7400   27.5630 C.3   101  ARG101      0.0348
     29  CG        -0.2470   59.0630   27.9480 C.3   101  ARG101      0.0492
     30  CD         0.7040   60.2230   28.0130 C.3   101  ARG101      0.2205
     31  NE         1.7230   59.9130   28.9890 N.pl3 101  ARG101     -0.0865
     32  CZ         3.0010   59.8100   28.6920 C.cat 101  ARG101      0.5346
     33  NH1        3.4070   59.9720   27.4420 N.pl3 101  ARG101      0.1354
     34  NH2        3.8890   59.5240   29.6310 N.pl3 101  ARG101      0.1354
     35  N         -0.0920   54.0780   27.9320 N.am  102  GLY102     -0.1940
     36  CA         0.3670   52.7810   27.4450 C.3   102  GLY102      0.2014
     37  C          1.8770   52.6900   27.3550 C.2   102  GLY102      0.2638
     38  O          2.5910   53.2230   28.2040 O.2   102  GLY102     -0.2714
     39  N          2.3730   52.0050   26.3320 N.am  103  TRP103     -0.1973
     40  CA         3.7990   51.9500   25.9690 C.3   103  TRP103      0.1640
     41  C          4.2730   53.2680   25.3110 C.2   103  TRP103      0.2290
     42  O          3.5050   53.9260   24.5990 O.2   103  TRP103     -0.2864
     43  CB         4.0580   50.7570   25.0150 C.3   103  TRP103      0.0576
     44  CG         3.6000   49.4620   25.6370 C.ar  103  TRP103      0.0006
     45  CD1        2.3880   48.8580   25.4820 C.ar  103  TRP103      0.0946
     46  CD2        4.3230   48.6790   26.5820 C.ar  103  TRP103      0.0152
     47  NE1        2.3270   47.7180   26.2510 N.ar  103  TRP103     -0.2442
     48  CE2        3.5120   47.5760   26.9270 C.ar  103  TRP103      0.0810
     49  CE3        5.6050   48.7760   27.1470 C.ar  103  TRP103      0.0012
     50  CZ2        3.9390   46.5810   27.8280 C.ar  103  TRP103      0.0191
     51  CZ3        6.0320   47.7890   28.0300 C.ar  103  TRP103      0.0001
     52  CH2        5.2070   46.7060   28.3600 C.ar  103  TRP103      0.0015
     53  N          8.6680   57.4950   10.5520 N.3   120  TYR120     -0.1241
     54  CA         7.3500   56.9360   10.7650 C.3   120  TYR120      0.1605
     55  C          7.0160   56.0190    9.5970 C.2   120  TYR120      0.2264
     56  O          6.7660   56.4760    8.4880 O.2   120  TYR120     -0.2867
     57  CB         6.2890   58.0240   10.9970 C.3   120  TYR120      0.0534
     58  CG         5.0360   57.4900   11.6750 C.ar  120  TYR120     -0.0201
     59  CD1        4.9120   57.4980   13.0610 C.ar  120  TYR120     -0.0009
     60  CD2        3.9980   56.9540   10.9370 C.ar  120  TYR120     -0.0009
     61  CE1        3.7750   56.9980   13.6880 C.ar  120  TYR120      0.0417
     62  CE2        2.8570   56.4480   11.5530 C.ar  120  TYR120      0.0417
     63  CZ         2.7480   56.4820   12.9260 C.ar  120  TYR120      0.1957
     64  OH         1.6210   56.0030   13.5350 O.3   120  TYR120     -0.2866
     65  N         -9.3040   51.6700   20.9180 N.3   143  THR143     -0.1203
     66  CA        -8.9520   53.0270   21.3450 C.3   143  THR143      0.1994
     67  C         -7.5730   53.4600   20.8350 C.2   143  THR143      0.2618
     68  O         -7.2660   54.6420   20.8980 O.2   143  THR143     -0.2717
     69  CB        -9.0890   53.1890   22.8780 C.3   143  THR143      0.1784
     70  OG1       -8.0740   52.4210   23.5200 O.3   143  THR143     -0.2211
     71  CG2      -10.4640   52.7790   23.4050 C.3   143  THR143      0.0376
     72  N         -6.7470   52.5160   20.3410 N.am  144  HIS144     -0.1961
     73  CA        -5.3700   52.7930   19.9050 C.3   144  HIS144      0.1787
     74  C         -5.2820   52.9760   18.3900 C.2   144  HIS144      0.2620
     75  O         -5.6850   52.0940   17.6220 O.2   144  HIS144     -0.2715
     76  CB        -4.4050   51.6910   20.3760 C.3   144  HIS144      0.0785
     77  CG        -4.2580   51.6010   21.8570 C.ar  144  HIS144      0.0821
     78  ND1       -5.3520   51.3540   22.6860 N.ar  144  HIS144     -0.2267
     79  CD2       -3.1490   51.7110   22.6200 C.ar  144  HIS144      0.1154
     80  CE1       -4.8730   51.3390   23.9190 C.ar  144  HIS144      0.1986
     81  NE2       -3.5550   51.5450   23.9330 N.ar  144  HIS144     -0.2212
     82  N         -4.7640   54.1230   17.9660 N.am  145  PHE145     -0.1960
     83  CA        -4.6740   54.4600   16.5550 C.3   145  PHE145      0.1771
     84  C         -3.2460   54.8170   16.1950 C.2   145  PHE145      0.2619
     85  O         -2.5040   55.3740   17.0080 O.2   145  PHE145     -0.2715
     86  CB        -5.6600   55.5790   16.1840 C.3   145  PHE145      0.0574
     87  CG        -7.1140   55.1990   16.3340 C.ar  145  PHE145     -0.0200
     88  CD1       -7.7960   54.5800   15.2980 C.ar  145  PHE145     -0.0042
     89  CD2       -7.8000   55.4550   17.5190 C.ar  145  PHE145     -0.0042
     90  CE1       -9.1460   54.2280   15.4350 C.ar  145  PHE145     -0.0003
     91  CE2       -9.1530   55.1020   17.6580 C.ar  145  PHE145     -0.0003
     92  CZ        -9.8130   54.4870   16.6170 C.ar  145  PHE145     -0.0000
     93  N         -2.8560   54.4730   14.9660 N.am  146  TYR146     -0.1974
     94  CA        -1.4830   54.6300   14.4870 C.3   146  TYR146      0.1639
     95  C         -1.4730   55.2220   13.0670 C.2   146  TYR146      0.2290
     96  O         -0.5280   54.9920   12.3180 O.2   146  TYR146     -0.2864
     97  CB        -0.7660   53.2600   14.5140 C.3   146  TYR146      0.0560
     98  CG        -0.7470   52.5870   15.8580 C.ar  146  TYR146     -0.0198
     99  CD1       -1.8270   51.8100   16.2880 C.ar  146  TYR146     -0.0009
    100  CD2        0.3440   52.7260   16.7160 C.ar  146  TYR146     -0.0009
    101  CE1       -1.8270   51.2000   17.5490 C.ar  146  TYR146      0.0417
    102  CE2        0.3530   52.1310   17.9790 C.ar  146  TYR146      0.0417
    103  CZ        -0.7350   51.3650   18.3830 C.ar  146  TYR146      0.1957
    104  OH        -0.7190   50.7750   19.6020 O.3   146  TYR146     -0.2866
    105  N          8.8250   54.0960   16.0810 N.3   165  SER165     -0.1202
    106  CA         8.1300   55.4230   16.0820 C.3   165  SER165      0.2020
    107  C          6.6410   55.2450   16.3620 C.2   165  SER165      0.2619
    108  O          5.9980   56.2110   16.6880 O.2   165  SER165     -0.2717
    109  CB         8.3310   56.1540   14.7550 C.3   165  SER165      0.2103
    110  OG         7.8040   55.3880   13.6900 O.3   165  SER165     -0.2182
    111  N          6.0940   54.0060   16.2510 N.am  166  ARG166     -0.1965
    112  CA         4.6920   53.6840   16.5600 C.3   166  ARG166      0.1729
    113  C          4.4440   53.7650   18.0530 C.2   166  ARG166      0.2616
    114  O          3.2930   53.8860   18.4580 O.2   166  ARG166     -0.2715
    115  CB         4.3110   52.2760   16.0080 C.3   166  ARG166      0.0348
    116  CG         4.7690   51.1100   16.9060 C.3   166  ARG166      0.0492
    117  CD         4.6050   49.7430   16.2100 C.3   166  ARG166      0.2205
    118  NE         3.1870   49.3870   16.0760 N.pl3 166  ARG166     -0.0865
    119  CZ         2.4260   48.9350   17.0690 C.cat 166  ARG166      0.5346
    120  NH1        1.1500   48.6560   16.8570 N.pl3 166  ARG166      0.1354
    121  NH2        2.9390   48.7490   18.2800 N.pl3 166  ARG166      0.1354
    122  N          5.5130   53.7020   18.8720 N.am  167  PHE167     -0.1960
    123  CA         5.4030   53.8390   20.3350 C.3   167  PHE167      0.1771
    124  C          5.5130   55.2830   20.8360 C.2   167  PHE167      0.2619
    125  O          5.2810   55.5120   22.0150 O.2   167  PHE167     -0.2715
    126  CB         6.3870   52.9270   21.0700 C.3   167  PHE167      0.0574
    127  CG         6.0890   51.4850   20.8180 C.ar  167  PHE167     -0.0200
    128  CD1        4.9940   50.8720   21.4100 C.ar  167  PHE167     -0.0042
    129  CD2        6.9000   50.7280   19.9760 C.ar  167  PHE167     -0.0042
    130  CE1        4.7250   49.5270   21.1660 C.ar  167  PHE167     -0.0003
    131  CE2        6.6300   49.3800   19.7360 C.ar  167  PHE167     -0.0003
    132  CZ         5.5490   48.7930   20.3260 C.ar  167  PHE167     -0.0000
    133  N          5.8410   56.2560   19.9530 N.am  168  MET168     -0.1963
    134  CA         5.9560   57.6450   20.3430 C.3   168  MET168      0.1736
    135  C          4.5840   58.2250   20.6320 C.2   168  MET168      0.2616
    136  O          3.7170   58.1910   19.7900 O.2   168  MET168     -0.2715
    137  CB         6.7320   58.4640   19.3210 C.3   168  MET168      0.0427
    138  CG         8.2040   58.2190   19.3810 C.3   168  MET168      0.0599
    139  SD         9.1690   59.0220   18.0880 S.3   168  MET168     -0.1393
    140  CE         8.8880   60.7750   18.4930 C.3   168  MET168      0.0692
    141  N          4.3920   58.7310   21.8440 N.am  169  ASN169     -0.1958
    142  CA         3.1290   59.2600   22.3290 C.3   169  ASN169      0.1819
    143  C          2.9370   60.7190   21.9400 C.2   169  ASN169      0.2621
    144  O          3.8860   61.3870   21.5000 O.2   169  ASN169     -0.2715
    145  CB         3.0130   59.0970   23.8510 C.3   169  ASN169      0.1195
    146  CG         2.7650   57.6880   24.2520 C.2   169  ASN169      0.2630
    147  OD1        3.5160   57.1210   25.0390 O.2   169  ASN169     -0.2716
    148  ND2        1.7570   57.0640   23.6780 N.am  169  ASN169     -0.0877
    149  N          1.6830   61.2010   22.1070 N.am  170  HIS170     -0.1973
    150  CA         1.3250   62.5850   21.8250 C.3   170  HIS170      0.1656
    151  C          1.6610   63.4610   23.0060 C.2   170  HIS170      0.2291
    152  O          1.3090   63.1380   24.1360 O.2   170  HIS170     -0.2864
    153  CB        -0.1820   62.7200   21.5240 C.3   170  HIS170      0.0771
    154  CG        -0.6380   64.1510   21.6050 C.ar  170  HIS170      0.0820
    155  ND1       -0.4730   65.0070   20.5610 N.ar  170  HIS170     -0.2267
    156  CD2       -1.1790   64.8240   22.6480 C.ar  170  HIS170      0.1154
    157  CE1       -0.9420   66.1650   20.9690 C.ar  170  HIS170      0.1986
    158  NE2       -1.3830   66.0960   22.2320 N.ar  170  HIS170     -0.2212
    159  N          5.4950   63.6510   20.0150 N.3   205  PHE205     -0.1241
    160  CA         5.1900   64.6130   18.9590 C.3   205  PHE205      0.1605
    161  C          3.7220   65.0350   19.0430 C.2   205  PHE205      0.2264
    162  O          2.9580   64.3590   19.7160 O.2   205  PHE205     -0.2867
    163  CB         5.6310   64.1480   17.5390 C.3   205  PHE205      0.0534
    164  CG         4.8450   63.0220   16.9200 C.ar  205  PHE205     -0.0203
    165  CD1        5.0570   61.6980   17.3200 C.ar  205  PHE205     -0.0042
    166  CD2        3.8790   63.2770   15.9630 C.ar  205  PHE205     -0.0042
    167  CE1        4.3360   60.6530   16.7470 C.ar  205  PHE205     -0.0003
    168  CE2        3.1430   62.2300   15.3980 C.ar  205  PHE205     -0.0003
    169  CZ         3.3760   60.9250   15.7880 C.ar  205  PHE205     -0.0000
    170  N          0.2080   65.0160   17.7440 N.3   207  TYR207     -0.1241
    171  CA        -0.6220   64.2330   16.8150 C.3   207  TYR207      0.1605
    172  C         -1.6910   65.0840   16.1220 C.2   207  TYR207      0.2264
    173  O         -2.2630   64.6160   15.1270 O.2   207  TYR207     -0.2867
    174  CB        -1.4220   63.1450   17.5500 C.3   207  TYR207      0.0534
    175  CG        -0.7230   61.9590   18.1240 C.ar  207  TYR207     -0.0201
    176  CD1       -1.4390   60.9630   18.7740 C.ar  207  TYR207     -0.0009
    177  CD2        0.6650   61.8200   18.0330 C.ar  207  TYR207     -0.0009
    178  CE1       -0.8080   59.8530   19.3150 C.ar  207  TYR207      0.0417
    179  CE2        1.3050   60.6850   18.5360 C.ar  207  TYR207      0.0417
    180  CZ         0.5680   59.7210   19.2010 C.ar  207  TYR207      0.1957
    181  OH         1.1420   58.6120   19.7770 O.3   207  TYR207     -0.2866
    182  N         -8.2980   60.1760   16.6300 N.3   214  ASN214     -0.1240
    183  CA        -8.0680   60.4800   18.0560 C.3   214  ASN214      0.1653
    184  C         -9.0020   61.5610   18.6650 C.2   214  ASN214      0.2266
    185  O         -8.7990   61.9500   19.8150 O.2   214  ASN214     -0.2867
    186  CB        -6.5930   60.8500   18.3050 C.3   214  ASN214      0.1155
    187  CG        -5.5710   59.7770   18.0350 C.2   214  ASN214      0.2627
    188  OD1       -4.6540   59.9860   17.2390 O.2   214  ASN214     -0.2716
    189  ND2       -5.6420   58.6470   18.7430 N.am  214  ASN214     -0.0877
    190  N        -10.2270   60.7270   22.0990 N.3   217  THR217     -0.1203
    191  CA        -9.2400   60.3140   23.0970 C.3   217  THR217      0.1994
    192  C         -8.8310   61.4970   24.0050 C.2   217  THR217      0.2618
    193  O         -8.3420   62.5240   23.5290 O.2   217  THR217     -0.2717
    194  CB        -8.0740   59.6200   22.4100 C.3   217  THR217      0.1784
    195  OG1       -8.5870   58.6150   21.5240 O.3   217  THR217     -0.2211
    196  CG2       -7.0890   59.0030   23.3910 C.3   217  THR217      0.0376
    197  N         -9.0380   61.3420   25.3100 N.am  218  VAL218     -0.1965
    198  CA        -8.6680   62.3590   26.3010 C.3   218  VAL218      0.1727
    199  C         -7.1330   62.3500   26.4370 C.2   218  VAL218      0.2616
    200  O         -6.5450   61.2760   26.5080 O.2   218  VAL218     -0.2715
    201  CB        -9.4250   62.1570   27.6470 C.3   218  VAL218      0.0290
    202  CG1       -9.1180   63.2710   28.6200 C.3   218  VAL218      0.0023
    203  CG2      -10.9270   62.0810   27.4160 C.3   218  VAL218      0.0023
    204  N         -6.5010   63.5380   26.4440 N.am  219  CYS219     -0.1954
    205  CA        -5.0550   63.6850   26.5940 C.3   219  CYS219      0.1843
    206  C         -4.5860   63.5820   28.0220 C.2   219  CYS219      0.2625
    207  O         -5.1490   64.2310   28.8960 O.2   219  CYS219     -0.2714
    208  CB        -4.5220   64.9470   25.9380 C.3   219  CYS219      0.0997
    209  SG        -2.7140   64.9430   25.7730 S.3   219  CYS219     -0.0797
    210  N         -3.5400   62.7640   28.2600 N.am  220  ARG220     -0.1963
    211  CA        -2.9180   62.6440   29.5720 C.3   220  ARG220      0.1729
    212  C         -1.4150   62.9510   29.5040 C.2   220  ARG220      0.2616
    213  O         -0.6510   62.3380   30.2690 O.2   220  ARG220     -0.2715
    214  CB        -3.1740   61.2500   30.2160 C.3   220  ARG220      0.0348
    215  CG        -4.5500   60.6020   29.9930 C.3   220  ARG220      0.0492
    216  CD        -5.7060   61.3200   30.6610 C.3   220  ARG220      0.2205
    217  NE        -6.8850   60.4610   30.7780 N.pl3 220  ARG220     -0.0865
    218  CZ        -8.0930   60.8810   31.1490 C.cat 220  ARG220      0.5346
    219  NH1       -8.2970   62.1590   31.4470 N.pl3 220  ARG220      0.1354
    220  NH2       -9.1040   60.0250   31.2320 N.pl3 220  ARG220      0.1354
    221  N         -0.9920   63.9000   28.6020 N.am  221  CYS221     -0.1968
    222  CA         0.4150   64.2490   28.3640 C.3   221  CYS221      0.1712
    223  C          1.0330   64.9140   29.6040 C.2   221  CYS221      0.2296
    224  O          2.2540   64.8890   29.7860 O.2   221  CYS221     -0.2864
    225  CB         0.6190   65.0600   27.0740 C.3   221  CYS221      0.0983
    226  SG         0.3310   66.8560   27.2040 S.3   221  CYS221     -0.0798
    227  N         -6.1850   64.6100   21.7870 N.3   230  LEU230     -0.1245
    228  CA        -5.0870   64.2540   20.8910 C.3   230  LEU230      0.1561
    229  C         -5.3990   64.7210   19.4990 C.2   230  LEU230      0.2260
    230  O         -4.4840   64.9340   18.7090 O.2   230  LEU230     -0.2867
    231  CB        -4.8920   62.7240   20.8910 C.3   230  LEU230      0.0270
    232  CG        -3.9580   62.1180   21.9350 C.3   230  LEU230      0.0019
    233  CD1       -4.4380   62.4040   23.3330 C.3   230  LEU230      0.0001
    234  CD2       -3.9000   60.5990   21.7750 C.3   230  LEU230      0.0001
@<TRIPOS>BOND
     1    56    55    2
     2    55    54    1
     3    53    54    1
     4    54    57    1
     5    60    62   ar
     6    60    58   ar
     7    57    58    1
     8    62    63   ar
     9    58    59   ar
    10    96    95    2
    11    63    64    1
    12    63    61   ar
    13    59    61   ar
    14    95    94    1
    15   110   109    1
    16    94    97    1
    17    94    93    1
    18    97    98    1
    19   109   106    1
    20    93    84   am
    21   173   172    2
    22    88    90   ar
    23    88    87   ar
    24   168   169   ar
    25   168   166   ar
    26    90    92   ar
    27   169   167   ar
    28    98    99   ar
    29    98   100   ar
    30   166   164   ar
    31   115   112    1
    32   115   116    1
    33   118   117    1
    34   118   119    2
    35   105   106    1
    36   106   107    1
    37   172   171    1
    38    86    87    1
    39    86    83    1
    40    84    83    1
    41    84    85    2
    42   117   116    1
    43   111   107   am
    44   111   112    1
    45    99   101   ar
    46    87    89   ar
    47   107   108    2
    48    83    82    1
    49   112   113    1
    50    92    91   ar
    51   182   183    1
    52   100   102   ar
    53   167   165   ar
    54   171   174    1
    55   171   170    1
    56   120   119    1
    57   164   165   ar
    58   164   163    1
    59   119   121    1
    60   188   187    2
    61    89    91   ar
    62   163   160    1
    63   101   103   ar
    64   174   175    1
    65    75    74    2
    66    82    74   am
    67   102   103   ar
    68   177   175   ar
    69   177   179   ar
    70   187   186    1
    71   187   189   am
    72   113   114    2
    73   113   122   am
    74   183   186    1
    75   183   184    1
    76   139   140    1
    77   139   138    1
    78   175   176   ar
    79   103   104    1
    80    74    73    1
    81   179   180   ar
    82   184   185    2
    83   230   229    2
    84   176   178   ar
    85   122   123    1
    86   160   161    1
    87   160   159    1
    88   161   162    2
    89   180   178   ar
    90   180   181    1
    91   137   138    1
    92   137   134    1
    93   229   228    1
    94   131   129   ar
    95   131   132   ar
    96   136   135    2
    97    73    72    1
    98    73    76    1
    99   133   134    1
   100   133   124   am
   101   129   127   ar
   102    11    10    2
   103   132   130   ar
   104   123   124    1
   105   123   126    1
   106    72    67   am
   107   134   135    1
   108    76    77    1
   109    10     9    1
   110   155   157   ar
   111   155   154   ar
   112   135   141   am
   113   127   126    1
   114   127   128   ar
   115    67    68    2
   116    67    66    1
   117   124   125    2
   118   228   231    1
   119   228   227    1
   120   231   232    1
   121    65    66    1
   122   157   158   ar
   123   130   128   ar
   124    66    69    1
   125   144   143    2
   126   153   154    1
   127   153   150    1
   128   195   194    1
   129   154   156   ar
   130   234   232    1
   131   150   149    1
   132   150   151    1
   133   141   142    1
   134    77    79   ar
   135    77    78   ar
   136   232   233    1
   137   143   149   am
   138   143   142    1
   139     9    12    1
   140     9     8    1
   141    12    13    1
   142   190   191    1
   143   158   156   ar
   144   142   145    1
   145    13    14    1
   146   194   191    1
   147   194   196    1
   148    79    81   ar
   149    78    80   ar
   150     4     3    2
   151     8     3   am
   152     8    14    1
   153    69    71    1
   154    69    70    1
   155     5     6    1
   156     5     2    1
   157   151   152    2
   158     3     2    1
   159   191   192    1
   160   193   192    2
   161   148   146   am
   162     6     7    1
   163   145   146    1
   164     2     1    1
   165    80    81   ar
   166   192   197   am
   167   146   147    2
   168     7     1    1
   169    42    41    2
   170    43    44    1
   171    43    40    1
   172   197   198    1
   173    41    40    1
   174    45    44   ar
   175    45    47   ar
   176    44    46   ar
   177   209   208    1
   178   208   205    1
   179    40    39    1
   180    27    26    2
   181    47    48   ar
   182   198   199    1
   183   198   201    1
   184    39    37   am
   185   199   204   am
   186   199   200    2
   187   204   205    1
   188    46    48   ar
   189    46    49   ar
   190   205   206    1
   191    48    50   ar
   192   225   226    1
   193   225   222    1
   194    49    51   ar
   195    26    35   am
   196    26    25    1
   197    37    36    1
   198    37    38    2
   199   203   201    1
   200    33    32    1
   201    36    35    1
   202    28    29    1
   203    28    25    1
   204   201   202    1
   205    50    52   ar
   206    29    30    1
   207    25    24    1
   208    30    31    1
   209   206   210   am
   210   206   207    2
   211    51    52   ar
   212   210   211    1
   213   222   221    1
   214   222   223    1
   215   221   212   am
   216    32    31    2
   217    32    34    1
   218    24    17   am
   219   212   211    1
   220   212   213    2
   221    18    17    2
   222   211   214    1
   223   223   224    2
   224   215   214    1
   225   215   216    1
   226    17    16    1
   227   216   217    1
   228   217   218    2
   229   218   220    1
   230   218   219    1
   231    16    19    1
   232    16    15    1
   233    19    20    1
   234    20    21    1
   235    23    21   am
   236    21    22    2
