@<TRIPOS>MOLECULE
tmp/5lsxA00.pdb
 246 250 0 0 0
SMALL
GASTEIGER

@<TRIPOS>ATOM
      1  N          2.2860   32.6020  -26.0150 N.3   102  LYS102     -0.1231
      2  CA         2.9850   33.2620  -24.8940 C.3   102  LYS102      0.1693
      3  C          3.1990   32.4500  -23.6100 C.2   102  LYS102      0.2592
      4  O          3.8380   32.9520  -22.6800 O.2   102  LYS102     -0.2718
      5  CB         2.1950   34.5170  -24.5160 C.3   102  LYS102      0.0285
      6  CG         2.2020   35.5980  -25.5700 C.3   102  LYS102      0.0035
      7  CD         1.2010   36.6900  -25.2550 C.3   102  LYS102      0.0206
      8  CE        -0.2170   36.3040  -25.6270 C.3   102  LYS102      0.1093
      9  NZ        -1.0670   37.5220  -25.5650 N.3   102  LYS102     -0.1314
     10  N          2.6780   31.2220  -23.5500 N.am  103  LYS103     -0.1966
     11  CA         2.6030   30.4360  -22.3040 C.3   103  LYS103      0.1728
     12  C          3.6690   29.3500  -22.2100 C.2   103  LYS103      0.2617
     13  O          3.7340   28.6260  -21.2200 O.2   103  LYS103     -0.2715
     14  CB         1.2100   29.8100  -22.1760 C.3   103  LYS103      0.0311
     15  CG         0.1030   30.8520  -22.2660 C.3   103  LYS103      0.0038
     16  CD        -1.2660   30.3090  -21.8840 C.3   103  LYS103      0.0206
     17  CE        -1.8860   29.4710  -22.9930 C.3   103  LYS103      0.1093
     18  NZ        -3.3470   29.7350  -23.1030 N.3   103  LYS103     -0.1314
     19  N          4.5060   29.2390  -23.2420 N.am  104  GLY104     -0.1940
     20  CA         5.3630   28.0720  -23.4320 C.3   104  GLY104      0.2014
     21  C          4.5630   27.0150  -24.1500 C.2   104  GLY104      0.2638
     22  O          3.6900   27.3430  -24.9590 O.2   104  GLY104     -0.2714
     23  N          4.8530   25.7470  -23.8610 N.am  105  TRP105     -0.1973
     24  CA         4.1160   24.6460  -24.4700 C.3   105  TRP105      0.1640
     25  C          2.8320   24.3230  -23.6790 C.2   105  TRP105      0.2290
     26  O          2.7460   24.5650  -22.4770 O.2   105  TRP105     -0.2864
     27  CB         4.9900   23.4130  -24.5910 C.3   105  TRP105      0.0576
     28  CG         6.2170   23.5540  -25.4610 C.ar  105  TRP105      0.0006
     29  CD1        7.4040   24.1220  -25.1070 C.ar  105  TRP105      0.0946
     30  CD2        6.3770   23.1170  -26.8210 C.ar  105  TRP105      0.0152
     31  NE1        8.2890   24.0700  -26.1530 N.ar  105  TRP105     -0.2442
     32  CE2        7.6840   23.4570  -27.2180 C.ar  105  TRP105      0.0810
     33  CE3        5.5470   22.4740  -27.7390 C.ar  105  TRP105      0.0012
     34  CZ2        8.1770   23.1740  -28.4990 C.ar  105  TRP105      0.0191
     35  CZ3        6.0360   22.1930  -29.0110 C.ar  105  TRP105      0.0001
     36  CH2        7.3360   22.5430  -29.3770 C.ar  105  TRP105      0.0015
     37  N         -1.0360   13.7280  -13.1870 N.3   122  TYR122     -0.1241
     38  CA         0.0950   14.6120  -12.8880 C.3   122  TYR122      0.1605
     39  C          1.0390   13.8040  -12.0340 C.2   122  TYR122      0.2264
     40  O          0.7420   13.5390  -10.8820 O.2   122  TYR122     -0.2867
     41  CB        -0.3170   15.9080  -12.2000 C.3   122  TYR122      0.0534
     42  CG         0.8340   16.8360  -11.8160 C.ar  122  TYR122     -0.0201
     43  CD1        1.6070   17.4740  -12.7840 C.ar  122  TYR122     -0.0009
     44  CD2        1.1490   17.0750  -10.4760 C.ar  122  TYR122     -0.0009
     45  CE1        2.6580   18.3210  -12.4270 C.ar  122  TYR122      0.0417
     46  CE2        2.1920   17.9160  -10.1160 C.ar  122  TYR122      0.0417
     47  CZ         2.9410   18.5350  -11.0900 C.ar  122  TYR122      0.1957
     48  OH         3.9680   19.3620  -10.7080 O.3   122  TYR122     -0.2866
     49  N         11.4370   30.4210  -15.3350 N.3   145  ILE145     -0.1231
     50  CA        10.2090   31.0720  -15.7330 C.3   145  ILE145      0.1692
     51  C          9.0520   30.2280  -15.1970 C.2   145  ILE145      0.2592
     52  O          8.2120   30.7350  -14.4470 O.2   145  ILE145     -0.2718
     53  CB        10.1050   31.2730  -17.2780 C.3   145  ILE145      0.0266
     54  CG1       11.3460   32.0090  -17.8550 C.3   145  ILE145      0.0019
     55  CG2        8.8520   31.9930  -17.7220 C.3   145  ILE145      0.0020
     56  CD1       11.5450   31.7890  -19.3430 C.3   145  ILE145      0.0001
     57  N          9.0070   28.9510  -15.5740 N.am  146  HIS146     -0.1962
     58  CA         7.8290   28.1150  -15.2990 C.3   146  HIS146      0.1787
     59  C          7.9220   27.4330  -13.9570 C.2   146  HIS146      0.2620
     60  O          9.0150   27.2570  -13.4210 O.2   146  HIS146     -0.2715
     61  CB         7.6470   27.0580  -16.3690 C.3   146  HIS146      0.0785
     62  CG         7.5150   27.6120  -17.7490 C.ar  146  HIS146      0.0821
     63  ND1        6.5180   28.4900  -18.1140 N.ar  146  HIS146     -0.2267
     64  CD2        8.2570   27.4100  -18.8570 C.ar  146  HIS146      0.1154
     65  CE1        6.6530   28.8050  -19.3880 C.ar  146  HIS146      0.1986
     66  NE2        7.7010   28.1620  -19.8600 N.ar  146  HIS146     -0.2212
     67  N          6.7540   27.0580  -13.4370 N.am  147  TYR147     -0.1960
     68  CA         6.6000   26.4390  -12.1180 C.3   147  TYR147      0.1771
     69  C          5.6720   25.2210  -12.1810 C.2   147  TYR147      0.2620
     70  O          4.5440   25.2900  -12.6660 O.2   147  TYR147     -0.2715
     71  CB         6.0990   27.4710  -11.0800 C.3   147  TYR147      0.0574
     72  CG         7.2330   28.3050  -10.4990 C.ar  147  TYR147     -0.0198
     73  CD1        7.4810   29.6170  -10.9420 C.ar  147  TYR147     -0.0009
     74  CD2        8.0670   27.7770   -9.4990 C.ar  147  TYR147     -0.0009
     75  CE1        8.5240   30.3680  -10.4010 C.ar  147  TYR147      0.0417
     76  CE2        9.1090   28.5210   -8.9540 C.ar  147  TYR147      0.0417
     77  CZ         9.3370   29.8100   -9.4030 C.ar  147  TYR147      0.1957
     78  OH        10.3740   30.5270   -8.8500 O.3   147  TYR147     -0.2866
     79  N          6.1750   24.1040  -11.6790 N.am  148  TYR148     -0.1960
     80  CA         5.5440   22.8140  -11.8380 C.3   148  TYR148      0.1771
     81  C          5.2060   22.2340  -10.4730 C.2   148  TYR148      0.2620
     82  O          5.5590   21.1020  -10.1760 O.2   148  TYR148     -0.2715
     83  CB         6.5120   21.8880  -12.5850 C.3   148  TYR148      0.0574
     84  CG         6.9330   22.4100  -13.9210 C.ar  148  TYR148     -0.0198
     85  CD1        6.1280   22.2300  -15.0330 C.ar  148  TYR148     -0.0009
     86  CD2        8.1350   23.0850  -14.0830 C.ar  148  TYR148     -0.0009
     87  CE1        6.5030   22.7070  -16.2810 C.ar  148  TYR148      0.0417
     88  CE2        8.5240   23.5700  -15.3300 C.ar  148  TYR148      0.0417
     89  CZ         7.6980   23.3750  -16.4270 C.ar  148  TYR148      0.1957
     90  OH         8.0580   23.8440  -17.6680 O.3   148  TYR148     -0.2866
     91  N          4.5220   23.0080   -9.6420 N.am  149  PHE149     -0.1960
     92  CA         4.2370   22.5880   -8.2650 C.3   149  PHE149      0.1771
     93  C          2.7930   22.2800   -8.0690 C.2   149  PHE149      0.2619
     94  O          1.9590   22.9210   -8.7000 O.2   149  PHE149     -0.2715
     95  CB         4.5810   23.7000   -7.2970 C.3   149  PHE149      0.0574
     96  CG         6.0230   23.7590   -6.9620 C.ar  149  PHE149     -0.0200
     97  CD1        6.6340   22.6780   -6.3310 C.ar  149  PHE149     -0.0042
     98  CD2        6.7760   24.8820   -7.2690 C.ar  149  PHE149     -0.0042
     99  CE1        7.9750   22.7130   -6.0110 C.ar  149  PHE149     -0.0003
    100  CE2        8.1210   24.9250   -6.9520 C.ar  149  PHE149     -0.0003
    101  CZ         8.7210   23.8390   -6.3220 C.ar  149  PHE149     -0.0000
    102  N          2.5020   21.3070   -7.2000 N.am  150  MET150     -0.1977
    103  CA         1.1190   21.0610   -6.7510 C.3   150  MET150      0.1605
    104  C          0.9620   20.2590   -5.4660 C.2   150  MET150      0.2287
    105  O          1.5790   19.2070   -5.3180 O.2   150  MET150     -0.2864
    106  CB         0.3330   20.3260   -7.8250 C.3   150  MET150      0.0413
    107  CG        -1.0540   19.9220   -7.3590 C.3   150  MET150      0.0598
    108  SD        -2.0370   19.3110   -8.7070 S.3   150  MET150     -0.1393
    109  CE        -2.0320   20.7300   -9.8090 C.3   150  MET150      0.0692
    110  N          1.4490   15.8540  -18.4680 N.3   167  SER167     -0.1202
    111  CA         0.5480   16.6570  -17.6190 C.3   167  SER167      0.2020
    112  C          1.1070   18.0420  -17.2280 C.2   167  SER167      0.2619
    113  O          0.3550   18.9940  -17.0910 O.2   167  SER167     -0.2717
    114  CB         0.2490   15.8820  -16.3380 C.3   167  SER167      0.2103
    115  OG         1.4760   15.5620  -15.7000 O.3   167  SER167     -0.2182
    116  N          2.4220   18.1370  -17.0550 N.am  168  ARG168     -0.1965
    117  CA         3.0910   19.3860  -16.7260 C.3   168  ARG168      0.1729
    118  C          3.0280   20.5040  -17.7900 C.2   168  ARG168      0.2616
    119  O          3.4030   21.6260  -17.4850 O.2   168  ARG168     -0.2715
    120  CB         4.5580   19.1080  -16.3860 C.3   168  ARG168      0.0348
    121  CG         5.4540   18.8760  -17.5900 C.3   168  ARG168      0.0492
    122  CD         6.6680   18.0060  -17.2590 C.3   168  ARG168      0.2205
    123  NE         7.7650   18.7370  -16.6270 N.pl3 168  ARG168     -0.0865
    124  CZ         8.5530   19.6230  -17.2440 C.cat 168  ARG168      0.5346
    125  NH1        8.3900   19.9190  -18.5420 N.pl3 168  ARG168      0.1354
    126  NH2        9.5200   20.2220  -16.5520 N.pl3 168  ARG168      0.1354
    127  N          2.5700   20.2160  -19.0090 N.am  169  PHE169     -0.1960
    128  CA         2.3290   21.2630  -20.0240 C.3   169  PHE169      0.1771
    129  C          0.9220   21.8370  -19.9920 C.2   169  PHE169      0.2619
    130  O          0.5620   22.6470  -20.8410 O.2   169  PHE169     -0.2715
    131  CB         2.6780   20.7440  -21.4320 C.3   169  PHE169      0.0574
    132  CG         4.0980   20.2890  -21.5330 C.ar  169  PHE169     -0.0200
    133  CD1        5.1310   21.1980  -21.3620 C.ar  169  PHE169     -0.0042
    134  CD2        4.4110   18.9730  -21.7910 C.ar  169  PHE169     -0.0042
    135  CE1        6.4520   20.7990  -21.4490 C.ar  169  PHE169     -0.0003
    136  CE2        5.7340   18.5660  -21.8790 C.ar  169  PHE169     -0.0003
    137  CZ         6.7550   19.4770  -21.7080 C.ar  169  PHE169     -0.0000
    138  N          0.1270   21.4190  -19.0130 N.am  170  MET170     -0.1963
    139  CA        -1.2270   21.9110  -18.8570 C.3   170  MET170      0.1736
    140  C         -1.1300   23.3500  -18.4040 C.2   170  MET170      0.2616
    141  O         -0.4320   23.6500  -17.4470 O.2   170  MET170     -0.2715
    142  CB        -1.9570   21.0720  -17.8210 C.3   170  MET170      0.0427
    143  CG        -3.4210   21.4270  -17.5910 C.3   170  MET170      0.0599
    144  SD        -4.6890   20.6160  -18.5760 S.3   170  MET170     -0.1393
    145  CE        -4.2070   18.9030  -18.4320 C.3   170  MET170      0.0692
    146  N         -1.8310   24.2360  -19.0970 N.am  171  ASN171     -0.1958
    147  CA        -1.7400   25.6610  -18.8050 C.3   171  ASN171      0.1819
    148  C         -2.9400   26.1700  -18.0000 C.2   171  ASN171      0.2621
    149  O         -4.0170   25.5820  -18.0490 O.2   171  ASN171     -0.2715
    150  CB        -1.5760   26.4470  -20.1100 C.3   171  ASN171      0.1195
    151  CG        -0.1850   26.3190  -20.7010 C.2   171  ASN171      0.2630
    152  OD1        0.8010   26.3470  -19.9800 O.2   171  ASN171     -0.2716
    153  ND2       -0.1000   26.1780  -22.0220 N.am  171  ASN171     -0.0877
    154  N         -2.7420   27.2640  -17.2630 N.am  172  HIS172     -0.1973
    155  CA        -3.8420   27.9410  -16.5850 C.3   172  HIS172      0.1656
    156  C         -4.8500   28.5940  -17.5340 C.2   172  HIS172      0.2291
    157  O         -4.4830   29.0600  -18.6210 O.2   172  HIS172     -0.2864
    158  CB        -3.3240   29.0220  -15.6550 C.3   172  HIS172      0.0771
    159  CG        -4.4160   29.8150  -15.0180 C.ar  172  HIS172      0.0820
    160  ND1       -5.2260   29.2960  -14.0410 N.ar  172  HIS172     -0.2267
    161  CD2       -4.8350   31.0850  -15.2190 C.ar  172  HIS172      0.1154
    162  CE1       -6.0970   30.2110  -13.6630 C.ar  172  HIS172      0.1986
    163  NE2       -5.8830   31.3090  -14.3630 N.ar  172  HIS172     -0.2212
    164  N         -5.8820   14.9050  -13.9910 N.3   193  PHE193     -0.1241
    165  CA        -6.7030   15.9340  -14.5590 C.3   193  PHE193      0.1605
    166  C         -7.9080   15.2660  -15.1800 C.2   193  PHE193      0.2264
    167  O         -7.7890   14.2190  -15.8110 O.2   193  PHE193     -0.2867
    168  CB        -5.9130   16.7280  -15.5940 C.3   193  PHE193      0.0534
    169  CG        -4.8480   17.5860  -14.9880 C.ar  193  PHE193     -0.0203
    170  CD1       -5.1880   18.7650  -14.3590 C.ar  193  PHE193     -0.0042
    171  CD2       -3.5110   17.2200  -15.0440 C.ar  193  PHE193     -0.0042
    172  CE1       -4.2230   19.5630  -13.7970 C.ar  193  PHE193     -0.0003
    173  CE2       -2.5350   18.0200  -14.4790 C.ar  193  PHE193     -0.0003
    174  CZ        -2.8940   19.1910  -13.8560 C.ar  193  PHE193     -0.0000
    175  N         -6.7160   24.1640  -16.7550 N.3   207  PHE207     -0.1241
    176  CA        -7.2730   24.0590  -15.3920 C.3   207  PHE207      0.1605
    177  C         -7.0520   25.3210  -14.5570 C.2   207  PHE207      0.2264
    178  O         -6.3790   26.2470  -15.0050 O.2   207  PHE207     -0.2867
    179  CB        -6.7250   22.8410  -14.6700 C.3   207  PHE207      0.0534
    180  CG        -5.3340   23.0090  -14.1110 C.ar  207  PHE207     -0.0203
    181  CD1       -5.1120   22.9620  -12.7410 C.ar  207  PHE207     -0.0042
    182  CD2       -4.2440   23.2130  -14.9540 C.ar  207  PHE207     -0.0042
    183  CE1       -3.8290   23.1160  -12.2300 C.ar  207  PHE207     -0.0003
    184  CE2       -2.9610   23.3680  -14.4560 C.ar  207  PHE207     -0.0003
    185  CZ        -2.7480   23.3200  -13.0890 C.ar  207  PHE207     -0.0000
    186  N         -5.0810   26.6170  -12.0610 N.3   209  TYR209     -0.1241
    187  CA        -3.8090   26.5390  -11.3290 C.3   209  TYR209      0.1605
    188  C         -3.7040   27.4620  -10.1000 C.2   209  TYR209      0.2264
    189  O         -3.5260   28.6780  -10.2280 O.2   209  TYR209     -0.2867
    190  CB        -2.5970   26.7350  -12.2930 C.3   209  TYR209      0.0534
    191  CG        -1.2210   26.3650  -11.7050 C.ar  209  TYR209     -0.0201
    192  CD1       -1.1030   25.4900  -10.6020 C.ar  209  TYR209     -0.0009
    193  CD2       -0.0310   26.8880  -12.2490 C.ar  209  TYR209     -0.0009
    194  CE1        0.1280   25.1540  -10.0690 C.ar  209  TYR209      0.0417
    195  CE2        1.2190   26.5490  -11.7090 C.ar  209  TYR209      0.0417
    196  CZ         1.2870   25.6770  -10.6140 C.ar  209  TYR209      0.1957
    197  OH         2.4820   25.2990  -10.0330 O.3   209  TYR209     -0.2866
    198  N          2.7230   36.2580  -11.8150 N.3   216  GLN216     -0.1231
    199  CA         2.8290   36.1840  -13.2860 C.3   216  GLN216      0.1698
    200  C          1.5750   36.7230  -13.9790 C.2   216  GLN216      0.2592
    201  O          0.4670   36.4970  -13.5090 O.2   216  GLN216     -0.2718
    202  CB         3.0820   34.7290  -13.7550 C.3   216  GLN216      0.0381
    203  CG         4.5020   34.2150  -13.5240 C.3   216  GLN216      0.0905
    204  CD         4.6390   32.6950  -13.6780 C.2   216  GLN216      0.2608
    205  OE1        4.2200   31.9240  -12.8030 O.2   216  GLN216     -0.2717
    206  NE2        5.2280   32.2570  -14.7920 N.am  216  GLN216     -0.0878
    207  N          1.7670   37.4320  -15.0950 N.am  217  LYS217     -0.1966
    208  CA         0.6560   37.9250  -15.9110 C.3   217  LYS217      0.1728
    209  C         -0.0210   36.7320  -16.5650 C.2   217  LYS217      0.2616
    210  O          0.6630   35.7890  -16.9900 O.2   217  LYS217     -0.2715
    211  CB         1.1540   38.8350  -17.0250 C.3   217  LYS217      0.0311
    212  CG         1.9600   40.0380  -16.5850 C.3   217  LYS217      0.0038
    213  CD         1.2190   41.3460  -16.7790 C.3   217  LYS217      0.0206
    214  CE         2.1390   42.4720  -16.3670 C.3   217  LYS217      0.1093
    215  NZ         1.5130   43.8000  -16.5740 N.3   217  LYS217     -0.1314
    216  N         -1.3490   36.7810  -16.6420 N.am  218  CYS218     -0.1954
    217  CA        -2.1480   35.7070  -17.2230 C.3   218  CYS218      0.1843
    218  C         -2.5100   36.0500  -18.6600 C.2   218  CYS218      0.2625
    219  O         -3.1050   37.0980  -18.9160 O.2   218  CYS218     -0.2714
    220  CB        -3.4390   35.5040  -16.4290 C.3   218  CYS218      0.0997
    221  SG        -4.5140   34.2360  -17.1390 S.3   218  CYS218     -0.0797
    222  N         -2.1520   35.1690  -19.5930 N.am  219  PHE219     -0.1960
    223  CA        -2.5540   35.3080  -21.0010 C.3   219  PHE219      0.1771
    224  C         -3.6310   34.2900  -21.4300 C.2   219  PHE219      0.2619
    225  O         -3.6200   33.8320  -22.5730 O.2   219  PHE219     -0.2715
    226  CB        -1.3260   35.1820  -21.9070 C.3   219  PHE219      0.0574
    227  CG        -0.1590   36.0240  -21.4770 C.ar  219  PHE219     -0.0200
    228  CD1       -0.2970   37.3860  -21.3210 C.ar  219  PHE219     -0.0042
    229  CD2        1.0800   35.4450  -21.2280 C.ar  219  PHE219     -0.0042
    230  CE1        0.7770   38.1690  -20.9240 C.ar  219  PHE219     -0.0003
    231  CE2        2.1570   36.2110  -20.8330 C.ar  219  PHE219     -0.0003
    232  CZ         2.0050   37.5810  -20.6800 C.ar  219  PHE219     -0.0000
    233  N         -4.5570   33.9320  -20.5310 N.am  220  CYS220     -0.1968
    234  CA        -5.6070   32.9460  -20.8620 C.3   220  CYS220      0.1712
    235  C         -6.5590   33.4410  -21.9430 C.2   220  CYS220      0.2296
    236  O         -7.2450   32.6490  -22.5860 O.2   220  CYS220     -0.2864
    237  CB        -6.3830   32.4550  -19.6130 C.3   220  CYS220      0.0983
    238  SG        -7.6330   33.5140  -18.8190 S.3   220  CYS220     -0.0798
    239  N         -1.6940   34.9900  -12.4440 N.3   229  LEU229     -0.1245
    240  CA        -1.8210   33.6280  -11.9230 C.3   229  LEU229      0.1561
    241  C         -1.6650   33.6740  -10.4020 C.2   229  LEU229      0.2260
    242  O         -1.0900   34.6350   -9.8690 O.2   229  LEU229     -0.2867
    243  CB        -0.7610   32.7120  -12.5480 C.3   229  LEU229      0.0270
    244  CG        -0.6180   32.6800  -14.0860 C.3   229  LEU229      0.0019
    245  CD1        0.6610   31.9740  -14.5210 C.3   229  LEU229      0.0001
    246  CD2       -1.8130   32.0090  -14.7340 C.3   229  LEU229      0.0001
@<TRIPOS>BOND
     1    36    35   ar
     2    36    34   ar
     3    35    33   ar
     4    34    32   ar
     5    33    30   ar
     6    32    30   ar
     7    32    31   ar
     8    30    28   ar
     9    31    29   ar
    10     1     2    1
    11     8     9    1
    12     8     7    1
    13     6     7    1
    14     6     5    1
    15    28    29   ar
    16    28    27    1
    17    22    21    2
    18     2     5    1
    19     2     3    1
    20    27    24    1
    21    24    23    1
    22    24    25    1
    23    21    23   am
    24    21    20    1
    25    25    26    2
    26     3    10   am
    27     3     4    2
    28    10    11    1
    29    20    19    1
    30    19    12   am
    31    18    17    1
    32    17    16    1
    33   236   235    2
    34   225   224    2
    35    11    12    1
    36    11    14    1
    37    15    14    1
    38    15    16    1
    39    12    13    2
    40   153   151   am
    41   235   234    1
    42   226   227    1
    43   226   223    1
    44   136   134   ar
    45   136   137   ar
    46   134   132   ar
    47   137   135   ar
    48   132   131    1
    49   132   133   ar
    50   227   228   ar
    51   227   229   ar
    52   135   133   ar
    53   131   128    1
    54   224   223    1
    55   224   233   am
    56   228   230   ar
    57   229   231   ar
    58   223   222    1
    59   230   232   ar
    60   234   233    1
    61   234   237    1
    62   130   129    2
    63   231   232   ar
    64   151   150    1
    65   151   152    2
    66   150   147    1
    67   128   129    1
    68   128   127    1
    69   129   138   am
    70    66    65   ar
    71    66    64   ar
    72   237   238    1
    73   222   218   am
    74    65    63   ar
    75    56    54    1
    76   146   147    1
    77   146   140   am
    78   138   139    1
    79   127   118   am
    80   219   218    2
    81    64    62   ar
    82   139   140    1
    83   139   142    1
    84   147   148    1
    85   218   217    1
    86   157   156    2
    87   144   145    1
    88   144   143    1
    89   125   124    1
    90   110   111    1
    91   140   141    2
    92    63    62   ar
    93   149   148    2
    94   148   154   am
    95    54    53    1
    96   142   143    1
    97   118   119    2
    98   118   117    1
    99    62    61    1
   100    55    53    1
   101    90    89    1
   102   111   112    1
   103   111   114    1
   104   121   122    1
   105   121   120    1
   106   156   155    1
   107    53    50    1
   108   154   155    1
   109   122   123    1
   110   124   123    2
   111   124   126    1
   112   112   113    2
   113   112   116   am
   114   217   216    1
   115   217   220    1
   116   221   220    1
   117   116   117    1
   118   211   212    1
   119   211   208    1
   120   210   209    2
   121   213   212    1
   122   213   214    1
   123   175   176    1
   124   117   120    1
   125   216   209   am
   126   155   158    1
   127   215   214    1
   128   209   208    1
   129    89    87   ar
   130    89    88   ar
   131    61    58    1
   132   114   115    1
   133    87    85   ar
   134   208   207    1
   135   167   166    2
   136    50    49    1
   137    50    51    1
   138   158   159    1
   139   168   169    1
   140   168   165    1
   141    57    58    1
   142    57    51   am
   143   176   179    1
   144   176   177    1
   145    88    86   ar
   146    58    59    1
   147   161   159   ar
   148   161   163   ar
   149    51    52    2
   150   166   165    1
   151   207   200   am
   152   171   169   ar
   153   171   173   ar
   154    85    84   ar
   155   159   160   ar
   156   178   177    2
   157   169   170   ar
   158   182   184   ar
   159   182   180   ar
   160   206   204   am
   161   246   244    1
   162   179   180    1
   163   165   164    1
   164   245   244    1
   165   173   174   ar
   166   184   185   ar
   167   163   162   ar
   168   170   172   ar
   169   180   181   ar
   170   244   243    1
   171    86    84   ar
   172   160   162   ar
   173   200   201    2
   174   200   199    1
   175    59    67   am
   176    59    60    2
   177    84    83    1
   178   174   172   ar
   179   202   203    1
   180   202   199    1
   181   204   203    1
   182   204   205    2
   183    67    68    1
   184   199   198    1
   185    37    38    1
   186   185   183   ar
   187    38    41    1
   188    38    39    1
   189    43    45   ar
   190    43    42   ar
   191   181   183   ar
   192    70    69    2
   193    83    80    1
   194   243   240    1
   195   239   240    1
   196    45    47   ar
   197   190   191    1
   198   190   187    1
   199   193   195   ar
   200   193   191   ar
   201    41    42    1
   202    69    68    1
   203    69    79   am
   204    68    71    1
   205   186   187    1
   206    39    40    2
   207   240   241    1
   208    80    79    1
   209    80    81    1
   210    42    44   ar
   211   195   196   ar
   212   191   192   ar
   213   187   188    1
   214    47    48    1
   215    47    46   ar
   216    71    72    1
   217    73    72   ar
   218    73    75   ar
   219   196   194   ar
   220   196   197    1
   221   192   194   ar
   222    72    74   ar
   223    44    46   ar
   224    81    82    2
   225    81    91   am
   226   241   242    2
   227    75    77   ar
   228   189   188    2
   229   109   108    1
   230    91    92    1
   231    74    76   ar
   232    77    76   ar
   233    77    78    1
   234   108   107    1
   235    94    93    2
   236    92    93    1
   237    92    95    1
   238    93   102   am
   239   106   107    1
   240   106   103    1
   241    95    96    1
   242    98    96   ar
   243    98   100   ar
   244   102   103    1
   245    96    97   ar
   246   100   101   ar
   247   103   104    1
   248    97    99   ar
   249   101    99   ar
   250   104   105    2
