@<TRIPOS>MOLECULE
tmp/5lt6A00.pdb
 228 227 0 0 0
SMALL
GASTEIGER

@<TRIPOS>ATOM
      1  N         16.3000    8.7920   77.5630 N.3    25  PRO25      -0.2116
      2  CA        15.5600    8.7760   76.2920 C.3    25  PRO25       0.1372
      3  C         15.0610    7.3740   75.9530 C.2    25  PRO25       0.2244
      4  O         15.5620    6.3620   76.4640 O.2    25  PRO25      -0.2868
      5  CB        16.6060    9.2120   75.2510 C.3    25  PRO25       0.0268
      6  CG        17.7650    9.6360   75.9580 C.3    25  PRO25       0.0207
      7  CD        17.7120    9.1750   77.3610 C.3    25  PRO25       0.0892
      8  N         12.0410   22.1780   75.5280 N.3   103  LYS103     -0.1231
      9  CA        11.1230   22.1680   74.3760 C.3   103  LYS103      0.1693
     10  C         11.5320   21.2500   73.2620 C.2   103  LYS103      0.2592
     11  O         10.7070   20.9750   72.3910 O.2   103  LYS103     -0.2718
     12  CB        10.8920   23.6060   73.8260 C.3   103  LYS103      0.0285
     13  CG        10.1690   24.5380   74.7830 C.3   103  LYS103      0.0035
     14  CD         9.5920   25.7440   74.0780 C.3   103  LYS103      0.0206
     15  CE         8.1060   25.5710   73.8350 C.3   103  LYS103      0.1093
     16  NZ         7.4420   26.8740   73.5500 N.3   103  LYS103     -0.1314
     17  N         12.7800   20.7450   73.2610 N.am  104  LYS104     -0.1966
     18  CA        13.2870   19.9920   72.1250 C.3   104  LYS104      0.1728
     19  C         13.5370   18.5050   72.3880 C.2   104  LYS104      0.2617
     20  O         14.2400   17.8910   71.5970 O.2   104  LYS104     -0.2715
     21  CB        14.5840   20.6130   71.5610 C.3   104  LYS104      0.0311
     22  CG        14.4880   22.0870   71.1390 C.3   104  LYS104      0.0038
     23  CD        15.8740   22.6120   70.8040 C.3   104  LYS104      0.0206
     24  CE        16.6760   22.8210   72.0730 C.3   104  LYS104      0.1093
     25  NZ        17.9240   23.5530   71.8200 N.3   104  LYS104     -0.1314
     26  N         12.9840   17.9500   73.4500 N.am  105  GLY105     -0.1940
     27  CA        13.2290   16.5700   73.8500 C.3   105  GLY105      0.2014
     28  C         14.6020   16.4330   74.4680 C.2   105  GLY105      0.2638
     29  O         15.1010   17.3670   75.0980 O.2   105  GLY105     -0.2714
     30  N         15.2280   15.2760   74.2640 N.am  106  TRP106     -0.1973
     31  CA        16.5730   14.9860   74.7400 C.3   106  TRP106      0.1640
     32  C         17.5670   15.6560   73.7870 C.2   106  TRP106      0.2290
     33  O         17.3010   15.7980   72.5750 O.2   106  TRP106     -0.2864
     34  CB        16.7920   13.4660   74.9030 C.3   106  TRP106      0.0576
     35  CG        15.9080   12.8840   75.9810 C.ar  106  TRP106      0.0006
     36  CD1       14.6160   12.4630   75.8390 C.ar  106  TRP106      0.0946
     37  CD2       16.2420   12.6870   77.3720 C.ar  106  TRP106      0.0152
     38  NE1       14.1240   12.0260   77.0440 N.ar  106  TRP106     -0.2442
     39  CE2       15.0940   12.1580   78.0030 C.ar  106  TRP106      0.0810
     40  CE3       17.3950   12.9200   78.1440 C.ar  106  TRP106      0.0012
     41  CZ2       15.0670   11.8450   79.3740 C.ar  106  TRP106      0.0191
     42  CZ3       17.3710   12.6110   79.4990 C.ar  106  TRP106      0.0001
     43  CH2       16.2180   12.0930   80.1010 C.ar  106  TRP106      0.0015
     44  N         28.7380   10.3020   63.3080 N.3   123  TYR123     -0.1241
     45  CA        27.3810   10.0670   62.8520 C.3   123  TYR123      0.1605
     46  C         27.2770    8.5660   62.4300 C.2   123  TYR123      0.2264
     47  O         27.6890    8.1980   61.3040 O.2   123  TYR123     -0.2867
     48  CB        27.1380   10.9930   61.6400 C.3   123  TYR123      0.0534
     49  CG        25.7000   11.1540   61.1990 C.ar  123  TYR123     -0.0201
     50  CD1       25.1130   12.4150   61.1310 C.ar  123  TYR123     -0.0009
     51  CD2       24.9530   10.0590   60.7560 C.ar  123  TYR123     -0.0009
     52  CE1       23.7990   12.5840   60.6620 C.ar  123  TYR123      0.0417
     53  CE2       23.6360   10.2100   60.3160 C.ar  123  TYR123      0.0417
     54  CZ        23.0570   11.4750   60.2760 C.ar  123  TYR123      0.1957
     55  OH        21.7540   11.6420   59.8420 O.3   123  TYR123     -0.2866
     56  N         10.4250    9.6370   62.0120 N.3   147  HIS147     -0.1241
     57  CA        11.2430   10.8240   61.7360 C.3   147  HIS147      0.1621
     58  C         12.5680   10.3170   61.1310 C.2   147  HIS147      0.2264
     59  O         13.4200    9.8030   61.8660 O.2   147  HIS147     -0.2867
     60  CB        11.5190   11.6360   63.0290 C.3   147  HIS147      0.0745
     61  CG        10.3270   11.9680   63.8930 C.ar  147  HIS147      0.0817
     62  ND1        9.0440   11.4720   63.6260 N.ar  147  HIS147     -0.2268
     63  CD2       10.2680   12.7420   65.0040 C.ar  147  HIS147      0.1154
     64  CE1        8.2650   11.9630   64.5770 C.ar  147  HIS147      0.1986
     65  NE2        8.9540   12.7300   65.4310 N.ar  147  HIS147     -0.2212
     66  N         16.2230   10.1720   59.2660 N.3   149  TYR149     -0.1241
     67  CA        17.4720   10.9070   59.2670 C.3   149  TYR149      0.1605
     68  C         18.4880   10.1890   58.3660 C.2   149  TYR149      0.2264
     69  O         18.8390    9.0450   58.6220 O.2   149  TYR149     -0.2867
     70  CB        17.9160   11.1860   60.7370 C.3   149  TYR149      0.0534
     71  CG        17.0640   12.3210   61.2920 C.ar  149  TYR149     -0.0201
     72  CD1       17.2720   13.6370   60.8840 C.ar  149  TYR149     -0.0009
     73  CD2       15.9920   12.0670   62.1490 C.ar  149  TYR149     -0.0009
     74  CE1       16.4530   14.6770   61.3310 C.ar  149  TYR149      0.0417
     75  CE2       15.1710   13.1040   62.6130 C.ar  149  TYR149      0.0417
     76  CZ        15.4090   14.4090   62.2010 C.ar  149  TYR149      0.1957
     77  OH        14.6320   15.4630   62.6320 O.3   149  TYR149     -0.2866
     78  N         20.3370    6.7630   60.2040 N.3   161  ALA161     -0.1245
     79  CA        20.3420    6.8160   61.6770 C.3   161  ALA161      0.1562
     80  C         18.9080    6.7410   62.3300 C.2   161  ALA161      0.2260
     81  O         18.7930    6.8490   63.5550 O.2   161  ALA161     -0.2867
     82  CB        21.0820    8.0490   62.1640 C.3   161  ALA161      0.0290
     83  N         24.7840   10.5960   68.9190 N.3   168  SER168     -0.1202
     84  CA        24.6240   11.6900   67.9470 C.3   168  SER168      0.2020
     85  C         23.1720   11.8210   67.4750 C.2   168  SER168      0.2619
     86  O         22.8060   12.8890   66.9660 O.2   168  SER168     -0.2717
     87  CB        25.6000   11.5530   66.7770 C.3   168  SER168      0.2103
     88  OG        25.1340   10.5600   65.8810 O.3   168  SER168     -0.2182
     89  N         22.3340   10.7330   67.6610 N.am  169  ARG169     -0.1965
     90  CA        20.8440   10.8670   67.5760 C.3   169  ARG169      0.1729
     91  C         20.2370   11.9640   68.4330 C.2   169  ARG169      0.2616
     92  O         19.1720   12.4540   68.0970 O.2   169  ARG169     -0.2715
     93  CB        20.1060    9.5570   67.8780 C.3   169  ARG169      0.0348
     94  CG        20.6640    8.4310   67.0140 C.3   169  ARG169      0.0492
     95  CD        19.6560    7.4370   66.4940 C.3   169  ARG169      0.2205
     96  NE        18.4360    7.3250   67.2940 N.pl3 169  ARG169     -0.0865
     97  CZ        17.4600    6.4820   67.0060 C.cat 169  ARG169      0.5346
     98  NH1       17.5690    5.6670   65.9650 N.pl3 169  ARG169      0.1354
     99  NH2       16.3730    6.4280   67.7650 N.pl3 169  ARG169      0.1354
    100  N         20.8860   12.3410   69.5150 N.am  170  PHE170     -0.1960
    101  CA        20.3850   13.4050   70.4140 C.3   170  PHE170      0.1771
    102  C         20.8170   14.7970   70.0350 C.2   170  PHE170      0.2619
    103  O         20.4170   15.7090   70.7040 O.2   170  PHE170     -0.2715
    104  CB        20.7640   13.0920   71.8950 C.3   170  PHE170      0.0574
    105  CG        20.2300   11.7180   72.2020 C.ar  170  PHE170     -0.0200
    106  CD1       18.8690   11.4570   72.1430 C.ar  170  PHE170     -0.0042
    107  CD2       21.0930   10.6760   72.5010 C.ar  170  PHE170     -0.0042
    108  CE1       18.3900   10.1890   72.3830 C.ar  170  PHE170     -0.0003
    109  CE2       20.6040    9.4030   72.7410 C.ar  170  PHE170     -0.0003
    110  CZ        19.2550    9.1720   72.6900 C.ar  170  PHE170     -0.0000
    111  N         21.6330   14.9760   68.9890 N.am  171  MET171     -0.1963
    112  CA        22.0980   16.2890   68.5140 C.3   171  MET171      0.1736
    113  C         20.9440   17.1020   67.9250 C.2   171  MET171      0.2616
    114  O         20.4540   16.7690   66.8320 O.2   171  MET171     -0.2715
    115  CB        23.1300   16.1010   67.3890 C.3   171  MET171      0.0427
    116  CG        24.5610   15.7220   67.8330 C.3   171  MET171      0.0599
    117  SD        25.7320   17.0600   68.0700 S.3   171  MET171     -0.1393
    118  CE        25.2790   18.2300   66.8520 C.3   171  MET171      0.0692
    119  N         20.4980   18.1780   68.6430 N.am  172  ASN172     -0.1958
    120  CA        19.3670   18.9720   68.1740 C.3   172  ASN172      0.1819
    121  C         19.8010   19.9810   67.0610 C.2   172  ASN172      0.2621
    122  O         20.9940   20.1550   66.7880 O.2   172  ASN172     -0.2715
    123  CB        18.5950   19.6550   69.3050 C.3   172  ASN172      0.1195
    124  CG        17.7260   18.7100   70.0720 C.2   172  ASN172      0.2630
    125  OD1       17.0470   17.8590   69.5090 O.2   172  ASN172     -0.2716
    126  ND2       17.8370   18.7420   71.3890 N.am  172  ASN172     -0.0877
    127  N         18.8120   20.5980   66.4360 N.am  173  HIS173     -0.1973
    128  CA        19.0340   21.5020   65.3490 C.3   173  HIS173      0.1656
    129  C         19.1980   22.8530   65.9030 C.2   173  HIS173      0.2291
    130  O         18.5170   23.2150   66.8440 O.2   173  HIS173     -0.2864
    131  CB        17.8290   21.5370   64.3790 C.3   173  HIS173      0.0771
    132  CG        17.8390   22.7340   63.4720 C.ar  173  HIS173      0.0820
    133  ND1       18.6240   22.7610   62.3350 N.ar  173  HIS173     -0.2267
    134  CD2       17.1810   23.9090   63.5760 C.ar  173  HIS173      0.1154
    135  CE1       18.3960   23.9390   61.7740 C.ar  173  HIS173      0.1986
    136  NE2       17.5300   24.6640   62.4930 N.ar  173  HIS173     -0.2212
    137  N         30.6920   14.6940   63.7800 N.3   194  PHE194     -0.1241
    138  CA        30.3490   16.0460   64.2570 C.3   194  PHE194      0.1605
    139  C         31.5850   16.6550   64.8360 C.2   194  PHE194      0.2264
    140  O         32.2840   16.0120   65.6310 O.2   194  PHE194     -0.2867
    141  CB        29.2670   15.9570   65.3530 C.3   194  PHE194      0.0534
    142  CG        27.9630   15.4760   64.7570 C.ar  194  PHE194     -0.0203
    143  CD1       27.1110   16.3560   64.1050 C.ar  194  PHE194     -0.0042
    144  CD2       27.5960   14.1230   64.8320 C.ar  194  PHE194     -0.0042
    145  CE1       25.9150   15.9000   63.5390 C.ar  194  PHE194     -0.0003
    146  CE2       26.4210   13.6780   64.2640 C.ar  194  PHE194     -0.0003
    147  CZ        25.5680   14.5690   63.6330 C.ar  194  PHE194     -0.0000
    148  N         23.5850   21.1930   65.5820 N.3   208  PHE208     -0.1241
    149  CA        24.0300   21.3540   64.2000 C.3   208  PHE208      0.1605
    150  C         22.9050   21.8350   63.2990 C.2   208  PHE208      0.2264
    151  O         21.7250   21.8250   63.6880 O.2   208  PHE208     -0.2867
    152  CB        24.7380   20.0750   63.6670 C.3   208  PHE208      0.0534
    153  CG        23.9060   18.9160   63.1680 C.ar  208  PHE208     -0.0203
    154  CD1       23.7750   18.6720   61.8030 C.ar  208  PHE208     -0.0042
    155  CD2       23.2840   18.0560   64.0520 C.ar  208  PHE208     -0.0042
    156  CE1       23.0390   17.5900   61.3290 C.ar  208  PHE208     -0.0003
    157  CE2       22.5460   16.9570   63.5870 C.ar  208  PHE208     -0.0003
    158  CZ        22.4190   16.7360   62.2240 C.ar  208  PHE208     -0.0000
    159  N         20.4900   21.1760   60.5680 N.3   210  TYR210     -0.1241
    160  CA        19.8920   19.9990   59.9060 C.3   210  TYR210      0.1605
    161  C         19.8170   20.0730   58.3650 C.2   210  TYR210      0.2264
    162  O         19.6070   19.0400   57.7320 O.2   210  TYR210     -0.2867
    163  CB        18.4590   19.7120   60.4470 C.3   210  TYR210      0.0534
    164  CG        18.4020   19.0050   61.7980 C.ar  210  TYR210     -0.0201
    165  CD1       17.2140   18.4380   62.2600 C.ar  210  TYR210     -0.0009
    166  CD2       19.5300   18.9310   62.6300 C.ar  210  TYR210     -0.0009
    167  CE1       17.1500   17.8040   63.5000 C.ar  210  TYR210      0.0417
    168  CE2       19.4700   18.2980   63.8790 C.ar  210  TYR210      0.0417
    169  CZ        18.2710   17.7590   64.3100 C.ar  210  TYR210      0.1957
    170  OH        18.1810   17.1600   65.5270 O.3   210  TYR210     -0.2866
    171  N         21.9620   17.4630   56.1270 N.3   213  GLN213     -0.1245
    172  CA        21.5580   16.0570   56.0470 C.3   213  GLN213      0.1566
    173  C         20.2340   15.9740   55.2510 C.2   213  GLN213      0.2260
    174  O         19.6500   17.0200   54.9140 O.2   213  GLN213     -0.2867
    175  CB        21.4640   15.4340   57.4630 C.3   213  GLN213      0.0367
    176  CG        20.1960   15.7760   58.1800 C.3   213  GLN213      0.0905
    177  CD        20.1580   15.4200   59.6300 C.2   213  GLN213      0.2608
    178  OE1       20.8420   14.5190   60.1640 O.2   213  GLN213     -0.2717
    179  NE2       19.2590   16.0960   60.2740 N.am  213  GLN213     -0.0878
    180  N          9.2370   20.6260   61.1870 N.3   220  GLN220     -0.1231
    181  CA         9.0360   20.9320   62.6140 C.3   220  GLN220      0.1698
    182  C          9.2780   22.4340   62.8950 C.2   220  GLN220      0.2592
    183  O         10.2160   23.0200   62.3370 O.2   220  GLN220     -0.2718
    184  CB         9.8990   19.9740   63.4930 C.3   220  GLN220      0.0381
    185  CG        10.1650   20.4080   64.9480 C.3   220  GLN220      0.0905
    186  CD         9.0370   20.1760   65.9450 C.2   220  GLN220      0.2608
    187  OE1        8.5250   19.0600   66.0900 O.2   220  GLN220     -0.2717
    188  NE2        8.7090   21.2030   66.7520 N.am  220  GLN220     -0.0878
    189  N          8.4270   23.0500   63.7390 N.am  221  LYS221     -0.1966
    190  CA         8.6970   24.3870   64.2780 C.3   221  LYS221      0.1728
    191  C          9.9980   24.4030   65.1200 C.2   221  LYS221      0.2616
    192  O         10.2820   23.4450   65.8430 O.2   221  LYS221     -0.2715
    193  CB         7.5340   24.8860   65.1250 C.3   221  LYS221      0.0311
    194  CG         7.5650   26.3930   65.3630 C.3   221  LYS221      0.0038
    195  CD         6.1540   26.9790   65.5000 C.3   221  LYS221      0.0206
    196  CE         5.4330   27.1380   64.1710 C.3   221  LYS221      0.1093
    197  NZ         4.0010   27.5100   64.3430 N.3   221  LYS221     -0.1314
    198  N         10.7600   25.5080   65.0270 N.am  222  CYS222     -0.1954
    199  CA        12.0980   25.5570   65.5820 C.3   222  CYS222      0.1843
    200  C         12.2090   26.2930   66.8970 C.2   222  CYS222      0.2625
    201  O         11.9430   27.4910   66.9750 O.2   222  CYS222     -0.2714
    202  CB        13.0920   26.0970   64.5680 C.3   222  CYS222      0.0997
    203  SG        14.7920   26.0780   65.1730 S.3   222  CYS222     -0.0797
    204  N         12.6480   25.5630   67.9410 N.am  223  PHE223     -0.1960
    205  CA        12.8690   26.1890   69.2420 C.3   223  PHE223      0.1771
    206  C         14.3540   26.4190   69.5430 C.2   223  PHE223      0.2619
    207  O         14.7070   26.4680   70.7050 O.2   223  PHE223     -0.2715
    208  CB        12.1500   25.4140   70.3810 C.3   223  PHE223      0.0574
    209  CG        10.7040   25.0770   70.0570 C.ar  223  PHE223     -0.0200
    210  CD1        9.7450   26.0800   69.9370 C.ar  223  PHE223     -0.0042
    211  CD2       10.3150   23.7620   69.8340 C.ar  223  PHE223     -0.0042
    212  CE1        8.4200   25.7730   69.6060 C.ar  223  PHE223     -0.0003
    213  CE2        8.9830   23.4520   69.5090 C.ar  223  PHE223     -0.0003
    214  CZ         8.0440   24.4610   69.4040 C.ar  223  PHE223     -0.0000
    215  N         15.2260   26.5670   68.5160 N.am  224  CYS224     -0.1968
    216  CA        16.6640   26.8000   68.7550 C.3   224  CYS224      0.1712
    217  C         16.9680   28.0950   69.5800 C.2   224  CYS224      0.2296
    218  O         18.0030   28.1490   70.2640 O.2   224  CYS224     -0.2864
    219  CB        17.4600   26.7600   67.4520 C.3   224  CYS224      0.0983
    220  SG        17.4410   28.3060   66.5150 S.3   224  CYS224     -0.0798
    221  N         12.6480   23.7920   61.0110 N.3   233  LEU233     -0.1245
    222  CA        13.5510   22.7580   60.4480 C.3   233  LEU233      0.1561
    223  C         12.7590   21.7820   59.4860 C.2   233  LEU233      0.2260
    224  O         12.1350   20.7990   59.9270 O.2   233  LEU233     -0.2867
    225  CB        14.3120   21.9440   61.5320 C.3   233  LEU233      0.0270
    226  CG        13.5210   21.4020   62.7610 C.3   233  LEU233      0.0019
    227  CD1       13.9990   20.0130   63.1610 C.3   233  LEU233      0.0001
    228  CD2       13.6180   22.3610   63.9350 C.3   233  LEU233      0.0001
@<TRIPOS>BOND
     1   174   173    2
     2   173   172    1
     3   172   171    1
     4   172   175    1
     5   175   176    1
     6   162   161    2
     7   176   177    1
     8   161   160    1
     9    68    69    2
    10    68    67    1
    11    66    67    1
    12    67    70    1
    13   223   224    2
    14   223   222    1
    15   177   178    2
    16   177   179   am
    17    55    54    1
    18   160   163    1
    19   160   159    1
    20    78    79    1
    21    54    53   ar
    22    54    52   ar
    23    53    51   ar
    24   163   164    1
    25   222   221    1
    26   222   225    1
    27    52    50   ar
    28    70    71    1
    29    51    49   ar
    30    72    71   ar
    31    72    74   ar
    32    58    57    1
    33    58    59    2
    34    50    49   ar
    35   180   181    1
    36    49    48    1
    37    71    73   ar
    38    47    46    2
    39   156   154   ar
    40   156   158   ar
    41    74    76   ar
    42   225   226    1
    43    48    45    1
    44    79    82    1
    45    79    80    1
    46    57    56    1
    47    57    60    1
    48   135   133   ar
    49   135   136   ar
    50   164   165   ar
    51   164   166   ar
    52   154   153   ar
    53    73    75   ar
    54    76    75   ar
    55    76    77    1
    56   158   157   ar
    57   165   167   ar
    58    80    81    2
    59   133   132   ar
    60   183   182    2
    61    46    45    1
    62   136   134   ar
    63   181   182    1
    64   181   184    1
    65   166   168   ar
    66   226   227    1
    67   226   228    1
    68    45    44    1
    69   182   189   am
    70    60    61    1
    71   153   152    1
    72   153   155   ar
    73   150   151    2
    74   150   149    1
    75   132   134   ar
    76   132   131    1
    77   184   185    1
    78   167   169   ar
    79   145   147   ar
    80   145   143   ar
    81   157   155   ar
    82    62    61   ar
    83    62    64   ar
    84   147   146   ar
    85   152   149    1
    86   189   190    1
    87   137   138    1
    88   168   169   ar
    89    61    63   ar
    90   143   142   ar
    91   196   197    1
    92   196   195    1
    93   149   148    1
    94   138   139    1
    95   138   141    1
    96   146   144   ar
    97   190   191    1
    98   190   193    1
    99   169   170    1
   100   131   128    1
   101   202   203    1
   102   202   199    1
   103    64    65   ar
   104   142   144   ar
   105   142   141    1
   106   139   140    2
   107   185   186    1
   108    63    65   ar
   109   198   191   am
   110   198   199    1
   111   191   192    2
   112   193   194    1
   113   128   129    1
   114   128   127    1
   115   194   195    1
   116   199   200    1
   117    88    87    1
   118   129   130    2
   119   186   187    2
   120   186   188   am
   121    98    97    1
   122   127   121   am
   123    95    94    1
   124    95    96    1
   125   220   219    1
   126    87    84    1
   127   122   121    2
   128   114   113    2
   129   118   117    1
   130   200   201    2
   131   200   204   am
   132    86    85    2
   133    97    96    2
   134    97    99    1
   135    94    93    1
   136   121   120    1
   137   115   116    1
   138   115   112    1
   139   219   216    1
   140    85    89   am
   141    85    84    1
   142    90    89    1
   143    90    93    1
   144    90    91    1
   145   116   117    1
   146   113   112    1
   147   113   119   am
   148   204   205    1
   149    84    83    1
   150    92    91    2
   151   120   119    1
   152   120   123    1
   153    91   100   am
   154   112   111    1
   155   215   216    1
   156   215   206   am
   157   216   217    1
   158   111   102   am
   159   205   206    1
   160   205   208    1
   161   123   124    1
   162   214   213   ar
   163   214   212   ar
   164   213   211   ar
   165   125   124    2
   166   100   101    1
   167   206   207    2
   168   217   218    2
   169   212   210   ar
   170   211   209   ar
   171   210   209   ar
   172   102   101    1
   173   102   103    2
   174   209   208    1
   175   124   126   am
   176   101   104    1
   177    23    22    1
   178    23    24    1
   179    22    21    1
   180    21    18    1
   181    20    19    2
   182    25    24    1
   183   104   105    1
   184    18    19    1
   185    18    17    1
   186   106   105   ar
   187   106   108   ar
   188   105   107   ar
   189   108   110   ar
   190    19    26   am
   191    11    10    2
   192   107   109   ar
   193    33    32    2
   194   110   109   ar
   195    17    10   am
   196    10     9    1
   197    26    27    1
   198    16    15    1
   199    32    31    1
   200    12     9    1
   201    12    13    1
   202    15    14    1
   203    27    28    1
   204    14    13    1
   205    30    28   am
   206    30    31    1
   207     9     8    1
   208    28    29    2
   209    31    34    1
   210    34    35    1
   211     5     6    1
   212     5     2    1
   213    36    35   ar
   214    36    38   ar
   215     3     2    1
   216     3     4    2
   217     6     7    1
   218    35    37   ar
   219     2     1    1
   220    38    39   ar
   221     7     1    1
   222    37    39   ar
   223    37    40   ar
   224    39    41   ar
   225    40    42   ar
   226    41    43   ar
   227    42    43   ar
