@<TRIPOS>MOLECULE
tmp/5lt8A00.pdb
 199 202 0 0 0
SMALL
GASTEIGER

@<TRIPOS>ATOM
      1  N         -1.7370   36.0330   12.5190 N.3   103  LYS103     -0.1231
      2  CA        -0.5610   36.7460   13.0430 C.3   103  LYS103      0.1693
      3  C          0.3210   36.0220   14.0220 C.2   103  LYS103      0.2592
      4  O          1.2660   36.6290   14.5280 O.2   103  LYS103     -0.2718
      5  CB        -1.0350   38.0170   13.8110 C.3   103  LYS103      0.0285
      6  CG        -2.1320   38.8260   13.2190 C.3   103  LYS103      0.0035
      7  CD        -2.2940   40.0960   14.0490 C.3   103  LYS103      0.0206
      8  CE        -3.5350   40.8520   13.6320 C.3   103  LYS103      0.1093
      9  NZ        -3.5390   42.2320   14.1700 N.3   103  LYS103     -0.1314
     10  N          0.0570   34.7430   14.3180 N.am  104  LYS104     -0.1966
     11  CA         0.7920   34.0220   15.3500 C.3   104  LYS104      0.1728
     12  C          1.6600   32.9000   14.7790 C.2   104  LYS104      0.2617
     13  O          2.3280   32.1920   15.5360 O.2   104  LYS104     -0.2715
     14  CB        -0.1810   33.4270   16.3770 C.3   104  LYS104      0.0311
     15  CG        -1.0480   34.4810   17.0530 C.3   104  LYS104      0.0038
     16  CD        -2.1030   33.8870   17.9510 C.3   104  LYS104      0.0206
     17  CE        -3.1310   33.1050   17.1640 C.3   104  LYS104      0.1093
     18  NZ        -4.3700   32.8800   17.9360 N.3   104  LYS104     -0.1314
     19  N          1.6460   32.7480   13.4510 N.am  105  GLY105     -0.1940
     20  CA         2.2080   31.5470   12.8490 C.3   105  GLY105      0.2014
     21  C          1.1820   30.4310   12.7620 C.2   105  GLY105      0.2638
     22  O         -0.0260   30.6530   12.6400 O.2   105  GLY105     -0.2714
     23  N          1.6670   29.2020   12.8250 N.am  106  TRP106     -0.1973
     24  CA         0.7590   28.0670   12.7950 C.3   106  TRP106      0.1640
     25  C          0.1930   27.8450   14.1990 C.2   106  TRP106      0.2290
     26  O          0.7850   28.2470   15.1990 O.2   106  TRP106     -0.2864
     27  CB         1.5230   26.8360   12.2430 C.3   106  TRP106      0.0576
     28  CG         1.8980   27.0200   10.8340 C.ar  106  TRP106      0.0006
     29  CD1        2.9580   27.7240   10.3570 C.ar  106  TRP106      0.0946
     30  CD2        1.2230   26.5010    9.6950 C.ar  106  TRP106      0.0152
     31  NE1        2.9890   27.6750    8.9950 N.ar  106  TRP106     -0.2442
     32  CE2        1.9300   26.9290    8.5580 C.ar  106  TRP106      0.0810
     33  CE3        0.0850   25.7100    9.5200 C.ar  106  TRP106      0.0012
     34  CZ2        1.5390   26.5940    7.2810 C.ar  106  TRP106      0.0191
     35  CZ3       -0.3080   25.3760    8.2300 C.ar  106  TRP106      0.0001
     36  CH2        0.4120   25.8140    7.1390 C.ar  106  TRP106      0.0015
     37  N          2.8650   17.0070   25.1190 N.3   123  TYR123     -0.1241
     38  CA         3.9250   17.9450   24.7290 C.3   123  TYR123      0.1605
     39  C          5.2350   17.1900   24.7350 C.2   123  TYR123      0.2264
     40  O          5.8510   17.0240   25.7840 O.2   123  TYR123     -0.2867
     41  CB         3.9540   19.1690   25.6220 C.3   123  TYR123      0.0534
     42  CG         4.7470   20.3060   24.9990 C.ar  123  TYR123     -0.0201
     43  CD1        4.1260   21.2530   24.2250 C.ar  123  TYR123     -0.0009
     44  CD2        6.1310   20.4260   25.1940 C.ar  123  TYR123     -0.0009
     45  CE1        4.8270   22.3060   23.6410 C.ar  123  TYR123      0.0417
     46  CE2        6.8370   21.4760   24.6150 C.ar  123  TYR123      0.0417
     47  CZ         6.1890   22.4030   23.8470 C.ar  123  TYR123      0.1957
     48  OH         6.9050   23.4450   23.2740 O.3   123  TYR123     -0.2866
     49  N         12.1690   33.3010   15.9850 N.3   146  ILE146     -0.1231
     50  CA        10.9570   34.0370   16.3450 C.3   146  ILE146      0.1692
     51  C         10.1510   33.2150   17.3590 C.2   146  ILE146      0.2592
     52  O          9.7230   33.7240   18.4090 O.2   146  ILE146     -0.2718
     53  CB        10.1300   34.4140   15.0880 C.3   146  ILE146      0.0266
     54  CG1       10.8920   35.4380   14.2360 C.3   146  ILE146      0.0019
     55  CG2        8.7580   34.9500   15.4680 C.3   146  ILE146      0.0020
     56  CD1       11.2030   36.7440   14.9440 C.3   146  ILE146      0.0001
     57  N          9.9360   31.9370   17.0680 N.am  147  HIS147     -0.1962
     58  CA         9.0600   31.1240   17.9010 C.3   147  HIS147      0.1787
     59  C          9.8580   30.3360   18.8950 C.2   147  HIS147      0.2620
     60  O         10.9540   29.8820   18.5740 O.2   147  HIS147     -0.2715
     61  CB         8.2760   30.1310   17.0580 C.3   147  HIS147      0.0785
     62  CG         7.3770   30.7720   16.0600 C.ar  147  HIS147      0.0821
     63  ND1        6.4700   31.7530   16.3930 N.ar  147  HIS147     -0.2267
     64  CD2        7.2460   30.5700   14.7310 C.ar  147  HIS147      0.1154
     65  CE1        5.8170   32.1270   15.3090 C.ar  147  HIS147      0.1986
     66  NE2        6.2700   31.4250   14.2920 N.ar  147  HIS147     -0.2212
     67  N          9.2900   30.1860   20.0880 N.am  148  TYR148     -0.1960
     68  CA         9.9060   29.3770   21.1450 C.3   148  TYR148      0.1771
     69  C          9.0530   28.1940   21.4940 C.2   148  TYR148      0.2619
     70  O          7.8230   28.1940   21.3090 O.2   148  TYR148     -0.2715
     71  CB        10.2690   30.2850   22.3400 C.3   148  TYR148      0.0574
     72  CG        11.5870   30.9710   22.0580 C.ar  148  TYR148     -0.0198
     73  CD1       12.7400   30.5720   22.6950 C.ar  148  TYR148     -0.0009
     74  CD2       11.6820   32.0320   21.1400 C.ar  148  TYR148     -0.0009
     75  CE1       13.9490   31.1900   22.4430 C.ar  148  TYR148      0.0417
     76  CE2       12.8890   32.6540   20.8860 C.ar  148  TYR148      0.0417
     77  CZ        14.0210   32.2300   21.5380 C.ar  148  TYR148      0.1957
     78  OH        15.2190   32.8410   21.2900 O.3   148  TYR148     -0.2866
     79  N          9.7260   27.1550   22.0110 N.am  149  TYR149     -0.1974
     80  CA         9.1140   25.8680   22.1960 C.3   149  TYR149      0.1639
     81  C          9.6260   25.2050   23.4650 C.2   149  TYR149      0.2290
     82  O          9.9030   24.0060   23.4770 O.2   149  TYR149     -0.2864
     83  CB         9.3630   24.9510   20.9840 C.3   149  TYR149      0.0560
     84  CG         8.9680   25.5120   19.6610 C.ar  149  TYR149     -0.0198
     85  CD1        7.6640   25.3470   19.1950 C.ar  149  TYR149     -0.0009
     86  CD2        9.8790   26.2160   18.8570 C.ar  149  TYR149     -0.0009
     87  CE1        7.2810   25.8630   17.9680 C.ar  149  TYR149      0.0417
     88  CE2        9.5010   26.7380   17.6230 C.ar  149  TYR149      0.0417
     89  CZ         8.2030   26.5590   17.1850 C.ar  149  TYR149      0.1957
     90  OH         7.8440   27.0880   15.9460 O.3   149  TYR149     -0.2866
     91  N          3.5810   21.3140   19.6950 N.3   169  ARG169     -0.1231
     92  CA         4.4520   22.5010   19.6460 C.3   169  ARG169      0.1694
     93  C          3.7890   23.6890   18.9780 C.2   169  ARG169      0.2592
     94  O          4.2570   24.8420   19.1130 O.2   169  ARG169     -0.2718
     95  CB         5.7720   22.1710   18.9580 C.3   169  ARG169      0.0321
     96  CG         5.6430   22.0250   17.4760 C.3   169  ARG169      0.0489
     97  CD         6.7810   21.2570   16.8460 C.3   169  ARG169      0.2205
     98  NE         8.0370   21.9870   16.7350 N.pl3 169  ARG169     -0.0865
     99  CZ         8.2960   22.9130   15.8110 C.cat 169  ARG169      0.5346
    100  NH1        7.3960   23.2460   14.9010 N.pl3 169  ARG169      0.1354
    101  NH2        9.4800   23.5240   15.7860 N.pl3 169  ARG169      0.1354
    102  N          2.6990   23.4370   18.2490 N.am  170  PHE170     -0.1962
    103  CA         1.9770   24.4980   17.5820 C.3   170  PHE170      0.1771
    104  C          0.8950   25.1780   18.4110 C.2   170  PHE170      0.2619
    105  O          0.3680   26.1880   17.9730 O.2   170  PHE170     -0.2715
    106  CB         1.3700   24.0140   16.2560 C.3   170  PHE170      0.0574
    107  CG         2.4060   23.5550   15.2730 C.ar  170  PHE170     -0.0200
    108  CD1        3.3240   24.4720   14.7780 C.ar  170  PHE170     -0.0042
    109  CD2        2.4680   22.2270   14.8500 C.ar  170  PHE170     -0.0042
    110  CE1        4.2850   24.1020   13.8850 C.ar  170  PHE170     -0.0003
    111  CE2        3.4490   21.8370   13.9360 C.ar  170  PHE170     -0.0003
    112  CZ         4.3520   22.7810   13.4610 C.ar  170  PHE170     -0.0000
    113  N          0.5550   24.6620   19.5850 N.am  171  MET171     -0.1963
    114  CA        -0.5110   25.3020   20.3550 C.3   171  MET171      0.1736
    115  C         -0.0700   26.6920   20.8130 C.2   171  MET171      0.2616
    116  O          0.9590   26.8570   21.4690 O.2   171  MET171     -0.2715
    117  CB        -0.9350   24.4930   21.5670 C.3   171  MET171      0.0427
    118  CG        -2.2270   25.0650   22.1800 C.3   171  MET171      0.0599
    119  SD        -2.8920   24.1150   23.5840 S.3   171  MET171     -0.1393
    120  CE        -3.2870   22.5750   22.7790 C.3   171  MET171      0.0692
    121  N         -0.8810   27.6730   20.4440 N.am  172  ASN172     -0.1958
    122  CA        -0.5970   29.0470   20.7600 C.3   172  ASN172      0.1819
    123  C         -1.0370   29.4600   22.1500 C.2   172  ASN172      0.2621
    124  O         -1.7900   28.7690   22.8360 O.2   172  ASN172     -0.2715
    125  CB        -1.1790   29.9690   19.6810 C.3   172  ASN172      0.1195
    126  CG        -0.4140   29.8680   18.3590 C.2   172  ASN172      0.2630
    127  OD1        0.8230   29.8830   18.3550 O.2   172  ASN172     -0.2716
    128  ND2       -1.1310   29.7670   17.2560 N.am  172  ASN172     -0.0877
    129  N         -0.5330   30.6200   22.5380 N.am  173  HIS173     -0.1973
    130  CA        -0.8740   31.2400   23.8030 C.3   173  HIS173      0.1656
    131  C         -2.1780   32.0230   23.7120 C.2   173  HIS173      0.2291
    132  O         -2.4660   32.6950   22.7070 O.2   173  HIS173     -0.2864
    133  CB         0.2000   32.2540   24.2360 C.3   173  HIS173      0.0771
    134  CG        -0.2650   33.1240   25.3590 C.ar  173  HIS173      0.0820
    135  ND1       -0.2760   32.6850   26.6610 N.ar  173  HIS173     -0.2267
    136  CD2       -0.7330   34.3890   25.3870 C.ar  173  HIS173      0.1154
    137  CE1       -0.7320   33.6470   27.4440 C.ar  173  HIS173      0.1986
    138  NE2       -1.0160   34.6910   26.6960 N.ar  173  HIS173     -0.2212
    139  N          0.5880   30.3650   28.3250 N.3   210  TYR210     -0.1241
    140  CA         2.0640   30.2680   28.4480 C.3   210  TYR210      0.1605
    141  C          2.5340   30.8690   29.7760 C.2   210  TYR210      0.2264
    142  O          1.9700   31.8390   30.2590 O.2   210  TYR210     -0.2867
    143  CB         2.7950   30.9940   27.3070 C.3   210  TYR210      0.0534
    144  CG         2.8180   30.2970   25.9550 C.ar  210  TYR210     -0.0201
    145  CD1        1.7030   29.5980   25.4610 C.ar  210  TYR210     -0.0009
    146  CD2        3.9620   30.3340   25.1530 C.ar  210  TYR210     -0.0009
    147  CE1        1.7360   28.9690   24.2240 C.ar  210  TYR210      0.0417
    148  CE2        3.9980   29.7020   23.9120 C.ar  210  TYR210      0.0417
    149  CZ         2.8790   29.0180   23.4490 C.ar  210  TYR210      0.1957
    150  OH         2.8950   28.3860   22.2250 O.3   210  TYR210     -0.2866
    151  N          7.3480   39.5490   23.2250 N.3   213  GLN213     -0.1231
    152  CA         6.4190   39.4000   22.0870 C.3   213  GLN213      0.1698
    153  C          5.0200   39.9090   22.4490 C.2   213  GLN213      0.2592
    154  O          4.4520   39.4700   23.4450 O.2   213  GLN213     -0.2718
    155  CB         6.3150   37.9280   21.6630 C.3   213  GLN213      0.0381
    156  CG         7.6550   37.2660   21.3520 C.3   213  GLN213      0.0905
    157  CD         7.5330   35.8530   20.7890 C.2   213  GLN213      0.2608
    158  OE1        7.5530   34.8690   21.5310 O.2   213  GLN213     -0.2717
    159  NE2        7.4060   35.7520   19.4640 N.am  213  GLN213     -0.0878
    160  N          4.4680   40.8220   21.6560 N.am  214  LYS214     -0.1966
    161  CA         3.0560   41.2160   21.8310 C.3   214  LYS214      0.1728
    162  C          2.1040   40.0730   21.5700 C.2   214  LYS214      0.2616
    163  O          2.3930   39.1900   20.7650 O.2   214  LYS214     -0.2715
    164  CB         2.6770   42.3240   20.8920 C.3   214  LYS214      0.0311
    165  CG         3.3170   43.6100   21.3250 C.3   214  LYS214      0.0038
    166  CD         2.8110   44.7430   20.5070 C.3   214  LYS214      0.0206
    167  CE         3.7740   45.8930   20.6990 C.3   214  LYS214      0.1093
    168  NZ         3.2450   47.0580   20.0150 N.3   214  LYS214     -0.1314
    169  N          0.9730   40.1160   22.2680 N.am  215  CYS215     -0.1954
    170  CA        -0.0030   39.0530   22.2740 C.3   215  CYS215      0.1843
    171  C         -1.1360   39.3990   21.3660 C.2   215  CYS215      0.2625
    172  O         -1.7170   40.4750   21.4860 O.2   215  CYS215     -0.2714
    173  CB        -0.5290   38.8040   23.6760 C.3   215  CYS215      0.0997
    174  SG        -1.6460   37.4060   23.6710 S.3   215  CYS215     -0.0797
    175  N         -1.4420   38.4710   20.4590 N.am  216  PHE216     -0.1960
    176  CA        -2.4960   38.6250   19.4960 C.3   216  PHE216      0.1771
    177  C         -3.6320   37.6660   19.7680 C.2   216  PHE216      0.2619
    178  O         -4.3470   37.2970   18.8360 O.2   216  PHE216     -0.2715
    179  CB        -1.9560   38.4330   18.0610 C.3   216  PHE216      0.0574
    180  CG        -0.7570   39.2980   17.7440 C.ar  216  PHE216     -0.0200
    181  CD1       -0.7770   40.6480   18.0160 C.ar  216  PHE216     -0.0042
    182  CD2        0.3720   38.7580   17.1810 C.ar  216  PHE216     -0.0042
    183  CE1        0.3130   41.4540   17.7310 C.ar  216  PHE216     -0.0003
    184  CE2        1.4810   39.5620   16.8880 C.ar  216  PHE216     -0.0003
    185  CZ         1.4340   40.8970   17.1690 C.ar  216  PHE216     -0.0000
    186  N         -3.8130   37.2600   21.0240 N.am  217  CYS217     -0.1968
    187  CA        -4.8880   36.3120   21.3450 C.3   217  CYS217      0.1712
    188  C         -6.2850   36.8760   21.1030 C.2   217  CYS217      0.2296
    189  O         -7.2050   36.1050   20.8460 O.2   217  CYS217     -0.2864
    190  CB        -4.7800   35.7500   22.7830 C.3   217  CYS217      0.0983
    191  SG        -5.3240   36.8780   24.0970 S.3   217  CYS217     -0.0798
    192  N          3.2640   38.1080   25.7060 N.3   226  LEU226     -0.1245
    193  CA         3.3120   36.6800   26.0540 C.3   226  LEU226      0.1561
    194  C          3.9780   36.4900   27.4110 C.2   226  LEU226      0.2260
    195  O          5.0710   37.0260   27.6580 O.2   226  LEU226     -0.2867
    196  CB         4.0440   35.8460   25.0010 C.3   226  LEU226      0.0270
    197  CG         3.4810   35.7730   23.5660 C.3   226  LEU226      0.0019
    198  CD1        3.7870   34.4040   22.9630 C.3   226  LEU226      0.0001
    199  CD2        1.9930   36.0670   23.4780 C.3   226  LEU226      0.0001
@<TRIPOS>BOND
     1    36    34   ar
     2    36    35   ar
     3    34    32   ar
     4    35    33   ar
     5    32    31   ar
     6    32    30   ar
     7    31    29   ar
     8    33    30   ar
     9    30    28   ar
    10    29    28   ar
    11    28    27    1
    12    27    24    1
    13     1     2    1
    14    22    21    2
    15    21    23   am
    16    21    20    1
    17    24    23    1
    18    24    25    1
    19    20    19    1
    20     2     5    1
    21     2     3    1
    22     6     5    1
    23     6     7    1
    24    19    12   am
    25   112   110   ar
    26   112   111   ar
    27     8     7    1
    28     8     9    1
    29   110   108   ar
    30   111   109   ar
    31     3    10   am
    32     3     4    2
    33    25    26    2
    34    54    56    1
    35    54    53    1
    36    66    64   ar
    37    66    65   ar
    38    10    11    1
    39    64    62   ar
    40   108   107   ar
    41    12    11    1
    42    12    13    2
    43   109   107   ar
    44   100    99    1
    45    53    55    1
    46    53    50    1
    47   107   106    1
    48    65    63   ar
    49    11    14    1
    50   101    99    1
    51    99    98    2
    52    90    89    1
    53    49    50    1
    54    62    63   ar
    55    62    61    1
    56   106   103    1
    57    50    51    1
    58    14    15    1
    59    98    97    1
    60    97    96    1
    61   184   185   ar
    62   184   182   ar
    63    15    16    1
    64    61    58    1
    65    57    51   am
    66    57    58    1
    67    17    18    1
    68    17    16    1
    69   185   183   ar
    70   182   180   ar
    71    89    88   ar
    72    89    87   ar
    73   128   126   am
    74    51    52    2
    75    96    95    1
    76   103   102    1
    77   103   104    1
    78    88    86   ar
    79   183   181   ar
    80   180   181   ar
    81   180   179    1
    82    58    59    1
    83    87    85   ar
    84   105   104    2
    85   179   176    1
    86   102    93   am
    87   127   126    2
    88   126   125    1
    89   104   113   am
    90    60    59    2
    91   178   177    2
    92    86    84   ar
    93    59    67   am
    94    95    92    1
    95    93    94    2
    96    93    92    1
    97    85    84   ar
    98   159   157   am
    99   176   177    1
   100   176   175    1
   101   113   114    1
   102    92    91    1
   103    84    83    1
   104   125   122    1
   105   177   186   am
   106   168   167    1
   107    67    68    1
   108   114   115    1
   109   114   117    1
   110   121   122    1
   111   121   115   am
   112   175   171   am
   113   166   167    1
   114   166   165    1
   115   122   123    1
   116   163   162    2
   117   157   156    1
   118   157   158    2
   119   115   116    2
   120   189   188    2
   121    76    74   ar
   122    76    77   ar
   123   164   165    1
   124   164   161    1
   125    83    80    1
   126   186   187    1
   127   188   187    1
   128    74    72   ar
   129    68    69    1
   130    68    71    1
   131    78    77    1
   132    70    69    2
   133   187   190    1
   134   156   155    1
   135   171   172    2
   136   171   170    1
   137    69    79   am
   138    77    75   ar
   139   117   118    1
   140   162   161    1
   141   162   169   am
   142   160   161    1
   143   160   153   am
   144   155   152    1
   145    79    80    1
   146    72    71    1
   147    72    73   ar
   148   152   153    1
   149   152   151    1
   150   123   129   am
   151   123   124    2
   152   118   119    1
   153    80    81    1
   154   150   149    1
   155   169   170    1
   156   170   173    1
   157    75    73   ar
   158   153   154    2
   159   129   130    1
   160   132   131    2
   161   120   119    1
   162   190   191    1
   163   198   197    1
   164    48    47    1
   165   149   148   ar
   166   149   147   ar
   167    81    82    2
   168   199   197    1
   169   197   196    1
   170    45    47   ar
   171    45    43   ar
   172   174   173    1
   173   131   130    1
   174   130   133    1
   175    47    46   ar
   176   148   146   ar
   177   147   145   ar
   178    43    42   ar
   179   133   134    1
   180    46    44   ar
   181    38    39    1
   182    38    37    1
   183    38    41    1
   184    39    40    2
   185    42    44   ar
   186    42    41    1
   187   196   193    1
   188   146   144   ar
   189   134   136   ar
   190   134   135   ar
   191   136   138   ar
   192   145   144   ar
   193   192   193    1
   194   144   143    1
   195   193   194    1
   196   135   137   ar
   197   138   137   ar
   198   143   140    1
   199   194   195    2
   200   139   140    1
   201   140   141    1
   202   141   142    2
