@<TRIPOS>MOLECULE
tmp/5lt9B00.pdb
 141 138 0 0 0
SMALL
GASTEIGER

@<TRIPOS>ATOM
      1  N        -35.0990   51.7750   19.5520 N.3    60  PHE60      -0.1241
      2  CA       -35.3550   51.1980   18.2420 C.3    60  PHE60       0.1605
      3  C        -34.0420   51.0770   17.4840 C.2    60  PHE60       0.2264
      4  O        -33.1820   51.9570   17.5730 O.2    60  PHE60      -0.2867
      5  CB       -36.3450   52.0460   17.4320 C.3    60  PHE60       0.0534
      6  CG       -37.7250   52.1030   18.0230 C.ar   60  PHE60      -0.0203
      7  CD1      -38.6280   51.0750   17.8090 C.ar   60  PHE60      -0.0042
      8  CD2      -38.1220   53.1900   18.7840 C.ar   60  PHE60      -0.0042
      9  CE1      -39.9000   51.1270   18.3500 C.ar   60  PHE60      -0.0003
     10  CE2      -39.3930   53.2480   19.3270 C.ar   60  PHE60      -0.0003
     11  CZ       -40.2820   52.2160   19.1100 C.ar   60  PHE60      -0.0000
     12  N        -32.7620   50.3110   13.5180 N.3    62  TYR62      -0.1241
     13  CA       -33.3860   50.3550   12.2040 C.3    62  TYR62       0.1605
     14  C        -32.3610   50.6580   11.1220 C.2    62  TYR62       0.2264
     15  O        -31.2450   51.1110   11.3900 O.2    62  TYR62      -0.2867
     16  CB       -34.5070   51.3920   12.1560 C.3    62  TYR62       0.0534
     17  CG       -34.1820   52.7040   12.8300 C.ar   62  TYR62      -0.0201
     18  CD1      -33.7290   53.7890   12.0930 C.ar   62  TYR62      -0.0009
     19  CD2      -34.3420   52.8630   14.2000 C.ar   62  TYR62      -0.0009
     20  CE1      -33.4380   54.9910   12.7020 C.ar   62  TYR62       0.0417
     21  CE2      -34.0490   54.0590   14.8170 C.ar   62  TYR62       0.0417
     22  CZ       -33.6010   55.1190   14.0630 C.ar   62  TYR62       0.1957
     23  OH       -33.3160   56.3140   14.6750 O.3    62  TYR62      -0.2866
     24  N        -37.7300   50.6070    4.6870 N.3    70  TYR70      -0.1241
     25  CA       -37.4400   50.8260    6.0950 C.3    70  TYR70       0.1605
     26  C        -37.6890   49.5400    6.8670 C.2    70  TYR70       0.2264
     27  O        -38.7330   48.9050    6.6950 O.2    70  TYR70      -0.2867
     28  CB       -38.3080   51.9580    6.6520 C.3    70  TYR70       0.0534
     29  CG       -37.9740   52.3240    8.0700 C.ar   70  TYR70      -0.0201
     30  CD1      -36.7850   52.9740    8.3700 C.ar   70  TYR70      -0.0009
     31  CD2      -38.8290   52.0010    9.1120 C.ar   70  TYR70      -0.0009
     32  CE1      -36.4670   53.3080    9.6630 C.ar   70  TYR70       0.0417
     33  CE2      -38.5190   52.3290   10.4090 C.ar   70  TYR70       0.0417
     34  CZ       -37.3360   52.9820   10.6780 C.ar   70  TYR70       0.1957
     35  OH       -37.0230   53.3100   11.9660 O.3    70  TYR70      -0.2866
     36  N        -37.0970   47.9480   10.9670 N.3    72  ALA72      -0.1245
     37  CA       -36.7750   48.3920   12.3130 C.3    72  ALA72       0.1562
     38  C        -37.1990   47.3510   13.3380 C.2    72  ALA72       0.2260
     39  O        -38.1110   46.5510   13.1090 O.2    72  ALA72      -0.2867
     40  CB       -37.4480   49.7290   12.6170 C.3    72  ALA72       0.0290
     41  N        -37.6960   47.1180   17.7690 N.3    74  PRO74      -0.2102
     42  CA       -38.9560   46.4170   17.4990 C.3    74  PRO74       0.1504
     43  C        -39.8890   47.2120   16.5900 C.2    74  PRO74       0.2576
     44  O        -39.7110   48.4200   16.4240 O.2    74  PRO74      -0.2718
     45  CB       -39.5770   46.2530   18.8960 C.3    74  PRO74       0.0282
     46  CG       -38.4910   46.6250   19.8750 C.3    74  PRO74       0.0208
     47  CD       -37.6420   47.6120   19.1530 C.3    74  PRO74       0.0893
     48  N        -40.8680   46.5310   16.0030 N.am   75  THR75      -0.1939
     49  CA       -41.8400   47.2040   15.1560 C.3    75  THR75       0.2028
     50  C        -42.7490   48.0860   16.0000 C.2    75  THR75       0.2642
     51  O        -43.0820   47.7520   17.1400 O.2    75  THR75      -0.2714
     52  CB       -42.6810   46.1850   14.3870 C.3    75  THR75       0.1808
     53  OG1      -43.3870   45.3520   15.3150 O.3    75  THR75      -0.2208
     54  CG2      -41.7950   45.3130   13.5160 C.3    75  THR75       0.0379
     55  N        -43.1510   49.2220   15.4350 N.am   76  SER76      -0.1949
     56  CA       -44.1200   50.0950   16.0760 C.3    76  SER76       0.1924
     57  C        -44.9730   50.7530   15.0000 C.2    76  SER76       0.2314
     58  O        -44.7500   50.5690   13.7980 O.2    76  SER76      -0.2863
     59  CB       -43.4380   51.1420   16.9590 C.3    76  SER76       0.2116
     60  OG       -43.0730   52.2740   16.1910 O.3    76  SER76      -0.2180
     61  N        -45.9240   53.7220   12.9550 N.3    78  LEU78      -0.1245
     62  CA       -45.4060   54.9750   12.4310 C.3    78  LEU78       0.1561
     63  C        -46.4310   55.6340   11.5190 C.2    78  LEU78       0.2260
     64  O        -47.3710   54.9830   11.0530 O.2    78  LEU78      -0.2867
     65  CB       -44.1020   54.7260   11.6640 C.3    78  LEU78       0.0270
     66  CG       -42.9140   54.2440   12.4970 C.3    78  LEU78       0.0019
     67  CD1      -41.7430   53.8800   11.6020 C.3    78  LEU78       0.0001
     68  CD2      -42.5030   55.3030   13.5090 C.3    78  LEU78       0.0001
     69  N        -44.5470   57.9920    6.4500 N.3    82  TYR82      -0.1241
     70  CA       -43.1920   57.8420    6.9620 C.3    82  TYR82       0.1605
     71  C        -42.2290   57.5110    5.8320 C.2    82  TYR82       0.2264
     72  O        -42.3580   56.4740    5.1740 O.2    82  TYR82      -0.2867
     73  CB       -43.1520   56.7530    8.0330 C.3    82  TYR82       0.0534
     74  CG       -41.7950   56.5740    8.6760 C.ar   82  TYR82      -0.0201
     75  CD1      -40.8450   55.7220    8.1240 C.ar   82  TYR82      -0.0009
     76  CD2      -41.4610   57.2660    9.8300 C.ar   82  TYR82      -0.0009
     77  CE1      -39.6040   55.5620    8.7090 C.ar   82  TYR82       0.0417
     78  CE2      -40.2270   57.1110   10.4190 C.ar   82  TYR82       0.0417
     79  CZ       -39.3000   56.2600    9.8570 C.ar   82  TYR82       0.1957
     80  OH       -38.0650   56.1070   10.4470 O.3    82  TYR82      -0.2866
     81  N        -35.9990   62.0990    7.4290 N.3    87  ARG87      -0.1245
     82  CA       -35.9030   62.1670    8.8770 C.3    87  ARG87       0.1563
     83  C        -34.5780   62.7810    9.3240 C.2    87  ARG87       0.2260
     84  O        -33.5950   62.7290    8.5880 O.2    87  ARG87      -0.2867
     85  CB       -36.0880   60.7830    9.4960 C.3    87  ARG87       0.0307
     86  CG       -37.2870   60.0060    8.9800 C.3    87  ARG87       0.0489
     87  CD       -38.5750   60.5010    9.6570 C.3    87  ARG87       0.2205
     88  NE       -38.3970   61.1200   10.9730 N.pl3  87  ARG87      -0.0865
     89  CZ       -39.1230   62.1220   11.4410 C.cat  87  ARG87       0.5346
     90  NH1      -40.0910   62.6850   10.7410 N.pl3  87  ARG87       0.1354
     91  NH2      -38.8640   62.5910   12.6600 N.pl3  87  ARG87       0.1354
     92  N        -32.2400   61.9320   11.4660 N.3    89  TRP89      -0.1241
     93  CA       -31.1150   61.0110   11.6030 C.3    89  TRP89       0.1605
     94  C        -30.5560   60.5940   10.2480 C.2    89  TRP89       0.2264
     95  O        -29.3600   60.3010   10.1360 O.2    89  TRP89      -0.2867
     96  CB       -31.5330   59.7830   12.4130 C.3    89  TRP89       0.0550
     97  CG       -32.7340   59.0700   11.8690 C.ar   89  TRP89       0.0003
     98  CD1      -34.0380   59.2950   12.2010 C.ar   89  TRP89       0.0946
     99  CD2      -32.7420   58.0100   10.9050 C.ar   89  TRP89       0.0152
    100  NE1      -34.8580   58.4450   11.4990 N.ar   89  TRP89      -0.2442
    101  CE2      -34.0870   57.6460   10.6960 C.ar   89  TRP89       0.0810
    102  CE3      -31.7430   57.3360   10.1960 C.ar   89  TRP89       0.0012
    103  CZ2      -34.4590   56.6380    9.8080 C.ar   89  TRP89       0.0191
    104  CZ3      -32.1140   56.3350    9.3150 C.ar   89  TRP89       0.0001
    105  CH2      -33.4590   55.9960    9.1290 C.ar   89  TRP89       0.0015
    106  N        -35.0460   65.2350   19.0570 N.3   105  TYR105     -0.1241
    107  CA       -36.2900   65.4300   18.3310 C.3   105  TYR105      0.1605
    108  C        -37.3700   64.5770   18.9800 C.2   105  TYR105      0.2264
    109  O        -37.0970   63.7410   19.8460 O.2   105  TYR105     -0.2867
    110  CB       -36.1370   65.0830   16.8440 C.3   105  TYR105      0.0534
    111  CG       -35.7000   63.6590   16.5840 C.ar  105  TYR105     -0.0201
    112  CD1      -34.3540   63.3190   16.5500 C.ar  105  TYR105     -0.0009
    113  CD2      -36.6340   62.6550   16.3690 C.ar  105  TYR105     -0.0009
    114  CE1      -33.9520   62.0180   16.3140 C.ar  105  TYR105      0.0417
    115  CE2      -36.2420   61.3540   16.1330 C.ar  105  TYR105      0.0417
    116  CZ       -34.9020   61.0400   16.1060 C.ar  105  TYR105      0.1957
    117  OH       -34.5110   59.7430   15.8690 O.3   105  TYR105     -0.2866
    118  N        -40.0100   61.6660   19.0980 N.3   107  GLU107     -0.1231
    119  CA       -40.2560   60.3520   18.5140 C.3   107  GLU107      0.1684
    120  C        -41.6900   60.2710   18.0060 C.2   107  GLU107      0.2434
    121  O        -42.6250   60.4870   18.7870 O.2   107  GLU107     -0.2733
    122  CB       -39.9990   59.2630   19.5470 C.3   107  GLU107      0.0402
    123  CG       -40.5230   57.8890   19.1580 C.3   107  GLU107      0.1161
    124  CD       -39.5940   57.1540   18.2210 C.2   107  GLU107      0.3649
    125  OE1      -38.3740   57.4160   18.2690 O.co2 107  GLU107     -0.2457
    126  OE2      -40.0780   56.3110   17.4380 O.co2 107  GLU107     -0.2457
    127  N        -41.9150   59.9720   16.7230 N.am  108  PRO108     -0.2729
    128  CA       -43.2940   59.8620   16.2210 C.3   108  PRO108      0.1401
    129  C        -44.0380   58.6280   16.7090 C.2   108  PRO108      0.2269
    130  O        -45.2670   58.5770   16.5610 O.2   108  PRO108     -0.2865
    131  CB       -43.1060   59.8300   14.7000 C.3   108  PRO108      0.0296
    132  CG       -41.7300   59.2740   14.5110 C.3   108  PRO108      0.0237
    133  CD       -40.9250   59.8510   15.6410 C.3   108  PRO108      0.0939
    134  N        -31.9950   54.6840   18.6700 N.3   134  ASP134     -0.1239
    135  CA       -32.6050   55.7300   19.4780 C.3   134  ASP134      0.1674
    136  C        -32.2550   55.5740   20.9540 C.2   134  ASP134      0.2266
    137  O        -32.1100   54.4610   21.4670 O.2   134  ASP134     -0.2867
    138  CB       -34.1230   55.7240   19.3050 C.3   134  ASP134      0.1410
    139  CG       -34.5390   55.9200   17.8660 C.2   134  ASP134      0.3668
    140  OD1      -33.8080   56.6200   17.1340 O.co2 134  ASP134     -0.2456
    141  OD2      -35.5940   55.3830   17.4660 O.co2 134  ASP134     -0.2456
@<TRIPOS>BOND
     1    24    25    1
     2    72    71    2
     3    71    70    1
     4    25    28    1
     5    25    26    1
     6    69    70    1
     7    28    29    1
     8    27    26    2
     9    70    73    1
    10    81    82    1
    11    73    74    1
    12    29    30   ar
    13    29    31   ar
    14    75    74   ar
    15    75    77   ar
    16    30    32   ar
    17    84    83    2
    18    74    76   ar
    19    77    79   ar
    20    82    83    1
    21    82    85    1
    22    86    85    1
    23    86    87    1
    24    31    33   ar
    25   105   104   ar
    26   105   103   ar
    27   104   102   ar
    28    87    88    1
    29    32    34   ar
    30   103   101   ar
    31    76    78   ar
    32    79    78   ar
    33    79    80    1
    34    95    94    2
    35   102    99   ar
    36    94    93    1
    37    33    34   ar
    38    34    35    1
    39   101    99   ar
    40   101   100   ar
    41    90    89    1
    42    99    97   ar
    43    36    37    1
    44    88    89    2
    45    64    63    2
    46    14    15    2
    47    14    13    1
    48    89    91    1
    49    92    93    1
    50   100    98   ar
    51    63    62    1
    52    67    66    1
    53    93    96    1
    54    65    62    1
    55    65    66    1
    56    97    98   ar
    57    97    96    1
    58    18    20   ar
    59    18    17   ar
    60    16    13    1
    61    16    17    1
    62    13    12    1
    63    37    40    1
    64    37    38    1
    65    62    61    1
    66    66    68    1
    67    20    22   ar
    68    17    19   ar
    69    39    38    2
    70    54    52    1
    71    58    57    2
    72    22    23    1
    73    22    21   ar
    74    19    21   ar
    75    52    49    1
    76    52    53    1
    77   132   131    1
    78   132   133    1
    79   131   128    1
    80    57    56    1
    81    49    50    1
    82    49    48    1
    83    55    50   am
    84    55    56    1
    85   133   127    1
    86   117   116    1
    87    50    51    2
    88    48    43   am
    89    56    59    1
    90   116   115   ar
    91   116   114   ar
    92   115   113   ar
    93    60    59    1
    94   128   129    1
    95   128   127    1
    96   114   112   ar
    97   113   111   ar
    98    44    43    2
    99   112   111   ar
   100   130   129    2
   101   111   110    1
   102    43    42    1
   103   127   120   am
   104   110   107    1
   105   140   139   ar
   106     5     6    1
   107     5     2    1
   108   126   124   ar
   109   141   139   ar
   110     3     4    2
   111     3     2    1
   112    42    41    1
   113    42    45    1
   114    41    47    1
   115     7     6   ar
   116     7     9   ar
   117   139   138    1
   118   120   119    1
   119   120   121    2
   120     6     8   ar
   121   124   125   ar
   122   124   123    1
   123     2     1    1
   124   107   108    1
   125   107   106    1
   126     9    11   ar
   127   119   118    1
   128   119   122    1
   129   134   135    1
   130     8    10   ar
   131    45    46    1
   132   108   109    2
   133    11    10   ar
   134    47    46    1
   135   123   122    1
   136   138   135    1
   137   135   136    1
   138   136   137    2
