@<TRIPOS>MOLECULE
tmp/5ltmB00.pdb
 125 117 0 0 0
SMALL
GASTEIGER

@<TRIPOS>ATOM
      1  N        -25.4870   30.1850   33.0600 N.3    55  GLY55      -0.1225
      2  CA       -25.6550   28.9830   32.2640 C.3    55  GLY55       0.1811
      3  C        -24.9250   27.7610   32.7900 C.2    55  GLY55       0.2280
      4  O        -25.0620   26.6730   32.2370 O.2    55  GLY55      -0.2866
      5  N        -30.7610   29.6080   32.1660 N.3    60  PHE60      -0.1227
      6  CA       -30.3660   30.0870   30.8420 C.3    60  PHE60       0.1736
      7  C        -31.1920   31.2890   30.3990 C.2    60  PHE60       0.2596
      8  O        -32.3880   31.3600   30.6650 O.2    60  PHE60      -0.2718
      9  CB       -30.5020   28.9670   29.8020 C.3    60  PHE60       0.0547
     10  CG       -29.7190   27.7250   30.1340 C.ar   60  PHE60      -0.0202
     11  CD1      -28.3490   27.6730   29.9230 C.ar   60  PHE60      -0.0042
     12  CD2      -30.3500   26.6080   30.6410 C.ar   60  PHE60      -0.0042
     13  CE1      -27.6210   26.5310   30.2220 C.ar   60  PHE60      -0.0003
     14  CE2      -29.6310   25.4670   30.9420 C.ar   60  PHE60      -0.0003
     15  CZ       -28.2610   25.4290   30.7330 C.ar   60  PHE60      -0.0000
     16  N        -30.5450   32.2250   29.7150 N.am   61  GLY61      -0.1957
     17  CA       -31.2320   33.3560   29.1120 C.3    61  GLY61       0.1869
     18  C        -32.0040   34.2190   30.0880 C.2    61  GLY61       0.2309
     19  O        -31.4590   34.7220   31.0620 O.2    61  GLY61      -0.2863
     20  N        -30.8390   20.7360   29.3050 N.3    80  LEU80      -0.1245
     21  CA       -30.7710   21.7090   28.2220 C.3    80  LEU80       0.1561
     22  C        -31.0200   21.0180   26.8820 C.2    80  LEU80       0.2260
     23  O        -31.7040   21.5140   26.0130 O.2    80  LEU80      -0.2867
     24  CB       -29.4050   22.3950   28.2350 C.3    80  LEU80       0.0270
     25  CG       -28.9680   23.3820   27.1610 C.3    80  LEU80       0.0019
     26  CD1      -29.8050   24.6420   27.2250 C.3    80  LEU80       0.0001
     27  CD2      -27.4970   23.7170   27.3640 C.3    80  LEU80       0.0001
     28  N        -35.1020   20.4240   26.6810 N.3    83  PHE83      -0.1227
     29  CA       -36.1120   21.4550   26.4420 C.3    83  PHE83       0.1736
     30  C        -35.8340   22.2330   25.1610 C.2    83  PHE83       0.2595
     31  O        -36.6930   22.9650   24.6800 O.2    83  PHE83      -0.2718
     32  CB       -36.2340   22.4180   27.6460 C.3    83  PHE83       0.0547
     33  CG       -35.1240   23.4560   27.7560 C.ar   83  PHE83      -0.0202
     34  CD1      -35.1140   24.5980   26.9450 C.ar   83  PHE83      -0.0042
     35  CD2      -34.1410   23.3240   28.7130 C.ar   83  PHE83      -0.0042
     36  CE1      -34.1230   25.5560   27.0600 C.ar   83  PHE83      -0.0003
     37  CE2      -33.1440   24.2700   28.8410 C.ar   83  PHE83      -0.0003
     38  CZ       -33.1350   25.3990   28.0120 C.ar   83  PHE83      -0.0000
     39  N        -34.6320   22.0670   24.6190 N.am   84  LEU84      -0.1980
     40  CA       -34.1270   22.9240   23.5510 C.3    84  LEU84       0.1596
     41  C        -34.4610   22.3550   22.2370 C.2    84  LEU84       0.2287
     42  O        -35.3980   22.7410   21.5380 O.2    84  LEU84      -0.2864
     43  CB       -32.6200   23.0310   23.6090 C.3    84  LEU84       0.0297
     44  CG       -32.0660   24.3550   24.0350 C.3    84  LEU84       0.0022
     45  CD1      -30.5880   24.3170   23.6790 C.3    84  LEU84       0.0001
     46  CD2      -32.8460   25.4600   23.3320 C.3    84  LEU84       0.0001
     47  N        -28.9340   26.7430   19.1190 N.3   144  LEU144     -0.1245
     48  CA       -29.3050   25.9370   20.2650 C.3   144  LEU144      0.1561
     49  C        -30.1160   24.6940   19.8750 C.2   144  LEU144      0.2260
     50  O        -29.7250   23.5740   20.1690 O.2   144  LEU144     -0.2867
     51  CB       -30.1030   26.8040   21.2460 C.3   144  LEU144      0.0270
     52  CG       -29.3830   27.9630   21.9380 C.3   144  LEU144      0.0019
     53  CD1      -30.3910   28.9690   22.4890 C.3   144  LEU144      0.0001
     54  CD2      -28.4510   27.4580   23.0560 C.3   144  LEU144      0.0001
     55  N        -23.6630   23.8160   26.9940 N.3   192  LEU192     -0.1245
     56  CA       -23.4420   25.0780   26.3040 C.3   192  LEU192      0.1561
     57  C        -22.3190   24.9440   25.2970 C.2   192  LEU192      0.2260
     58  O        -22.3910   25.5040   24.2080 O.2   192  LEU192     -0.2867
     59  CB       -23.1170   26.1990   27.2870 C.3   192  LEU192      0.0270
     60  CG       -24.2800   26.7460   28.0990 C.3   192  LEU192      0.0019
     61  CD1      -23.8050   27.9020   28.9680 C.3   192  LEU192      0.0001
     62  CD2      -25.4010   27.1890   27.1910 C.3   192  LEU192      0.0001
     63  N        -24.4320   26.1660   22.3400 N.3   196  ASN196     -0.1240
     64  CA       -24.1820   27.5790   22.0670 C.3   196  ASN196      0.1653
     65  C        -23.3040   27.7300   20.8280 C.2   196  ASN196      0.2266
     66  O        -22.2370   27.1390   20.7570 O.2   196  ASN196     -0.2867
     67  CB       -23.4900   28.2330   23.2610 C.3   196  ASN196      0.1155
     68  CG       -24.3130   29.3160   23.9060 C.2   196  ASN196      0.2627
     69  OD1      -25.4080   29.6350   23.4590 O.2   196  ASN196     -0.2716
     70  ND2      -23.7860   29.8920   24.9750 N.am  196  ASN196     -0.0877
     71  N        -20.1330   29.8550   24.7800 N.3   320  ASN320     -0.1240
     72  CA       -20.2260   30.8510   25.8430 C.3   320  ASN320      0.1653
     73  C        -20.6560   30.2100   27.1540 C.2   320  ASN320      0.2266
     74  O        -21.5150   29.3420   27.1490 O.2   320  ASN320     -0.2867
     75  CB       -21.2300   31.9530   25.4660 C.3   320  ASN320      0.1155
     76  CG       -21.1810   33.1390   26.4180 C.2   320  ASN320      0.2627
     77  OD1      -20.2500   33.9410   26.3650 O.2   320  ASN320     -0.2716
     78  ND2      -22.1760   33.2520   27.2930 N.am  320  ASN320     -0.0877
     79  N        -18.4830   36.1820   30.1510 N.3   332  HIS332     -0.1241
     80  CA       -19.8320   36.1340   29.6340 C.3   332  HIS332      0.1621
     81  C        -19.8840   37.0730   28.4210 C.2   332  HIS332      0.2264
     82  O        -19.9200   38.2890   28.5710 O.2   332  HIS332     -0.2867
     83  CB       -20.8300   36.5360   30.7270 C.3   332  HIS332      0.0745
     84  CG       -22.2360   36.0880   30.4720 C.ar  332  HIS332      0.0817
     85  ND1      -22.5500   34.8140   30.0430 N.ar  332  HIS332     -0.2268
     86  CD2      -23.4170   36.7400   30.6070 C.ar  332  HIS332      0.1154
     87  CE1      -23.8600   34.7080   29.9110 C.ar  332  HIS332      0.1986
     88  NE2      -24.4100   35.8610   30.2490 N.ar  332  HIS332     -0.2212
     89  N        -21.9220   33.7510   20.0130 N.3   336  PHE336     -0.1241
     90  CA       -22.9280   32.9080   19.4050 C.3   336  PHE336      0.1605
     91  C        -23.8290   33.6750   18.4380 C.2   336  PHE336      0.2264
     92  O        -24.6270   33.0740   17.7300 O.2   336  PHE336     -0.2867
     93  CB       -23.7810   32.2530   20.4750 C.3   336  PHE336      0.0534
     94  CG       -24.2420   33.2020   21.5150 C.ar  336  PHE336     -0.0203
     95  CD1      -25.2850   34.0650   21.2630 C.ar  336  PHE336     -0.0042
     96  CD2      -23.6060   33.2650   22.7400 C.ar  336  PHE336     -0.0042
     97  CE1      -25.6930   34.9630   22.2170 C.ar  336  PHE336     -0.0003
     98  CE2      -24.0200   34.1530   23.7020 C.ar  336  PHE336     -0.0003
     99  CZ       -25.0590   35.0050   23.4430 C.ar  336  PHE336     -0.0000
    100  N        -37.2470   35.1510   23.1370 N.3   421  GLU421     -0.1245
    101  CA       -36.7890   34.4490   24.3480 C.3   421  GLU421      0.1567
    102  C        -36.8150   35.3160   25.5970 C.2   421  GLU421      0.2260
    103  O        -35.7730   35.7340   26.0820 O.2   421  GLU421     -0.2867
    104  CB       -35.3690   33.8910   24.1530 C.3   421  GLU421      0.0388
    105  CG       -34.9610   32.8220   25.2110 C.3   421  GLU421      0.1160
    106  CD       -33.9630   33.3280   26.2740 C.2   421  GLU421      0.3649
    107  OE1      -32.8780   33.8450   25.9160 O.co2 421  GLU421     -0.2457
    108  OE2      -34.2630   33.2040   27.4790 O.co2 421  GLU421     -0.2457
    109  N        -34.8030   38.4650   26.3510 N.3   424  ASN424     -0.1225
    110  CA       -33.3610   38.3660   26.5490 C.3   424  ASN424      0.1785
    111  C        -32.6130   38.5330   25.2290 C.2   424  ASN424      0.2597
    112  O        -31.6000   39.2280   25.1380 O.2   424  ASN424     -0.2718
    113  CB       -33.0050   37.0240   27.1950 C.3   424  ASN424      0.1169
    114  CG       -31.5210   36.8870   27.4850 C.2   424  ASN424      0.2627
    115  OD1      -30.8860   35.9000   27.1090 O.2   424  ASN424     -0.2716
    116  ND2      -30.9620   37.8780   28.1600 N.am  424  ASN424     -0.0877
    117  N        -33.1240   37.8910   24.1930 N.am  425  GLN425     -0.1979
    118  CA       -32.4460   37.9200   22.9120 C.3   425  GLN425      0.1601
    119  C        -33.0440   39.0220   22.0420 C.2   425  GLN425      0.2287
    120  O        -33.5940   38.7630   20.9770 O.2   425  GLN425     -0.2864
    121  CB       -32.5360   36.5500   22.2550 C.3   425  GLN425      0.0394
    122  CG       -32.1730   35.4180   23.2190 C.3   425  GLN425      0.0908
    123  CD       -31.8450   34.1020   22.5150 C.2   425  GLN425      0.2608
    124  OE1      -31.6420   34.0630   21.3000 O.2   425  GLN425     -0.2717
    125  NE2      -31.8000   33.0230   23.2780 N.am  425  GLN425     -0.0878
@<TRIPOS>BOND
     1    92    91    2
     2    91    90    1
     3    47    48    1
     4    90    89    1
     5    90    93    1
     6    49    50    2
     7    49    48    1
     8    48    51    1
     9    93    94    1
    10    66    65    2
    11    65    64    1
    12   120   119    2
    13    51    52    1
    14    95    94   ar
    15    95    97   ar
    16   124   123    2
    17    94    96   ar
    18    42    41    2
    19    52    53    1
    20    52    54    1
    21   119   118    1
    22    64    63    1
    23    64    67    1
    24    97    99   ar
    25    41    40    1
    26   121   118    1
    27   121   122    1
    28   123   122    1
    29   123   125   am
    30    96    98   ar
    31   118   117    1
    32   100   101    1
    33    67    68    1
    34    46    44    1
    35    99    98   ar
    36    69    68    2
    37    40    43    1
    38    40    39    1
    39    43    44    1
    40    45    44    1
    41    68    70   am
    42   104   101    1
    43   104   105    1
    44   117   111   am
    45    58    57    2
    46   101   102    1
    47    39    30   am
    48    31    30    2
    49    71    72    1
    50   112   111    2
    51    30    29    1
    52   105   106    1
    53   111   110    1
    54    57    56    1
    55    75    72    1
    56    75    76    1
    57   102   103    2
    58    72    73    1
    59   107   106   ar
    60    23    22    2
    61   106   108   ar
    62    56    55    1
    63    56    59    1
    64   109   110    1
    65    77    76    2
    66    76    78   am
    67    29    28    1
    68    29    32    1
    69   110   113    1
    70    22    21    1
    71    34    36   ar
    72    34    33   ar
    73    36    38   ar
    74   115   114    2
    75    74    73    2
    76    25    26    1
    77    25    27    1
    78    25    24    1
    79    62    60    1
    80   113   114    1
    81    59    60    1
    82   114   116   am
    83    32    33    1
    84    33    35   ar
    85    38    37   ar
    86    60    61    1
    87    21    24    1
    88    21    20    1
    89    81    82    2
    90    81    80    1
    91    35    37   ar
    92    17    16    1
    93    17    18    1
    94    80    79    1
    95    80    83    1
    96    16     7   am
    97     9    10    1
    98     9     6    1
    99    87    85   ar
   100    87    88   ar
   101    11    10   ar
   102    11    13   ar
   103    85    84   ar
   104    18    19    2
   105    10    12   ar
   106    13    15   ar
   107    88    86   ar
   108     7     8    2
   109     7     6    1
   110    84    86   ar
   111    84    83    1
   112    12    14   ar
   113    15    14   ar
   114     6     5    1
   115     4     3    2
   116     2     3    1
   117     2     1    1
