@<TRIPOS>MOLECULE
tmp/5ltnA00.pdb
 89 80 0 0 0
SMALL
GASTEIGER

@<TRIPOS>ATOM
      1  N        -41.0980   -5.1420    9.4180 N.3    40  ILE40      -0.1245
      2  CA       -40.9190   -6.5600    9.7200 C.3    40  ILE40       0.1561
      3  C        -41.8290   -7.4110    8.8360 C.2    40  ILE40       0.2260
      4  O        -41.3820   -8.3600    8.1850 O.2    40  ILE40      -0.2867
      5  CB       -41.1660   -6.8150   11.2200 C.3    40  ILE40       0.0252
      6  CG1      -39.9810   -6.2930   12.0430 C.3    40  ILE40       0.0019
      7  CG2      -41.4220   -8.2930   11.4970 C.3    40  ILE40       0.0019
      8  CD1      -38.6170   -6.8230   11.5570 C.3    40  ILE40       0.0001
      9  N        -40.7630   -7.1880    5.0020 N.3    43  LEU43      -0.1231
     10  CA       -39.6920   -8.0960    4.6330 C.3    43  LEU43       0.1693
     11  C        -40.2130   -9.5230    4.5440 C.2    43  LEU43       0.2591
     12  O        -39.8170  -10.3000    3.6550 O.2    43  LEU43      -0.2718
     13  CB       -38.5490   -7.9880    5.6450 C.3    43  LEU43       0.0284
     14  CG       -37.6230   -6.7680    5.5200 C.3    43  LEU43       0.0019
     15  CD1      -36.6090   -6.7730    6.6480 C.3    43  LEU43       0.0001
     16  CD2      -36.9130   -6.7870    4.1800 C.3    43  LEU43       0.0001
     17  N        -41.0990   -9.8930    5.4730 N.am   44  LYS44      -0.1980
     18  CA       -41.6710  -11.2300    5.4270 C.3    44  LYS44       0.1596
     19  C        -42.5240  -11.4160    4.1740 C.2    44  LYS44       0.2287
     20  O        -42.4840  -12.4790    3.5420 O.2    44  LYS44      -0.2864
     21  CB       -42.4820  -11.4980    6.6980 C.3    44  LYS44       0.0298
     22  CG       -42.9000  -12.9580    6.8080 C.3    44  LYS44       0.0038
     23  CD       -43.7410  -13.2280    8.0560 C.3    44  LYS44       0.0206
     24  CE       -44.3500  -14.6240    7.9910 C.3    44  LYS44       0.1093
     25  NZ       -45.0890  -14.9790    9.2400 N.3    44  LYS44      -0.1314
     26  N        -40.2750  -12.0340    1.4300 N.3    47  SER47      -0.1217
     27  CA       -39.6910  -13.3790    1.5620 C.3    47  SER47       0.1889
     28  C        -40.6440  -14.4560    1.0900 C.2    47  SER47       0.2288
     29  O        -40.2200  -15.4360    0.4620 O.2    47  SER47      -0.2866
     30  CB       -39.3050  -13.6820    3.0170 C.3    47  SER47       0.2089
     31  OG       -38.0940  -13.0660    3.3580 O.3    47  SER47      -0.2183
     32  N        -40.1980  -17.4610   -1.5320 N.3    51  GLU51      -0.1245
     33  CA       -40.4020  -18.8520   -1.1390 C.3    51  GLU51       0.1567
     34  C        -41.4090  -19.5340   -2.0460 C.2    51  GLU51       0.2260
     35  O        -41.2190  -20.6800   -2.4510 O.2    51  GLU51      -0.2867
     36  CB       -40.8820  -18.9510    0.3210 C.3    51  GLU51       0.0388
     37  CG       -39.8650  -18.5310    1.3430 C.3    51  GLU51       0.1160
     38  CD       -40.4940  -18.3790    2.7120 C.2    51  GLU51       0.3649
     39  OE1      -41.7140  -18.6440    2.8500 O.co2  51  GLU51      -0.2457
     40  OE2      -39.7670  -18.0210    3.6440 O.co2  51  GLU51      -0.2457
     41  N        -38.0320  -26.4100   10.1760 N.3    87  ILE87      -0.1245
     42  CA       -39.1750  -25.8650    9.4520 C.3    87  ILE87       0.1561
     43  C        -38.6920  -25.4450    8.0640 C.2    87  ILE87       0.2260
     44  O        -37.9830  -24.4350    7.9360 O.2    87  ILE87      -0.2867
     45  CB       -39.8240  -24.6960   10.2070 C.3    87  ILE87       0.0252
     46  CG1      -40.3830  -25.2060   11.5410 C.3    87  ILE87       0.0019
     47  CG2      -40.9310  -24.0430    9.3650 C.3    87  ILE87       0.0019
     48  CD1      -40.9910  -24.1470   12.4250 C.3    87  ILE87       0.0001
     49  N        -38.7900  -24.2820    3.9180 N.3    89  ASP89      -0.1239
     50  CA       -39.5540  -23.3700    3.0780 C.3    89  ASP89       0.1674
     51  C        -40.5530  -24.0980    2.2070 C.2    89  ASP89       0.2266
     52  O        -41.5890  -23.5290    1.8640 O.2    89  ASP89      -0.2867
     53  CB       -38.5880  -22.5400    2.2570 C.3    89  ASP89       0.1410
     54  CG       -37.9290  -21.5030    3.1010 C.2    89  ASP89       0.3668
     55  OD1      -36.7040  -21.3490    3.0320 O.co2  89  ASP89      -0.2456
     56  OD2      -38.6860  -20.8390    3.8520 O.co2  89  ASP89      -0.2456
     57  N        -35.0970  -25.3040    1.0650 N.3   102  GLU102     -0.1231
     58  CA       -34.7020  -24.0820    1.7620 C.3   102  GLU102      0.1699
     59  C        -34.3580  -23.0340    0.7080 C.2   102  GLU102      0.2592
     60  O        -33.6060  -23.3200   -0.2350 O.2   102  GLU102     -0.2718
     61  CB       -33.4690  -24.3060    2.6410 C.3   102  GLU102      0.0402
     62  CG       -33.7210  -25.1480    3.8600 C.3   102  GLU102      0.1161
     63  CD       -34.6360  -24.4760    4.8740 C.2   102  GLU102      0.3649
     64  OE1      -35.3730  -25.2010    5.5570 O.co2 102  GLU102     -0.2457
     65  OE2      -34.6060  -23.2380    5.0120 O.co2 102  GLU102     -0.2457
     66  N        -34.8690  -21.8190    0.8650 N.am  103  CYS103     -0.1970
     67  CA       -34.4980  -20.7740   -0.0790 C.3   103  CYS103      0.1712
     68  C        -34.1850  -19.4910    0.6780 C.2   103  CYS103      0.2296
     69  O        -34.6450  -19.2740    1.8000 O.2   103  CYS103     -0.2864
     70  CB       -35.6000  -20.5830   -1.0990 C.3   103  CYS103      0.0983
     71  SG       -37.1120  -20.0380   -0.3350 S.3   103  CYS103     -0.0798
     72  N        -24.6450  -18.4520    3.7520 N.3   115  LYS115     -0.1245
     73  CA       -26.0090  -18.9130    3.9870 C.3   115  LYS115      0.1561
     74  C        -26.2900  -20.2060    3.2240 C.2   115  LYS115      0.2260
     75  O        -27.0300  -21.0560    3.7090 O.2   115  LYS115     -0.2867
     76  CB       -26.9840  -17.7960    3.5910 C.3   115  LYS115      0.0271
     77  CG       -28.4820  -18.1460    3.6180 C.3   115  LYS115      0.0035
     78  CD       -28.9540  -18.5880    5.0100 C.3   115  LYS115      0.0206
     79  CE       -30.4790  -18.5120    5.0380 C.3   115  LYS115      0.1093
     80  NZ       -31.1890  -19.2490    6.1710 N.3   115  LYS115     -0.1314
     81  N        -28.3260  -27.4230    7.5930 N.3   122  LYS122     -0.1245
     82  CA       -29.5740  -27.5550    8.3330 C.3   122  LYS122      0.1561
     83  C        -30.3760  -28.7670    7.8640 C.2   122  LYS122      0.2260
     84  O        -30.9220  -29.5270    8.6770 O.2   122  LYS122     -0.2867
     85  CB       -30.4000  -26.2730    8.1830 C.3   122  LYS122      0.0271
     86  CG       -31.7880  -26.3660    8.7880 C.3   122  LYS122      0.0035
     87  CD       -32.3190  -24.9740    9.0350 C.3   122  LYS122      0.0206
     88  CE       -33.0440  -24.4380    7.8480 C.3   122  LYS122      0.1093
     89  NZ       -34.5090  -24.3370    8.1920 N.3   122  LYS122     -0.1314
@<TRIPOS>BOND
     1    35    34    2
     2    34    33    1
     3    32    33    1
     4    33    36    1
     5    70    71    1
     6    70    67    1
     7    60    59    2
     8    67    68    1
     9    67    66    1
    10    36    37    1
    11    29    28    2
    12    68    69    2
    13    59    66   am
    14    59    58    1
    15    57    58    1
    16    28    27    1
    17    37    38    1
    18    26    27    1
    19    27    30    1
    20    58    61    1
    21    52    51    2
    22    51    50    1
    23    53    50    1
    24    53    54    1
    25    61    62    1
    26    38    39   ar
    27    38    40   ar
    28    30    31    1
    29    55    54   ar
    30    50    49    1
    31    54    56   ar
    32    74    75    2
    33    74    73    1
    34    20    19    2
    35    76    77    1
    36    76    73    1
    37    77    78    1
    38    12    11    2
    39    72    73    1
    40    62    63    1
    41    19    18    1
    42    16    14    1
    43    11    10    1
    44    11    17   am
    45    10     9    1
    46    10    13    1
    47    63    65   ar
    48    63    64   ar
    49    78    79    1
    50    79    80    1
    51    18    17    1
    52    18    21    1
    53    14    13    1
    54    14    15    1
    55    21    22    1
    56    22    23    1
    57    81    82    1
    58    88    89    1
    59    88    87    1
    60    83    82    1
    61    83    84    2
    62    44    43    2
    63    24    23    1
    64    24    25    1
    65    43    42    1
    66    85    82    1
    67    85    86    1
    68     4     3    2
    69    86    87    1
    70     3     2    1
    71    47    45    1
    72     1     2    1
    73    42    41    1
    74    42    45    1
    75     2     5    1
    76    45    46    1
    77     5     7    1
    78     5     6    1
    79    46    48    1
    80     8     6    1
