@<TRIPOS>MOLECULE
tmp/5ltoB00.pdb
 139 132 0 0 0
SMALL
GASTEIGER

@<TRIPOS>ATOM
      1  N         20.5990   44.9910   20.0620 N.3    58  PHE58      -0.1241
      2  CA        20.4640   45.5620   21.3910 C.3    58  PHE58       0.1605
      3  C         21.8140   45.5410   22.0880 C.2    58  PHE58       0.2264
      4  O         22.5830   44.5860   21.9470 O.2    58  PHE58      -0.2867
      5  CB        19.4330   44.7990   22.2280 C.3    58  PHE58       0.0534
      6  CG        18.0400   44.8580   21.6740 C.ar   58  PHE58      -0.0203
      7  CD1       17.2570   45.9840   21.8590 C.ar   58  PHE58      -0.0042
      8  CD2       17.5140   43.7910   20.9660 C.ar   58  PHE58      -0.0042
      9  CE1       15.9740   46.0450   21.3530 C.ar   58  PHE58      -0.0003
     10  CE2       16.2310   43.8460   20.4560 C.ar   58  PHE58      -0.0003
     11  CZ        15.4600   44.9740   20.6500 C.ar   58  PHE58      -0.0000
     12  N         23.2210   46.2640   26.0440 N.3    60  TYR60      -0.1241
     13  CA        22.5970   46.3440   27.3550 C.3    60  TYR60       0.1605
     14  C         23.6080   46.0780   28.4610 C.2    60  TYR60       0.2264
     15  O         24.7250   45.6120   28.2250 O.2    60  TYR60      -0.2867
     16  CB        21.4310   45.3580   27.4630 C.3    60  TYR60       0.0534
     17  CG        21.7110   44.0230   26.8180 C.ar   60  TYR60      -0.0201
     18  CD1       22.4690   43.0570   27.4680 C.ar   60  TYR60      -0.0009
     19  CD2       21.2250   43.7320   25.5520 C.ar   60  TYR60      -0.0009
     20  CE1       22.7240   41.8360   26.8760 C.ar   60  TYR60       0.0417
     21  CE2       21.4770   42.5180   24.9530 C.ar   60  TYR60       0.0417
     22  CZ        22.2260   41.5740   25.6180 C.ar   60  TYR60       0.1957
     23  OH        22.4730   40.3630   25.0190 O.3    60  TYR60      -0.2866
     24  N         18.5900   46.3250   34.8150 N.3    68  TYR68      -0.1241
     25  CA        18.8530   46.0500   33.4110 C.3    68  TYR68       0.1605
     26  C         18.5690   47.3020   32.5970 C.2    68  TYR68       0.2264
     27  O         17.4940   47.8950   32.7200 O.2    68  TYR68      -0.2867
     28  CB        17.9980   44.8750   32.9220 C.3    68  TYR68       0.0534
     29  CG        18.1650   44.5390   31.4600 C.ar   68  TYR68      -0.0201
     30  CD1       19.1800   43.6930   31.0330 C.ar   68  TYR68      -0.0009
     31  CD2       17.2900   45.0440   30.5080 C.ar   68  TYR68      -0.0009
     32  CE1       19.3310   43.3770   29.6970 C.ar   68  TYR68       0.0417
     33  CE2       17.4300   44.7320   29.1730 C.ar   68  TYR68       0.0417
     34  CZ        18.4530   43.8990   28.7720 C.ar   68  TYR68       0.1957
     35  OH        18.5960   43.5870   27.4390 O.3    68  TYR68      -0.2866
     36  N         18.9330   48.6060   28.5780 N.3    70  ALA70      -0.1245
     37  CA        19.1970   48.2170   27.2010 C.3    70  ALA70       0.1562
     38  C         18.9340   49.3750   26.2490 C.2    70  ALA70       0.2260
     39  O         18.2560   50.3490   26.5890 O.2    70  ALA70      -0.2867
     40  CB        18.3390   47.0160   26.7850 C.3    70  ALA70       0.0290
     41  N         18.1050   49.7080   21.8700 N.3    72  PRO72      -0.2116
     42  CA        16.9610   50.5340   22.2690 C.3    72  PRO72       0.1372
     43  C         15.9590   49.7790   23.1380 C.2    72  PRO72       0.2244
     44  O         16.1350   48.5870   23.3890 O.2    72  PRO72      -0.2868
     45  CB        16.3250   50.9330   20.9270 C.3    72  PRO72       0.0268
     46  CG        17.1290   50.2210   19.8450 C.3    72  PRO72       0.0207
     47  CD        17.9190   49.1540   20.5210 C.3    72  PRO72       0.0892
     48  N         12.5030   47.9270   24.4760 N.3    74  SER74      -0.1217
     49  CA        11.6930   46.8550   23.9150 C.3    74  SER74       0.1889
     50  C         10.8040   46.2980   25.0170 C.2    74  SER74       0.2288
     51  O         10.9990   46.5810   26.2010 O.2    74  SER74      -0.2866
     52  CB        12.5680   45.7570   23.3030 C.3    74  SER74       0.2089
     53  OG        13.5750   45.3450   24.2110 O.3    74  SER74      -0.2183
     54  N         10.0310   43.4070   27.0780 N.3    76  LEU76      -0.1245
     55  CA        10.4540   42.1180   27.5960 C.3    76  LEU76       0.1561
     56  C          9.3900   41.5570   28.5340 C.2    76  LEU76       0.2260
     57  O          8.6120   42.3160   29.1210 O.2    76  LEU76      -0.2867
     58  CB        11.7790   42.2530   28.3430 C.3    76  LEU76       0.0270
     59  CG        12.9940   42.6400   27.4990 C.3    76  LEU76       0.0019
     60  CD1       14.1050   43.1860   28.3800 C.3    76  LEU76       0.0001
     61  CD2       13.4830   41.4480   26.6900 C.3    76  LEU76       0.0001
     62  N         11.3640   39.2910   33.4380 N.3    80  TYR80      -0.1241
     63  CA        12.7120   39.3630   32.8890 C.3    80  TYR80       0.1605
     64  C         13.7480   39.6060   33.9780 C.2    80  TYR80       0.2264
     65  O         13.7800   40.6770   34.5920 O.2    80  TYR80      -0.2867
     66  CB        12.8160   40.4550   31.8240 C.3    80  TYR80       0.0534
     67  CG        14.1520   40.4590   31.1150 C.ar   80  TYR80      -0.0201
     68  CD1       15.1260   41.4000   31.4270 C.ar   80  TYR80      -0.0009
     69  CD2       14.4460   39.5090   30.1460 C.ar   80  TYR80      -0.0009
     70  CE1       16.3510   41.4000   30.7850 C.ar   80  TYR80       0.0417
     71  CE2       15.6660   39.5010   29.5000 C.ar   80  TYR80       0.0417
     72  CZ        16.6150   40.4480   29.8230 C.ar   80  TYR80       0.1957
     73  OH        17.8310   40.4410   29.1800 O.3    80  TYR80      -0.2866
     74  N         19.4100   35.0390   32.0770 N.3    85  ARG85      -0.1245
     75  CA        19.5490   34.9340   30.6350 C.3    85  ARG85       0.1563
     76  C         20.8750   34.2660   30.2740 C.2    85  ARG85       0.2260
     77  O         21.8370   34.3260   31.0450 O.2    85  ARG85      -0.2867
     78  CB        19.4620   36.3140   29.9930 C.3    85  ARG85       0.0307
     79  CG        18.0580   36.9110   30.0020 C.3    85  ARG85       0.0489
     80  CD        16.9610   35.8420   29.9000 C.3    85  ARG85       0.2205
     81  NE        16.9560   35.1210   28.6260 N.pl3  85  ARG85      -0.0865
     82  CZ        16.6290   35.6580   27.4570 C.cat  85  ARG85       0.5346
     83  NH1       16.6520   34.9220   26.3530 N.pl3  85  ARG85       0.1354
     84  NH2       16.2790   36.9350   27.3850 N.pl3  85  ARG85       0.1354
     85  N         23.3420   34.8820   28.1850 N.3    87  TRP87      -0.1241
     86  CA        24.5400   35.7080   28.0650 C.3    87  TRP87       0.1605
     87  C         25.1200   36.0630   29.4270 C.2    87  TRP87       0.2264
     88  O         26.3330   36.2620   29.5520 O.2    87  TRP87      -0.2867
     89  CB        24.2290   36.9750   27.2710 C.3    87  TRP87       0.0550
     90  CG        23.0510   37.7360   27.7850 C.ar   87  TRP87       0.0003
     91  CD1       21.7540   37.6040   27.3850 C.ar   87  TRP87       0.0946
     92  CD2       23.0590   38.7520   28.7950 C.ar   87  TRP87       0.0152
     93  NE1       20.9530   38.4740   28.0820 N.ar   87  TRP87      -0.2442
     94  CE2       21.7300   39.1900   28.9550 C.ar   87  TRP87       0.0810
     95  CE3       24.0600   39.3330   29.5790 C.ar   87  TRP87       0.0012
     96  CZ2       21.3750   40.1820   29.8660 C.ar   87  TRP87       0.0191
     97  CZ3       23.7060   40.3180   30.4830 C.ar   87  TRP87       0.0001
     98  CH2       22.3760   40.7320   30.6190 C.ar   87  TRP87       0.0015
     99  N         20.1710   31.5520   20.5850 N.3   103  TYR103     -0.1241
    100  CA        18.9610   31.4860   21.3870 C.3   103  TYR103      0.1605
    101  C         17.9370   32.4500   20.8100 C.2   103  TYR103      0.2264
    102  O         18.2770   33.4020   20.1040 O.2   103  TYR103     -0.2867
    103  CB        19.2360   31.8160   22.8620 C.3   103  TYR103      0.0534
    104  CG        19.6310   33.2540   23.1220 C.ar  103  TYR103     -0.0201
    105  CD1       20.9310   33.6910   22.9060 C.ar  103  TYR103     -0.0009
    106  CD2       18.7040   34.1710   23.6000 C.ar  103  TYR103     -0.0009
    107  CE1       21.2930   35.0050   23.1480 C.ar  103  TYR103      0.0417
    108  CE2       19.0560   35.4850   23.8450 C.ar  103  TYR103      0.0417
    109  CZ        20.3510   35.8960   23.6180 C.ar  103  TYR103      0.1957
    110  OH        20.7050   37.2040   23.8610 O.3   103  TYR103     -0.2866
    111  N         15.3470   35.4570   20.7270 N.3   105  GLU105     -0.1245
    112  CA        15.3180   36.7510   21.3880 C.3   105  GLU105      0.1567
    113  C         13.8990   37.0560   21.8490 C.2   105  GLU105      0.2260
    114  O         12.9790   37.0530   21.0210 O.2   105  GLU105     -0.2867
    115  CB        15.8100   37.8470   20.4590 C.3   105  GLU105      0.0388
    116  CG        15.2740   39.2280   20.8040 C.3   105  GLU105      0.1160
    117  CD        16.0110   39.9060   21.9480 C.2   105  GLU105      0.3649
    118  OE1       16.3940   39.2320   22.9250 O.co2 105  GLU105     -0.2457
    119  OE2       16.1920   41.1370   21.8720 O.co2 105  GLU105     -0.2457
    120  N         12.4990   39.8530   22.6940 N.3   107  ALA107     -0.1245
    121  CA        11.9370   41.1320   22.2710 C.3   107  ALA107      0.1562
    122  C         11.4530   41.0810   20.8260 C.2   107  ALA107      0.2260
    123  O         10.3350   41.5120   20.5220 O.2   107  ALA107     -0.2867
    124  CB        12.9690   42.2450   22.4570 C.3   107  ALA107      0.0290
    125  N         19.1770   34.9270   17.6450 N.3   112  VAL112     -0.1245
    126  CA        20.3140   35.8210   17.8020 C.3   112  VAL112      0.1561
    127  C         21.4060   35.0810   18.5660 C.2   112  VAL112      0.2260
    128  O         21.2470   33.9220   18.9590 O.2   112  VAL112     -0.2867
    129  CB        19.9370   37.1260   18.5370 C.3   112  VAL112      0.0252
    130  CG1       18.9030   37.9160   17.7490 C.3   112  VAL112      0.0019
    131  CG2       19.4240   36.8150   19.9340 C.3   112  VAL112      0.0019
    132  N         23.7360   41.9950   21.0100 N.3   132  ASP132     -0.1239
    133  CA        23.0860   40.9670   20.2120 C.3   132  ASP132      0.1674
    134  C         23.3860   41.1430   18.7280 C.2   132  ASP132      0.2266
    135  O         23.6030   42.2560   18.2440 O.2   132  ASP132     -0.2867
    136  CB        21.5730   40.9830   20.4410 C.3   132  ASP132      0.1410
    137  CG        21.1960   40.6100   21.8610 C.2   132  ASP132      0.3668
    138  OD1       21.9040   39.7770   22.4640 O.co2 132  ASP132     -0.2456
    139  OD2       20.1920   41.1490   22.3730 O.co2 132  ASP132     -0.2456
@<TRIPOS>BOND
     1   125   126    1
     2   130   129    1
     3   126   129    1
     4   126   127    1
     5   135   134    2
     6   129   131    1
     7   127   128    2
     8   134   133    1
     9    46    47    1
    10    46    45    1
    11     1     2    1
    12   102   101    2
    13   133   136    1
    14   133   132    1
    15   136   137    1
    16    10    11   ar
    17    10     8   ar
    18   115   116    1
    19   115   112    1
    20    47    41    1
    21   123   122    2
    22    99   100    1
    23    11     9   ar
    24   111   112    1
    25   116   117    1
    26   101   100    1
    27   122   121    1
    28    45    42    1
    29     8     6   ar
    30   114   113    2
    31     9     7   ar
    32   100   103    1
    33   112   113    1
    34     2     3    1
    35     2     5    1
    36     6     7   ar
    37     6     5    1
    38   137   139   ar
    39   137   138   ar
    40    41    42    1
    41   119   117   ar
    42     4     3    2
    43   117   118   ar
    44    42    43    1
    45   121   124    1
    46   121   120    1
    47   103   104    1
    48   105   104   ar
    49   105   107   ar
    50   104   106   ar
    51    43    44    2
    52   107   109   ar
    53    52    49    1
    54    52    53    1
    55   106   108   ar
    56   109   108   ar
    57   109   110    1
    58    49    48    1
    59    49    50    1
    60    21    19   ar
    61    21    22   ar
    62    50    51    2
    63    23    22    1
    64    19    17   ar
    65    22    20   ar
    66    12    13    1
    67    38    39    2
    68    38    37    1
    69    83    82    1
    70    61    59    1
    71    40    37    1
    72    17    16    1
    73    17    18   ar
    74    20    18   ar
    75    54    55    1
    76    37    36    1
    77    89    90    1
    78    89    86    1
    79    13    16    1
    80    13    14    1
    81    84    82    1
    82    91    90   ar
    83    91    93   ar
    84    35    34    1
    85    82    81    2
    86    59    58    1
    87    59    60    1
    88    55    58    1
    89    55    56    1
    90    90    92   ar
    91    86    85    1
    92    86    87    1
    93    93    94   ar
    94    15    14    2
    95    56    57    2
    96    81    80    1
    97    34    33   ar
    98    34    32   ar
    99    92    94   ar
   100    92    95   ar
   101    94    96   ar
   102    33    31   ar
   103    73    72    1
   104    87    88    2
   105    71    72   ar
   106    71    69   ar
   107    95    97   ar
   108    32    30   ar
   109    72    70   ar
   110    96    98   ar
   111    80    79    1
   112    78    79    1
   113    78    75    1
   114    69    67   ar
   115    76    75    1
   116    76    77    2
   117    97    98   ar
   118    31    29   ar
   119    75    74    1
   120    70    68   ar
   121    30    29   ar
   122    67    68   ar
   123    67    66    1
   124    29    28    1
   125    66    63    1
   126    26    27    2
   127    26    25    1
   128    63    62    1
   129    63    64    1
   130    28    25    1
   131    25    24    1
   132    64    65    2
