@<TRIPOS>MOLECULE
tmp/5lttL00.pdb
 96 95 0 0 0
SMALL
GASTEIGER

@<TRIPOS>ATOM
      1  N          4.9580 -135.1640   29.8010 N.3   108  HIS108     -0.1241
      2  CA         4.1240 -135.0850   28.6130 C.3   108  HIS108      0.1621
      3  C          2.9780 -134.1770   28.9390 C.2   108  HIS108      0.2264
      4  O          2.1930 -134.4630   29.7880 O.2   108  HIS108     -0.2867
      5  CB         3.5780 -136.4400   28.2190 C.3   108  HIS108      0.0745
      6  CG         4.5980 -137.3540   27.6270 C.ar  108  HIS108      0.0817
      7  ND1        5.5070 -136.9440   26.6780 N.ar  108  HIS108     -0.2268
      8  CD2        4.8560 -138.6620   27.8480 C.ar  108  HIS108      0.1154
      9  CE1        6.2840 -137.9530   26.3470 C.ar  108  HIS108      0.1986
     10  NE2        5.9120 -139.0060   27.0440 N.ar  108  HIS108     -0.2212
     11  N         -1.0270 -131.0960   22.1420 N.3   124  SER124     -0.1202
     12  CA        -0.1740 -132.1100   22.7400 C.3   124  SER124      0.2020
     13  C          1.2780 -131.6950   22.5880 C.2   124  SER124      0.2619
     14  O          1.6680 -131.1870   21.5390 O.2   124  SER124     -0.2717
     15  CB        -0.4130 -133.4450   22.0430 C.3   124  SER124      0.2103
     16  OG         0.3970 -134.4680   22.5870 O.3   124  SER124     -0.2182
     17  N          2.0700 -131.9190   23.6350 N.am  125  PHE125     -0.1961
     18  CA         3.4760 -131.5230   23.6630 C.3   125  PHE125      0.1771
     19  C          4.3760 -132.7150   23.9530 C.2   125  PHE125      0.2620
     20  O          3.9150 -133.7390   24.4510 O.2   125  PHE125     -0.2715
     21  CB         3.7070 -130.4710   24.7530 C.3   125  PHE125      0.0574
     22  CG         2.8500 -129.2500   24.6110 C.ar  125  PHE125     -0.0200
     23  CD1        1.5170 -129.2700   25.0030 C.ar  125  PHE125     -0.0042
     24  CD2        3.3770 -128.0770   24.0990 C.ar  125  PHE125     -0.0042
     25  CE1        0.7240 -128.1460   24.8750 C.ar  125  PHE125     -0.0003
     26  CE2        2.5900 -126.9490   23.9680 C.ar  125  PHE125     -0.0003
     27  CZ         1.2610 -126.9830   24.3580 C.ar  125  PHE125     -0.0000
     28  N          5.6620 -132.5690   23.6420 N.am  126  ASP126     -0.1958
     29  CA         6.6850 -133.4940   24.1240 C.3   126  ASP126      0.1825
     30  C          7.4640 -132.7780   25.2360 C.2   126  ASP126      0.2464
     31  O          7.1760 -131.6140   25.5320 O.2   126  ASP126     -0.2730
     32  CB         7.5730 -133.9940   22.9670 C.3   126  ASP126      0.1450
     33  CG         8.5990 -132.9670   22.4900 C.2   126  ASP126      0.3671
     34  OD1        8.5640 -131.7940   22.9160 O.co2 126  ASP126     -0.2456
     35  OD2        9.4460 -133.3460   21.6530 O.co2 126  ASP126     -0.2456
     36  N          8.4240 -133.4660   25.8790 N.am  127  PRO127     -0.2715
     37  CA         9.1580 -132.8340   26.9870 C.3   127  PRO127      0.1536
     38  C         10.0080 -131.6140   26.6370 C.2   127  PRO127      0.2598
     39  O         10.2850 -130.7930   27.5170 O.2   127  PRO127     -0.2715
     40  CB        10.0590 -133.9640   27.4840 C.3   127  PRO127      0.0310
     41  CG         9.2760 -135.1940   27.1840 C.3   127  PRO127      0.0237
     42  CD         8.6650 -134.9210   25.8420 C.3   127  PRO127      0.0939
     43  N         10.4150 -131.4910   25.3780 N.am  128  VAL128     -0.1978
     44  CA        11.2710 -130.3780   24.9640 C.3   128  VAL128      0.1596
     45  C         10.5410 -129.3140   24.1300 C.2   128  VAL128      0.2287
     46  O         11.1780 -128.4210   23.5740 O.2   128  VAL128     -0.2864
     47  CB        12.5580 -130.8640   24.2500 C.3   128  VAL128      0.0276
     48  CG1       13.6030 -131.2640   25.2810 C.3   128  VAL128      0.0022
     49  CG2       12.2770 -132.0180   23.2960 C.3   128  VAL128      0.0022
     50  N          8.0330 -129.5140   21.4640 N.3   130  SER130     -0.1202
     51  CA         7.3910 -129.7340   20.1690 C.3   130  SER130      0.2020
     52  C          5.9010 -129.9760   20.3880 C.2   130  SER130      0.2619
     53  O          5.5180 -130.7810   21.2360 O.2   130  SER130     -0.2717
     54  CB         8.0190 -130.9130   19.4200 C.3   130  SER130      0.2103
     55  OG         7.6460 -132.1560   19.9850 O.3   130  SER130     -0.2182
     56  N          5.0620 -129.2680   19.6380 N.am  131  TYR131     -0.1961
     57  CA         3.6210 -129.3510   19.8480 C.3   131  TYR131      0.1771
     58  C          2.8000 -129.3220   18.5650 C.2   131  TYR131      0.2619
     59  O          3.2830 -128.9700   17.4880 O.2   131  TYR131     -0.2715
     60  CB         3.1560 -128.2310   20.7870 C.3   131  TYR131      0.0574
     61  CG         2.9690 -126.8870   20.1180 C.ar  131  TYR131     -0.0198
     62  CD1        4.0630 -126.0840   19.8110 C.ar  131  TYR131     -0.0009
     63  CD2        1.6970 -126.4170   19.7970 C.ar  131  TYR131     -0.0009
     64  CE1        3.8980 -124.8530   19.1990 C.ar  131  TYR131      0.0417
     65  CE2        1.5210 -125.1860   19.1850 C.ar  131  TYR131      0.0417
     66  CZ         2.6250 -124.4080   18.8890 C.ar  131  TYR131      0.1957
     67  OH         2.4630 -123.1840   18.2830 O.3   131  TYR131     -0.2866
     68  N          1.5390 -129.6990   18.7150 N.am  132  GLU132     -0.1977
     69  CA         0.5910 -129.7390   17.6140 C.3   132  GLU132      0.1602
     70  C         -0.8240 -129.7270   18.1370 C.2   132  GLU132      0.2287
     71  O         -1.0950 -130.2240   19.2330 O.2   132  GLU132     -0.2864
     72  CB         0.7570 -131.0210   16.8080 C.3   132  GLU132      0.0415
     73  CG         1.3160 -130.8310   15.4130 C.3   132  GLU132      0.1163
     74  CD         0.7960 -131.8720   14.4460 C.2   132  GLU132      0.3649
     75  OE1        0.5130 -133.0130   14.8840 O.co2 132  GLU132     -0.2457
     76  OE2        0.6680 -131.5410   13.2480 O.co2 132  GLU132     -0.2457
     77  N         -4.3780 -131.3740   17.9910 N.3   134  GLU134     -0.1245
     78  CA        -4.8130 -132.7340   17.7220 C.3   134  GLU134      0.1567
     79  C         -6.2660 -132.8970   18.1100 C.2   134  GLU134      0.2260
     80  O         -6.8220 -132.0840   18.8460 O.2   134  GLU134     -0.2867
     81  CB        -3.9430 -133.7300   18.4930 C.3   134  GLU134      0.0388
     82  CG        -2.5230 -133.8370   17.9510 C.3   134  GLU134      0.1160
     83  CD        -1.6330 -134.7680   18.7550 C.2   134  GLU134      0.3649
     84  OE1       -0.6130 -135.2300   18.1980 O.co2 134  GLU134     -0.2457
     85  OE2       -1.9430 -135.0350   19.9360 O.co2 134  GLU134     -0.2457
     86  N         -5.7030 -137.4460   22.0740 N.3   137  ARG137     -0.1245
     87  CA        -4.3750 -137.7520   22.6000 C.3   137  ARG137      0.1563
     88  C         -4.3910 -138.3070   24.0190 C.2   137  ARG137      0.2260
     89  O         -4.9450 -137.6980   24.9290 O.2   137  ARG137     -0.2867
     90  CB        -3.4780 -136.5100   22.5430 C.3   137  ARG137      0.0307
     91  CG        -2.1260 -136.6610   23.2330 C.3   137  ARG137      0.0489
     92  CD        -1.2670 -137.7500   22.6090 C.3   137  ARG137      0.2205
     93  NE        -0.6950 -137.3370   21.3300 N.pl3 137  ARG137     -0.0865
     94  CZ         0.0660 -138.1070   20.5570 C.cat 137  ARG137      0.5346
     95  NH1        0.3620 -139.3520   20.9200 N.pl3 137  ARG137      0.1354
     96  NH2        0.5340 -137.6330   19.4100 N.pl3 137  ARG137      0.1354
@<TRIPOS>BOND
     1    76    74   ar
     2    74    75   ar
     3    74    73    1
     4    73    72    1
     5    72    69    1
     6    59    58    2
     7    69    70    1
     8    69    68    1
     9    78    77    1
    10    78    79    1
    11    78    81    1
    12    82    81    1
    13    82    83    1
    14    79    80    2
    15    70    71    2
    16    84    83   ar
    17    67    66    1
    18    58    68   am
    19    58    57    1
    20    83    85   ar
    21    66    65   ar
    22    66    64   ar
    23    65    63   ar
    24    64    62   ar
    25    96    94    1
    26    54    55    1
    27    54    51    1
    28    56    57    1
    29    56    52   am
    30    63    61   ar
    31    62    61   ar
    32    57    60    1
    33    61    60    1
    34    51    52    1
    35    51    50    1
    36    52    53    2
    37    94    95    1
    38    94    93    2
    39    93    92    1
    40    14    13    2
    41    35    33   ar
    42    15    16    1
    43    15    12    1
    44    86    87    1
    45    11    12    1
    46    33    34   ar
    47    33    32    1
    48    90    87    1
    49    90    91    1
    50    13    12    1
    51    13    17   am
    52    87    88    1
    53    92    91    1
    54    32    29    1
    55    49    47    1
    56    46    45    2
    57    17    18    1
    58    28    19   am
    59    28    29    1
    60    18    19    1
    61    18    21    1
    62    19    20    2
    63    26    24   ar
    64    26    27   ar
    65    88    89    2
    66    24    22   ar
    67    29    30    1
    68    45    44    1
    69    47    44    1
    70    47    48    1
    71    27    25   ar
    72    22    21    1
    73    22    23   ar
    74    25    23   ar
    75    44    43    1
    76    30    31    2
    77    30    36   am
    78    43    38   am
    79    42    36    1
    80    42    41    1
    81    36    37    1
    82     9     7   ar
    83     9    10   ar
    84    38    37    1
    85    38    39    2
    86     7     6   ar
    87    37    40    1
    88    10     8   ar
    89    41    40    1
    90     6     8   ar
    91     6     5    1
    92     5     2    1
    93     2     3    1
    94     2     1    1
    95     3     4    2
