@<TRIPOS>MOLECULE
tmp/5ltvA00.pdb
 122 116 0 0 0
SMALL
GASTEIGER

@<TRIPOS>ATOM
      1  N         30.7340   61.4600   69.7340 N.3    62  SER62      -0.1217
      2  CA        30.3340   61.5160   71.1280 C.3    62  SER62       0.1889
      3  C         29.3700   62.6760   71.2980 C.2    62  SER62       0.2288
      4  O         29.3230   63.6100   70.4740 O.2    62  SER62      -0.2866
      5  CB        31.5250   61.6750   72.0680 C.3    62  SER62       0.2089
      6  OG        32.2340   62.8570   71.7210 O.3    62  SER62      -0.2183
      7  N         27.7870   65.1610   74.7280 N.3    64  TYR64      -0.1241
      8  CA        28.3290   65.6010   76.0040 C.3    64  TYR64       0.1605
      9  C         27.6400   66.8640   76.4940 C.2    64  TYR64       0.2264
     10  O         27.0530   67.6290   75.7240 O.2    64  TYR64      -0.2867
     11  CB        29.8430   65.8200   75.9570 C.3    64  TYR64       0.0534
     12  CG        30.4390   66.4600   74.7210 C.ar   64  TYR64      -0.0201
     13  CD1       30.8340   65.6780   73.6340 C.ar   64  TYR64      -0.0009
     14  CD2       30.7050   67.8440   74.6700 C.ar   64  TYR64      -0.0009
     15  CE1       31.4330   66.2630   72.4920 C.ar   64  TYR64       0.0417
     16  CE2       31.3210   68.4320   73.5450 C.ar   64  TYR64       0.0417
     17  CZ        31.6800   67.6350   72.4640 C.ar   64  TYR64       0.1957
     18  OH        32.2810   68.1780   71.3440 O.3    64  TYR64      -0.2866
     19  N         31.9490   67.4860   83.3120 N.3    73  PHE73      -0.1241
     20  CA        31.9000   67.1460   81.9050 C.3    73  PHE73       0.1605
     21  C         31.4460   65.6930   81.8060 C.2    73  PHE73       0.2264
     22  O         32.1530   64.7860   82.2710 O.2    73  PHE73      -0.2867
     23  CB        33.2730   67.3550   81.2670 C.3    73  PHE73       0.0534
     24  CG        33.3130   67.0480   79.7850 C.ar   73  PHE73      -0.0203
     25  CD1       32.6840   67.8870   78.8770 C.ar   73  PHE73      -0.0042
     26  CD2       33.9860   65.9240   79.3110 C.ar   73  PHE73      -0.0042
     27  CE1       32.7230   67.6150   77.5190 C.ar   73  PHE73      -0.0003
     28  CE2       34.0190   65.6310   77.9700 C.ar   73  PHE73      -0.0003
     29  CZ        33.3810   66.4870   77.0610 C.ar   73  PHE73      -0.0000
     30  N         30.4270   62.8460   79.0870 N.3    75  MET75      -0.1245
     31  CA        30.5500   62.4880   77.6940 C.3    75  MET75       0.1570
     32  C         30.2040   61.0140   77.4970 C.2    75  MET75       0.2261
     33  O         30.6710   60.1660   78.2660 O.2    75  MET75      -0.2867
     34  CB        31.9570   62.6990   77.2340 C.3    75  MET75       0.0387
     35  CG        32.2030   62.1510   75.8410 C.3    75  MET75       0.0595
     36  SD        33.7870   62.8110   75.1050 S.3    75  MET75      -0.1393
     37  CE        34.9150   61.6660   75.7770 C.3    75  MET75       0.0692
     38  N         39.7610   62.5060   79.3240 N.3    81  MET81      -0.1245
     39  CA        40.1070   63.8440   78.8720 C.3    81  MET81       0.1570
     40  C         41.3980   64.2370   79.5630 C.2    81  MET81       0.2261
     41  O         41.7860   63.6170   80.5600 O.2    81  MET81      -0.2867
     42  CB        39.0020   64.8600   79.2140 C.3    81  MET81       0.0387
     43  CG        37.7010   64.6320   78.4470 C.3    81  MET81       0.0595
     44  SD        37.7710   65.0630   76.6930 S.3    81  MET81      -0.1393
     45  CE        37.8090   63.4480   76.0770 C.3    81  MET81       0.0692
     46  N         41.1220   69.2910   82.3090 N.3    85  TYR85      -0.1241
     47  CA        40.1610   69.6730   81.2800 C.3    85  TYR85       0.1605
     48  C         38.9460   70.3850   81.8870 C.2    85  TYR85       0.2264
     49  O         38.3320   69.9010   82.8380 O.2    85  TYR85      -0.2867
     50  CB        39.7020   68.4390   80.4950 C.3    85  TYR85       0.0534
     51  CG        38.6800   68.7850   79.4380 C.ar   85  TYR85      -0.0201
     52  CD1       39.0780   69.3440   78.2220 C.ar   85  TYR85      -0.0009
     53  CD2       37.3050   68.5860   79.6630 C.ar   85  TYR85      -0.0009
     54  CE1       38.1490   69.6550   77.2410 C.ar   85  TYR85       0.0417
     55  CE2       36.3540   68.9040   78.6780 C.ar   85  TYR85       0.0417
     56  CZ        36.7860   69.4310   77.4820 C.ar   85  TYR85       0.1957
     57  OH        35.8600   69.7660   76.5380 O.3    85  TYR85      -0.2866
     58  N         36.3800   76.0790   76.3570 N.3    90  ARG90      -0.1245
     59  CA        36.5420   75.6400   74.9850 C.3    90  ARG90       0.1563
     60  C         35.5750   76.3720   74.0640 C.2    90  ARG90       0.2260
     61  O         34.4610   76.7470   74.4680 O.2    90  ARG90      -0.2867
     62  CB        36.3530   74.1190   74.8860 C.3    90  ARG90       0.0307
     63  CG        37.3680   73.2870   75.7850 C.3    90  ARG90       0.0489
     64  CD        38.6670   72.9700   75.0480 C.3    90  ARG90       0.2205
     65  NE        38.4540   72.0410   73.9280 N.pl3  90  ARG90      -0.0865
     66  CZ        39.2040   71.9960   72.8180 C.cat  90  ARG90       0.5346
     67  NH1       40.2050   72.8420   72.6710 N.pl3  90  ARG90       0.1354
     68  NH2       38.9390   71.1270   71.8510 N.pl3  90  ARG90       0.1354
     69  N         33.6540   75.4780   71.6310 N.3    92  TRP92      -0.1241
     70  CA        32.3080   74.9710   71.3650 C.3    92  TRP92       0.1605
     71  C         31.3740   75.3310   72.5030 C.2    92  TRP92       0.2264
     72  O         30.1570   75.4370   72.3090 O.2    92  TRP92      -0.2867
     73  CB        32.3200   73.4530   71.1500 C.3    92  TRP92       0.0550
     74  CG        32.8410   72.6470   72.3390 C.ar   92  TRP92       0.0003
     75  CD1       34.0870   72.1490   72.4720 C.ar   92  TRP92       0.0946
     76  CD2       32.1140   72.2470   73.5220 C.ar   92  TRP92       0.0152
     77  NE1       34.2030   71.4420   73.6660 N.ar   92  TRP92      -0.2442
     78  CE2       33.0120   71.4970   74.3340 C.ar   92  TRP92       0.0810
     79  CE3       30.7990   72.4420   73.9730 C.ar   92  TRP92       0.0012
     80  CZ2       32.6390   70.9450   75.5620 C.ar   92  TRP92       0.0191
     81  CZ3       30.4160   71.8790   75.1860 C.ar   92  TRP92       0.0001
     82  CH2       31.3400   71.1410   75.9760 C.ar   92  TRP92       0.0015
     83  N         37.9700   71.5930   64.6220 N.3   108  PHE108     -0.1241
     84  CA        39.0030   71.7640   65.6200 C.3   108  PHE108      0.1605
     85  C         39.5030   70.3690   65.9570 C.2   108  PHE108      0.2264
     86  O         39.0970   69.3750   65.3320 O.2   108  PHE108     -0.2867
     87  CB        38.4980   72.5670   66.8360 C.3   108  PHE108      0.0534
     88  CG        37.3360   71.9360   67.5620 C.ar  108  PHE108     -0.0203
     89  CD1       36.0100   72.1330   67.1110 C.ar  108  PHE108     -0.0042
     90  CD2       37.5610   71.1740   68.7150 C.ar  108  PHE108     -0.0042
     91  CE1       34.9430   71.5600   67.7760 C.ar  108  PHE108     -0.0003
     92  CE2       36.5020   70.6350   69.4090 C.ar  108  PHE108     -0.0003
     93  CZ        35.1810   70.8120   68.9510 C.ar  108  PHE108     -0.0000
     94  N         39.8870   67.4020   68.6210 N.3   110  ASP110     -0.1225
     95  CA        39.3330   66.8030   69.8460 C.3   110  ASP110      0.1805
     96  C         40.3800   66.7560   70.9600 C.2   110  ASP110      0.2597
     97  O         41.4820   66.2440   70.7600 O.2   110  ASP110     -0.2718
     98  CB        38.8410   65.4060   69.5130 C.3   110  ASP110      0.1424
     99  CG        38.1290   64.7160   70.6490 C.2   110  ASP110      0.3668
    100  OD1       38.6440   64.6330   71.7810 O.co2 110  ASP110     -0.2456
    101  OD2       37.0300   64.1950   70.3670 O.co2 110  ASP110     -0.2456
    102  N         40.0270   67.2770   72.1450 N.am  111  ALA111     -0.1979
    103  CA        40.9910   67.3620   73.2350 C.3   111  ALA111      0.1597
    104  C         41.3600   66.0050   73.8050 C.2   111  ALA111      0.2287
    105  O         42.3860   65.8890   74.4760 O.2   111  ALA111     -0.2864
    106  CB        40.4640   68.2450   74.3670 C.3   111  ALA111      0.0319
    107  N         37.6690   67.1370   64.3810 N.3   117  ILE117     -0.1245
    108  CA        36.2160   67.0340   64.5130 C.3   117  ILE117      0.1561
    109  C         35.5400   68.3880   64.3020 C.2   117  ILE117      0.2260
    110  O         36.1740   69.4480   64.2220 O.2   117  ILE117     -0.2867
    111  CB        35.8110   66.4710   65.8870 C.3   117  ILE117      0.0252
    112  CG1       36.2740   67.4230   66.9990 C.3   117  ILE117      0.0019
    113  CG2       36.3790   65.0410   66.0700 C.3   117  ILE117      0.0019
    114  CD1       35.7050   67.1090   68.4010 C.3   117  ILE117      0.0001
    115  N         29.7230   65.8010   68.6060 N.3   137  ASP137     -0.1239
    116  CA        30.7100   66.0500   67.5740 C.3   137  ASP137      0.1674
    117  C         30.8090   64.8520   66.6210 C.2   137  ASP137      0.2266
    118  O         30.3550   63.7410   66.9250 O.2   137  ASP137     -0.2867
    119  CB        32.0720   66.4110   68.1660 C.3   137  ASP137      0.1410
    120  CG        32.5890   65.3610   69.1440 C.2   137  ASP137      0.3668
    121  OD1       32.3760   64.1490   68.9110 O.co2 137  ASP137     -0.2456
    122  OD2       33.2030   65.7550   70.1630 O.co2 137  ASP137     -0.2456
@<TRIPOS>BOND
     1   110   109    2
     2   109   108    1
     3   107   108    1
     4   108   111    1
     5    83    84    1
     6    86    85    2
     7    84    85    1
     8    84    87    1
     9   111   113    1
    10   111   112    1
    11   117   118    2
    12   117   116    1
    13    87    88    1
    14   112   114    1
    15    89    88   ar
    16    89    91   ar
    17    88    90   ar
    18   116   119    1
    19   116   115    1
    20    91    93   ar
    21   119   120    1
    22    94    95    1
    23    90    92   ar
    24   121   120   ar
    25    93    92   ar
    26   120   122   ar
    27    98    95    1
    28    98    99    1
    29     1     2    1
    30    95    96    1
    31   101    99   ar
    32     4     3    2
    33    99   100   ar
    34    97    96    2
    35    96   102   am
    36     2     3    1
    37     2     5    1
    38    73    70    1
    39    73    74    1
    40    18    17    1
    41    70    69    1
    42    70    71    1
    43     6     5    1
    44    68    66    1
    45   102   103    1
    46    72    71    2
    47    74    75   ar
    48    74    76   ar
    49    17    15   ar
    50    17    16   ar
    51    75    77   ar
    52    15    13   ar
    53    67    66    1
    54    66    65    2
    55   103   104    1
    56   103   106    1
    57    76    79   ar
    58    76    78   ar
    59    16    14   ar
    60    13    12   ar
    61    77    78   ar
    62   104   105    2
    63    65    64    1
    64    79    81   ar
    65    60    61    2
    66    60    59    1
    67    78    80   ar
    68    14    12   ar
    69    12    11    1
    70     7     8    1
    71    62    59    1
    72    62    63    1
    73    59    58    1
    74    64    63    1
    75    36    37    1
    76    36    35    1
    77    81    82   ar
    78    80    82   ar
    79    10     9    2
    80    35    34    1
    81    11     8    1
    82     8     9    1
    83    45    44    1
    84    57    56    1
    85    44    43    1
    86    29    27   ar
    87    29    28   ar
    88    34    31    1
    89    54    56   ar
    90    54    52   ar
    91    56    55   ar
    92    32    31    1
    93    32    33    2
    94    27    25   ar
    95    31    30    1
    96    28    26   ar
    97    52    51   ar
    98    43    42    1
    99    55    53   ar
   100    39    42    1
   101    39    38    1
   102    39    40    1
   103    25    24   ar
   104    26    24   ar
   105    51    53   ar
   106    51    50    1
   107    40    41    2
   108    24    23    1
   109    50    47    1
   110    23    20    1
   111    47    48    1
   112    47    46    1
   113    21    20    1
   114    21    22    2
   115    48    49    2
   116    20    19    1
