@<TRIPOS>MOLECULE
tmp/5ltxA00.pdb
 140 136 0 0 0
SMALL
GASTEIGER

@<TRIPOS>ATOM
      1  N        -29.5590   -0.8580  -18.4830 N.3    70  PHE70      -0.1241
      2  CA       -30.9270   -0.7250  -18.9570 C.3    70  PHE70       0.1605
      3  C        -31.3250    0.7390  -18.8690 C.2    70  PHE70       0.2264
      4  O        -30.8740    1.4630  -17.9790 O.2    70  PHE70      -0.2867
      5  CB       -31.9140   -1.5630  -18.1310 C.3    70  PHE70       0.0534
      6  CG       -31.6350   -3.0350  -18.1580 C.ar   70  PHE70      -0.0203
      7  CD1      -32.1140   -3.8250  -19.1920 C.ar   70  PHE70      -0.0042
      8  CD2      -30.9040   -3.6320  -17.1470 C.ar   70  PHE70      -0.0042
      9  CE1      -31.8590   -5.1930  -19.2140 C.ar   70  PHE70      -0.0003
     10  CE2      -30.6500   -4.9930  -17.1620 C.ar   70  PHE70      -0.0003
     11  CZ       -31.1270   -5.7720  -18.1960 C.ar   70  PHE70      -0.0000
     12  N        -35.1110    3.0300  -19.0920 N.3    72  TYR72      -0.1241
     13  CA       -36.5290    2.7110  -19.0030 C.3    72  TYR72       0.1605
     14  C        -37.3580    3.9360  -18.6660 C.2    72  TYR72       0.2264
     15  O        -36.8570    4.9290  -18.1320 O.2    72  TYR72      -0.2867
     16  CB       -36.7880    1.6140  -17.9680 C.3    72  TYR72       0.0534
     17  CG       -36.0020    1.7390  -16.6840 C.ar   72  TYR72      -0.0201
     18  CD1      -36.4280    2.5750  -15.6570 C.ar   72  TYR72      -0.0009
     19  CD2      -34.8390    0.9980  -16.4910 C.ar   72  TYR72      -0.0009
     20  CE1      -35.7150    2.6700  -14.4720 C.ar   72  TYR72       0.0417
     21  CE2      -34.1270    1.0830  -15.3150 C.ar   72  TYR72       0.0417
     22  CZ       -34.5660    1.9220  -14.3100 C.ar   72  TYR72       0.1957
     23  OH       -33.8520    2.0060  -13.1440 O.3    72  TYR72      -0.2866
     24  N        -44.6980    0.4210  -17.8250 N.3    80  PHE80      -0.1241
     25  CA       -43.2430    0.3480  -17.7780 C.3    80  PHE80       0.1605
     26  C        -42.6870   -0.1860  -19.0940 C.2    80  PHE80       0.2264
     27  O        -43.1320   -1.2300  -19.5840 O.2    80  PHE80      -0.2867
     28  CB       -42.8020   -0.5420  -16.6120 C.3    80  PHE80       0.0534
     29  CG       -41.3110   -0.6230  -16.4300 C.ar   80  PHE80      -0.0203
     30  CD1      -40.6100    0.4370  -15.8740 C.ar   80  PHE80      -0.0042
     31  CD2      -40.6180   -1.7670  -16.7940 C.ar   80  PHE80      -0.0042
     32  CE1      -39.2440    0.3590  -15.6850 C.ar   80  PHE80      -0.0003
     33  CE2      -39.2470   -1.8510  -16.6150 C.ar   80  PHE80      -0.0003
     34  CZ       -38.5590   -0.7900  -16.0570 C.ar   80  PHE80      -0.0000
     35  N        -38.8360   -0.8650  -20.9750 N.3    82  MET82      -0.1245
     36  CA       -37.4150   -0.9640  -20.6700 C.3    82  MET82       0.1570
     37  C        -36.6590   -1.5770  -21.8380 C.2    82  MET82       0.2261
     38  O        -37.1370   -2.5240  -22.4690 O.2    82  MET82      -0.2867
     39  CB       -37.1680   -1.8100  -19.4090 C.3    82  MET82       0.0387
     40  CG       -35.6990   -1.8880  -18.9790 C.3    82  MET82       0.0595
     41  SD       -35.4740   -2.6190  -17.3330 S.3    82  MET82      -0.1393
     42  CE       -36.1730   -4.2310  -17.5990 C.3    82  MET82       0.0692
     43  N        -39.7970   -9.9880  -16.7040 N.3    88  MET88      -0.1231
     44  CA       -40.3380   -9.0890  -15.6940 C.3    88  MET88       0.1687
     45  C        -40.7910   -9.8580  -14.4640 C.2    88  MET88       0.2434
     46  O        -41.5020  -10.8650  -14.5930 O.2    88  MET88      -0.2733
     47  CB       -41.5080   -8.2830  -16.2660 C.3    88  MET88       0.0400
     48  CG       -41.0780   -7.2020  -17.2440 C.3    88  MET88       0.0596
     49  SD       -40.1110   -5.9280  -16.4060 S.3    88  MET88      -0.1393
     50  CE       -41.3420   -5.2740  -15.2800 C.3    88  MET88       0.0692
     51  N        -40.4180   -9.4080  -13.2670 N.am   89  PRO89      -0.2729
     52  CA       -40.8990  -10.0650  -12.0500 C.3    89  PRO89       0.1401
     53  C        -42.3610   -9.7380  -11.8000 C.2    89  PRO89       0.2269
     54  O        -42.8390   -8.6470  -12.1200 O.2    89  PRO89      -0.2865
     55  CB       -40.0030   -9.4830  -10.9480 C.3    89  PRO89       0.0296
     56  CG       -39.4590   -8.1920  -11.5120 C.3    89  PRO89       0.0237
     57  CD       -39.7210   -8.1400  -12.9880 C.3    89  PRO89       0.0939
     58  N        -44.6150   -6.1400  -10.3940 N.3    92  TYR92      -0.1241
     59  CA       -43.7650   -4.9630  -10.5040 C.3    92  TYR92       0.1605
     60  C        -44.6010   -3.7110  -10.7380 C.2    92  TYR92       0.2264
     61  O        -45.5430   -3.7150  -11.5340 O.2    92  TYR92      -0.2867
     62  CB       -42.7660   -5.1420  -11.6460 C.3    92  TYR92       0.0534
     63  CG       -41.7590   -4.0250  -11.7850 C.ar   92  TYR92      -0.0201
     64  CD1      -40.6170   -3.9960  -10.9940 C.ar   92  TYR92      -0.0009
     65  CD2      -41.9350   -3.0090  -12.7210 C.ar   92  TYR92      -0.0009
     66  CE1      -39.6820   -2.9820  -11.1210 C.ar   92  TYR92       0.0417
     67  CE2      -41.0040   -1.9930  -12.8570 C.ar   92  TYR92       0.0417
     68  CZ       -39.8800   -1.9850  -12.0530 C.ar   92  TYR92       0.1957
     69  OH       -38.9490   -0.9790  -12.1710 O.3    92  TYR92      -0.2866
     70  N        -40.7070    2.0550   -6.8070 N.3    97  ARG97      -0.1245
     71  CA       -39.2930    1.7130   -6.8010 C.3    97  ARG97       0.1563
     72  C        -38.4470    2.8870   -6.3120 C.2    97  ARG97       0.2260
     73  O        -38.8670    4.0450   -6.4040 O.2    97  ARG97      -0.2867
     74  CB       -38.8480    1.2910   -8.2010 C.3    97  ARG97       0.0307
     75  CG       -39.5910    0.0650   -8.7300 C.3    97  ARG97       0.0489
     76  CD       -39.3370   -1.1430   -7.8400 C.3    97  ARG97       0.2205
     77  NE       -37.9550   -1.6050   -7.9560 N.pl3  97  ARG97      -0.0865
     78  CZ       -37.2760   -2.1870   -6.9710 C.cat  97  ARG97       0.5346
     79  NH1      -37.8500   -2.3690   -5.7920 N.pl3  97  ARG97       0.1354
     80  NH2      -36.0220   -2.5790   -7.1620 N.pl3  97  ARG97       0.1354
     81  N        -35.7730    4.4060   -7.4510 N.3    99  TRP99      -0.1241
     82  CA       -35.4210    5.3970   -8.4650 C.3    99  TRP99       0.1605
     83  C        -36.5950    6.3130   -8.7830 C.2    99  TRP99       0.2264
     84  O        -36.4060    7.5100   -9.0240 O.2    99  TRP99      -0.2867
     85  CB       -34.9310    4.7040   -9.7400 C.3    99  TRP99       0.0550
     86  CG       -35.8840    3.6800  -10.3300 C.ar   99  TRP99       0.0003
     87  CD1      -35.9370    2.3460  -10.0340 C.ar   99  TRP99       0.0946
     88  CD2      -36.8900    3.9050  -11.3330 C.ar   99  TRP99       0.0152
     89  NE1      -36.9150    1.7300  -10.7810 N.ar   99  TRP99      -0.2442
     90  CE2      -37.5160    2.6630  -11.5840 C.ar   99  TRP99       0.0810
     91  CE3      -37.3160    5.0320  -12.0460 C.ar   99  TRP99       0.0012
     92  CZ2      -38.5520    2.5190  -12.5110 C.ar   99  TRP99       0.0191
     93  CZ3      -38.3430    4.8900  -12.9680 C.ar   99  TRP99       0.0001
     94  CH2      -38.9510    3.6380  -13.1930 C.ar   99  TRP99       0.0015
     95  N        -29.4070   -0.1140   -4.5380 N.3   115  TYR115     -0.1241
     96  CA       -30.6150   -0.7890   -4.0810 C.3   115  TYR115      0.1605
     97  C        -30.7290   -2.1260   -4.8050 C.2   115  TYR115      0.2264
     98  O        -30.0750   -2.3580   -5.8240 O.2   115  TYR115     -0.2867
     99  CB       -31.8750    0.0610   -4.3280 C.3   115  TYR115      0.0534
    100  CG       -32.1800    0.2740   -5.7950 C.ar  115  TYR115     -0.0201
    101  CD1      -31.5870    1.3100   -6.5070 C.ar  115  TYR115     -0.0009
    102  CD2      -33.0540   -0.5660   -6.4700 C.ar  115  TYR115     -0.0009
    103  CE1      -31.8600    1.5000   -7.8520 C.ar  115  TYR115      0.0417
    104  CE2      -33.3310   -0.3860   -7.8130 C.ar  115  TYR115      0.0417
    105  CZ       -32.7310    0.6470   -8.5010 C.ar  115  TYR115      0.1957
    106  OH       -33.0100    0.8250   -9.8380 O.3   115  TYR115     -0.2866
    107  N        -31.9980   -4.5550   -7.2200 N.3   117  ASP117     -0.1225
    108  CA       -32.7270   -4.5880   -8.4830 C.3   117  ASP117      0.1805
    109  C        -33.8930   -5.5700   -8.4040 C.2   117  ASP117      0.2598
    110  O        -33.7710   -6.6590   -7.8430 O.2   117  ASP117     -0.2718
    111  CB       -31.7800   -4.9850   -9.6170 C.3   117  ASP117      0.1424
    112  CG       -32.4250   -4.8790  -10.9890 C.2   117  ASP117      0.3668
    113  OD1      -32.3530   -3.7920  -11.5990 O.co2 117  ASP117     -0.2456
    114  OD2      -33.0060   -5.8810  -11.4550 O.co2 117  ASP117     -0.2456
    115  N        -35.0360   -5.1770   -8.9740 N.am  118  ALA118     -0.1966
    116  CA       -36.2340   -6.0030   -8.8520 C.3   118  ALA118      0.1728
    117  C        -36.1460   -7.2640   -9.7060 C.2   118  ALA118      0.2616
    118  O        -36.7250   -8.2960   -9.3430 O.2   118  ALA118     -0.2715
    119  CB       -37.4730   -5.1920   -9.2310 C.3   118  ALA118      0.0334
    120  N        -35.4370   -7.2060  -10.8340 N.am  119  ALA119     -0.1977
    121  CA       -35.3260   -8.3650  -11.7120 C.3   119  ALA119      0.1597
    122  C        -34.1650   -9.2790  -11.3270 C.2   119  ALA119      0.2287
    123  O        -34.3400  -10.4950  -11.2310 O.2   119  ALA119     -0.2864
    124  CB       -35.1820   -7.9080  -13.1670 C.3   119  ALA119      0.0319
    125  N        -27.7690   -2.2440   -7.6110 N.3   124  ILE124     -0.1245
    126  CA       -27.6380   -1.4050   -8.7950 C.3   124  ILE124      0.1561
    127  C        -27.7930    0.0500   -8.3600 C.2   124  ILE124      0.2260
    128  O        -28.4060    0.3440   -7.3310 O.2   124  ILE124     -0.2867
    129  CB       -28.6800   -1.8110   -9.8690 C.3   124  ILE124      0.0252
    130  CG1      -28.2960   -1.2840  -11.2540 C.3   124  ILE124      0.0019
    131  CG2      -30.0800   -1.3650   -9.4700 C.3   124  ILE124      0.0019
    132  CD1      -27.1640   -2.0590  -11.9140 C.3   124  ILE124      0.0001
    133  N        -29.7260    2.5650  -15.4300 N.3   144  ASP144     -0.1239
    134  CA       -29.0270    1.7470  -14.4430 C.3   144  ASP144      0.1674
    135  C        -27.5260    1.6980  -14.7010 C.2   144  ASP144      0.2266
    136  O        -27.0780    1.5760  -15.8470 O.2   144  ASP144     -0.2867
    137  CB       -29.5800    0.3190  -14.4300 C.3   144  ASP144      0.1410
    138  CG       -30.9390    0.2340  -13.7770 C.2   144  ASP144      0.3668
    139  OD1      -31.3540    1.2290  -13.1390 O.co2 144  ASP144     -0.2456
    140  OD2      -31.5870   -0.8260  -13.8930 O.co2 144  ASP144     -0.2456
@<TRIPOS>BOND
     1    38    37    2
     2    37    36    1
     3    35    36    1
     4    36    39    1
     5    27    26    2
     6    39    40    1
     7     9     7   ar
     8     9    11   ar
     9     7     6   ar
    10    26    25    1
    11    12    13    1
    12    13    14    1
    13    13    16    1
    14    40    41    1
    15     2     3    1
    16     2     1    1
    17     2     5    1
    18     3     4    2
    19    14    15    2
    20    11    10   ar
    21     6     5    1
    22     6     8   ar
    23    16    17    1
    24    24    25    1
    25    25    28    1
    26    42    41    1
    27    48    49    1
    28    48    47    1
    29    10     8   ar
    30    31    33   ar
    31    31    29   ar
    32    43    44    1
    33    17    19   ar
    34    17    18   ar
    35    33    34   ar
    36    28    29    1
    37    19    21   ar
    38    29    30   ar
    39    49    50    1
    40    47    44    1
    41    34    32   ar
    42    30    32   ar
    43   136   135    2
    44    44    45    1
    45    18    20   ar
    46   133   134    1
    47    21    22   ar
    48   135   134    1
    49    46    45    2
    50    20    22   ar
    51    45    51   am
    52   134   137    1
    53   137   138    1
    54    22    23    1
    55   140   138   ar
    56   138   139   ar
    57    51    57    1
    58    51    52    1
    59    94    93   ar
    60    94    92   ar
    61   124   121    1
    62    57    56    1
    63    93    91   ar
    64    67    65   ar
    65    67    68   ar
    66    65    63   ar
    67    92    90   ar
    68    69    68    1
    69    54    53    2
    70    68    66   ar
    71    52    53    1
    72    52    55    1
    73    91    88   ar
    74   132   130    1
    75    63    62    1
    76    63    64   ar
    77   121   122    1
    78   121   120    1
    79    62    59    1
    80   113   112   ar
    81    90    88   ar
    82    90    89   ar
    83    61    60    2
    84    56    55    1
    85   114   112   ar
    86    88    86   ar
    87   122   123    2
    88   130   129    1
    89    66    64   ar
    90   112   111    1
    91   120   117   am
    92    89    87   ar
    93    60    59    1
    94    59    58    1
    95    86    87   ar
    96    86    85    1
    97   129   131    1
    98   129   126    1
    99   106   105    1
   100    85    82    1
   101   117   118    2
   102   117   116    1
   103   111   108    1
   104   119   116    1
   105    84    83    2
   106   115   116    1
   107   115   109   am
   108   126   127    1
   109   126   125    1
   110    83    82    1
   111    75    74    1
   112    75    76    1
   113   105   103   ar
   114   105   104   ar
   115   108   109    1
   116   108   107    1
   117    82    81    1
   118   109   110    2
   119   127   128    2
   120    74    71    1
   121    77    76    1
   122    77    78    2
   123   103   101   ar
   124   104   102   ar
   125    80    78    1
   126    78    79    1
   127    70    71    1
   128    71    72    1
   129   101   100   ar
   130   102   100   ar
   131    73    72    2
   132    98    97    2
   133   100    99    1
   134    97    96    1
   135    95    96    1
   136    99    96    1
