@<TRIPOS>MOLECULE
tmp/5lu0E00.pdb
 95 89 0 0 0
SMALL
GASTEIGER

@<TRIPOS>ATOM
      1  N         -7.0450   35.7910   41.7090 N.3    20  GLY20      -0.1225
      2  CA        -7.7200   35.3780   40.4770 C.3    20  GLY20       0.1811
      3  C         -8.8090   36.3250   39.9940 C.2    20  GLY20       0.2280
      4  O         -8.9570   36.5550   38.7830 O.2    20  GLY20      -0.2866
      5  N         -6.9240   35.5150   36.8800 N.3    63  GLY63      -0.1210
      6  CA        -7.9240   34.5450   36.4030 C.3    63  GLY63       0.1956
      7  C         -7.8070   33.2220   37.1420 C.2    63  GLY63       0.2611
      8  O         -7.0660   33.0910   38.1280 O.2    63  GLY63      -0.2717
      9  N         -8.5200   32.2230   36.6320 N.am   64  MET64      -0.1979
     10  CA        -8.6110   30.9420   37.2770 C.3    64  MET64       0.1605
     11  C         -7.8700   29.8770   36.5310 C.2    64  MET64       0.2287
     12  O         -7.9160   29.8030   35.3030 O.2    64  MET64      -0.2864
     13  CB       -10.0620   30.5170   37.3950 C.3    64  MET64       0.0413
     14  CG       -10.8820   31.5120   38.1920 C.3    64  MET64       0.0598
     15  SD       -12.5940   31.0620   38.4740 S.3    64  MET64      -0.1393
     16  CE       -13.2670   31.1410   36.8230 C.3    64  MET64       0.0692
     17  N          0.2280   35.8720   46.1170 N.3    87  ARG87      -0.1245
     18  CA        -1.1590   35.5140   45.7910 C.3    87  ARG87       0.1563
     19  C         -2.0040   35.4630   47.0840 C.2    87  ARG87       0.2260
     20  O         -1.5660   34.9040   48.0920 O.2    87  ARG87      -0.2867
     21  CB        -1.2000   34.1530   45.0820 C.3    87  ARG87       0.0307
     22  CG        -2.6020   33.6390   44.8080 C.3    87  ARG87       0.0489
     23  CD        -2.6140   32.4170   43.8840 C.3    87  ARG87       0.2205
     24  NE        -3.7070   31.4870   44.2180 N.pl3  87  ARG87      -0.0865
     25  CZ        -5.0260   31.7400   44.1330 C.cat  87  ARG87       0.5346
     26  NH1       -5.4970   32.8780   43.6750 N.pl3  87  ARG87       0.1354
     27  NH2       -5.8900   30.8230   44.5250 N.pl3  87  ARG87       0.1354
     28  N         -8.7550   32.4220   47.0370 N.3    90  THR90      -0.1203
     29  CA        -9.7380   31.6910   47.8300 C.3    90  THR90       0.1994
     30  C         -9.5290   30.2090   47.6290 C.2    90  THR90       0.2618
     31  O         -8.8310   29.8460   46.6930 O.2    90  THR90      -0.2717
     32  CB       -11.1620   32.1040   47.4940 C.3    90  THR90       0.1784
     33  OG1      -11.4290   31.8640   46.1100 O.3    90  THR90      -0.2211
     34  CG2      -11.3790   33.5930   47.7890 C.3    90  THR90       0.0376
     35  N        -10.0890   29.3700   48.5060 N.am   91  CYS91      -0.1955
     36  CA        -9.9190   27.8980   48.3530 C.3    91  CYS91       0.1843
     37  C        -11.0860   27.1340   48.9700 C.2    91  CYS91       0.2626
     38  O        -11.9020   27.7150   49.7050 O.2    91  CYS91      -0.2714
     39  CB        -8.5910   27.4020   48.9750 C.3    91  CYS91       0.0997
     40  SG        -8.4890   27.7200   50.7760 S.3    91  CYS91      -0.0797
     41  N        -11.0920   25.8290   48.7410 N.am   92  GLY92      -0.1954
     42  CA       -12.1140   24.9220   49.2830 C.3    92  GLY92       0.1869
     43  C        -11.4460   23.9850   50.2500 C.2    92  GLY92       0.2309
     44  O        -10.6220   23.1450   49.8700 O.2    92  GLY92      -0.2863
     45  N        -12.3400   22.5460   38.9430 N.3   159  PHE159     -0.1241
     46  CA       -13.1940   23.0900   40.0210 C.3   159  PHE159      0.1605
     47  C        -14.2430   22.0330   40.4200 C.2   159  PHE159      0.2264
     48  O        -14.5340   21.8250   41.6130 O.2   159  PHE159     -0.2867
     49  CB       -13.8860   24.3890   39.5670 C.3   159  PHE159      0.0534
     50  CG       -14.6990   25.0590   40.6700 C.ar  159  PHE159     -0.0203
     51  CD1      -14.0930   25.9550   41.5570 C.ar  159  PHE159     -0.0042
     52  CD2      -16.0620   24.8160   40.7950 C.ar  159  PHE159     -0.0042
     53  CE1      -14.8240   26.5600   42.5600 C.ar  159  PHE159     -0.0003
     54  CE2      -16.8030   25.4140   41.8050 C.ar  159  PHE159     -0.0003
     55  CZ       -16.1780   26.3060   42.6790 C.ar  159  PHE159     -0.0000
     56  N         -8.1840   22.7360   48.5810 N.3   178  ILE178     -0.1231
     57  CA        -8.0400   22.6800   47.1250 C.3   178  ILE178      0.1692
     58  C         -8.2060   24.0640   46.5220 C.2   178  ILE178      0.2592
     59  O         -9.1490   24.7930   46.8320 O.2   178  ILE178     -0.2718
     60  CB        -9.1220   21.7730   46.5250 C.3   178  ILE178      0.0266
     61  CG1       -8.9490   20.3700   47.1230 C.3   178  ILE178      0.0019
     62  CG2       -9.0660   21.8500   44.9720 C.3   178  ILE178      0.0020
     63  CD1       -9.8530   19.2940   46.5480 C.3   178  ILE178      0.0001
     64  N         -7.2890   24.4490   45.6390 N.am  179  GLU179     -0.1966
     65  CA        -7.5140   25.6600   44.8230 C.3   179  GLU179      0.1733
     66  C         -7.0090   25.3590   43.4130 C.2   179  GLU179      0.2616
     67  O         -6.8820   24.1910   43.0860 O.2   179  GLU179     -0.2715
     68  CB        -6.9130   26.9460   45.4640 C.3   179  GLU179      0.0429
     69  CG        -5.5110   26.7770   46.0300 C.3   179  GLU179      0.1163
     70  CD        -4.4850   26.7770   44.9020 C.2   179  GLU179      0.3649
     71  OE1       -4.2150   27.8690   44.3590 O.co2 179  GLU179     -0.2457
     72  OE2       -4.0060   25.6890   44.5770 O.co2 179  GLU179     -0.2457
     73  N         -6.7880   26.3750   42.5860 N.am  180  MET180     -0.1963
     74  CA        -6.4390   26.0510   41.1910 C.3   180  MET180      0.1736
     75  C         -5.2270   26.7480   40.6050 C.2   180  MET180      0.2616
     76  O         -5.0700   26.6980   39.3990 O.2   180  MET180     -0.2715
     77  CB        -7.6710   26.2970   40.2980 C.3   180  MET180      0.0427
     78  CG        -8.8790   25.4900   40.7590 C.3   180  MET180      0.0599
     79  SD       -10.3790   25.6720   39.7710 S.3   180  MET180     -0.1393
     80  CE        -9.8420   25.1820   38.1030 C.3   180  MET180      0.0692
     81  N         -4.3630   27.3750   41.4090 N.am  181  GLU181     -0.1977
     82  CA        -3.3410   28.2750   40.8310 C.3   181  GLU181      0.1602
     83  C         -1.9650   28.1680   41.5080 C.2   181  GLU181      0.2287
     84  O         -0.9490   28.4180   40.8510 O.2   181  GLU181     -0.2864
     85  CB        -3.7970   29.7420   40.8560 C.3   181  GLU181      0.0415
     86  CG        -4.9790   30.0470   39.9370 C.3   181  GLU181      0.1163
     87  CD        -6.3010   29.8590   40.6380 C.2   181  GLU181      0.3649
     88  OE1       -6.3500   29.9060   41.8780 O.co2 181  GLU181     -0.2457
     89  OE2       -7.3090   29.6390   39.9620 O.co2 181  GLU181     -0.2457
     90  N        -13.2910   29.8330   51.4890 N.3   203  SER203     -0.1217
     91  CA       -14.5790   30.4160   51.0800 C.3   203  SER203      0.1889
     92  C        -15.6860   29.3310   51.0460 C.2   203  SER203      0.2288
     93  O        -16.8730   29.6540   51.0900 O.2   203  SER203     -0.2866
     94  CB       -14.4540   31.1140   49.7090 C.3   203  SER203      0.2089
     95  OG       -14.0730   30.1620   48.7210 O.3   203  SER203     -0.2183
@<TRIPOS>BOND
     1    12    11    2
     2     6     5    1
     3     6     7    1
     4    11    10    1
     5     9     7   am
     6     9    10    1
     7    16    15    1
     8     7     8    2
     9    10    13    1
    10    13    14    1
    11    80    79    1
    12    14    15    1
    13     4     3    2
    14    45    46    1
    15    76    75    2
    16    49    46    1
    17    49    50    1
    18    79    78    1
    19    86    87    1
    20    86    85    1
    21    89    87   ar
    22     3     2    1
    23    46    47    1
    24    77    78    1
    25    77    74    1
    26    47    48    2
    27     2     1    1
    28    75    74    1
    29    75    81   am
    30    87    88   ar
    31    50    52   ar
    32    50    51   ar
    33    52    54   ar
    34    82    85    1
    35    82    81    1
    36    82    83    1
    37    84    83    2
    38    74    73    1
    39    51    53   ar
    40    54    55   ar
    41    53    55   ar
    42    73    66   am
    43    67    66    2
    44    66    65    1
    45    26    25    1
    46    23    24    1
    47    23    22    1
    48    25    24    2
    49    25    27    1
    50    71    70   ar
    51    72    70   ar
    52    22    21    1
    53    65    68    1
    54    65    64    1
    55    70    69    1
    56    62    60    1
    57    21    18    1
    58    68    69    1
    59    64    58   am
    60    18    17    1
    61    18    19    1
    62    33    32    1
    63    58    59    2
    64    58    57    1
    65    60    61    1
    66    60    57    1
    67    63    61    1
    68    31    30    2
    69    28    29    1
    70    19    20    2
    71    57    56    1
    72    32    34    1
    73    32    29    1
    74    30    29    1
    75    30    35   am
    76    36    35    1
    77    36    37    1
    78    36    39    1
    79    95    94    1
    80    41    37   am
    81    41    42    1
    82    37    38    2
    83    39    40    1
    84    42    43    1
    85    94    91    1
    86    44    43    2
    87    92    91    1
    88    92    93    2
    89    91    90    1
