@<TRIPOS>MOLECULE
tmp/5lu4A00.pdb
 149 135 0 0 0
SMALL
GASTEIGER

@<TRIPOS>ATOM
      1  N        179.0980  276.8660  219.3470 N.3    25  LYS25      -0.1245
      2  CA       178.9010  276.7850  217.8990 C.3    25  LYS25       0.1561
      3  C        179.4740  278.0400  217.2790 C.2    25  LYS25       0.2260
      4  O        180.2820  277.9370  216.3790 O.2    25  LYS25      -0.2867
      5  CB       177.4100  276.6100  217.5500 C.3    25  LYS25       0.0271
      6  CG       177.1670  276.2920  216.1130 C.3    25  LYS25       0.0035
      7  CD       175.7100  276.1790  215.7420 C.3    25  LYS25       0.0206
      8  CE       175.0280  274.9440  216.3930 C.3    25  LYS25       0.1093
      9  NZ       173.5990  274.8310  216.1200 N.3    25  LYS25      -0.1314
     10  N        171.3050  280.9170  206.8190 N.3    93  SER93      -0.1217
     11  CA       170.8370  279.9400  207.7720 C.3    93  SER93       0.1889
     12  C        170.8010  280.6020  209.1430 C.2    93  SER93       0.2288
     13  O        171.6650  281.4780  209.3890 O.2    93  SER93      -0.2866
     14  CB       171.6950  278.6900  207.7800 C.3    93  SER93       0.2089
     15  OG       173.0030  278.9750  208.3010 O.3    93  SER93      -0.2183
     16  N        170.9330  279.7960  213.1080 N.3    95  ARG95      -0.1245
     17  CA       171.3380  278.6810  213.9380 C.3    95  ARG95       0.1563
     18  C        171.3330  279.1130  215.3680 C.2    95  ARG95       0.2260
     19  O        171.6700  280.2310  215.6640 O.2    95  ARG95      -0.2867
     20  CB       172.7730  278.1840  213.5440 C.3    95  ARG95       0.0307
     21  CG       172.9520  277.9340  212.0290 C.3    95  ARG95       0.0489
     22  CD       174.3620  277.5900  211.6210 C.3    95  ARG95       0.2205
     23  NE       174.8290  276.3190  212.1610 N.pl3  95  ARG95      -0.0865
     24  CZ       175.9870  275.7380  211.9250 C.cat  95  ARG95       0.5346
     25  NH1      176.8790  276.3480  211.1200 N.pl3  95  ARG95       0.1354
     26  NH2      176.1930  274.5050  212.4390 N.pl3  95  ARG95       0.1354
     27  N        175.8760  272.4760  225.0400 N.3   101  SER101     -0.1217
     28  CA       174.9300  271.8090  224.1180 C.3   101  SER101      0.1889
     29  C        173.7220  271.4020  224.9270 C.2   101  SER101      0.2288
     30  O        173.9060  270.7140  225.9580 O.2   101  SER101     -0.2866
     31  CB       175.5780  270.5770  223.4540 C.3   101  SER101      0.2089
     32  OG       174.8340  270.1420  222.3210 O.3   101  SER101     -0.2183
     33  N        167.7030  274.5920  213.4010 N.3   108  THR108     -0.1218
     34  CA       168.1680  275.5220  212.3810 C.3   108  THR108      0.1862
     35  C        167.2400  275.6360  211.1570 C.2   108  THR108      0.2287
     36  O        166.7330  274.6520  210.6510 O.2   108  THR108     -0.2866
     37  CB       169.5190  275.0890  211.9750 C.3   108  THR108      0.1770
     38  OG1      170.3480  275.4190  213.0520 O.3   108  THR108     -0.2211
     39  CG2      170.0460  275.8890  210.8270 C.3   108  THR108      0.0375
     40  N        167.4280  276.5030  207.3070 N.3   110  LEU110     -0.1245
     41  CA       168.2140  276.6870  206.1290 C.3   110  LEU110      0.1561
     42  C        167.4670  277.3930  205.0010 C.2   110  LEU110      0.2260
     43  O        166.1960  277.4850  205.0090 O.2   110  LEU110     -0.2867
     44  CB       168.6410  275.3180  205.6080 C.3   110  LEU110      0.0270
     45  CG       169.6290  274.5160  206.5020 C.3   110  LEU110      0.0019
     46  CD1      170.1010  273.2330  205.8540 C.3   110  LEU110      0.0001
     47  CD2      170.9060  275.2530  206.9380 C.3   110  LEU110      0.0001
     48  N        160.9170  274.1810  206.5080 N.3   141  MET141     -0.1245
     49  CA       161.6850  274.3990  207.7340 C.3   141  MET141      0.1570
     50  C        161.2520  275.6650  208.4190 C.2   141  MET141      0.2261
     51  O        161.0060  275.6840  209.5820 O.2   141  MET141     -0.2867
     52  CB       163.1560  274.4060  207.4460 C.3   141  MET141      0.0387
     53  CG       163.7150  273.1040  206.9580 C.3   141  MET141      0.0595
     54  SD       165.4450  273.3900  206.4150 S.3   141  MET141     -0.1393
     55  CE       166.2970  273.2140  207.9300 C.3   141  MET141      0.0692
     56  N        174.3740  282.8500  208.9900 N.3   241  GLN241     -0.1231
     57  CA       175.4680  282.3930  208.1740 C.3   241  GLN241      0.1698
     58  C        175.0270  282.2170  206.7180 C.2   241  GLN241      0.2593
     59  O        173.9060  281.7810  206.4390 O.2   241  GLN241     -0.2718
     60  CB       175.9290  281.0470  208.7360 C.3   241  GLN241      0.0381
     61  CG       177.2270  280.5350  208.1580 C.3   241  GLN241      0.0905
     62  CD       177.6760  279.2930  208.8600 C.2   241  GLN241      0.2608
     63  OE1      177.0040  278.7140  209.7490 O.2   241  GLN241     -0.2717
     64  NE2      178.9340  278.9240  208.5540 N.am  241  GLN241     -0.0878
     65  N        175.9480  282.4650  205.7870 N.am  242  SER242     -0.1938
     66  CA       175.6600  282.3260  204.3780 C.3   242  SER242      0.2055
     67  C        175.4620  280.8600  204.0450 C.2   242  SER242      0.2643
     68  O        176.0890  279.9880  204.6380 O.2   242  SER242     -0.2714
     69  CB       176.8070  282.9080  203.5860 C.3   242  SER242      0.2130
     70  OG       177.0460  282.3160  202.2780 O.3   242  SER242     -0.2179
     71  N        174.5720  280.5760  203.1080 N.am  243  MET243     -0.1962
     72  CA       174.2380  279.2020  202.7970 C.3   243  MET243      0.1736
     73  C        175.2210  278.6600  201.8140 C.2   243  MET243      0.2616
     74  O        175.4900  279.3070  200.8250 O.2   243  MET243     -0.2715
     75  CB       172.8380  279.0980  202.1800 C.3   243  MET243      0.0427
     76  CG       171.7440  279.0660  203.1830 C.3   243  MET243      0.0599
     77  SD       171.8090  277.5910  204.1940 S.3   243  MET243     -0.1393
     78  CE       171.6690  276.3050  203.0280 C.3   243  MET243      0.0692
     79  N        175.7130  277.4470  202.0530 N.am  244  VAL244     -0.1977
     80  CA       176.3380  276.6670  200.9580 C.3   244  VAL244      0.1596
     81  C        175.3660  275.5070  200.6940 C.2   244  VAL244      0.2287
     82  O        174.7290  275.0140  201.5960 O.2   244  VAL244     -0.2864
     83  CB       177.7840  276.1820  201.2490 C.3   244  VAL244      0.0276
     84  CG1      178.7010  277.3560  201.3110 C.3   244  VAL244      0.0022
     85  CG2      177.7890  275.4020  202.5470 C.3   244  VAL244      0.0022
     86  N        176.2690  266.6210  201.9900 N.3   254  THR254     -0.1218
     87  CA       176.5000  266.9260  203.3740 C.3   254  THR254      0.1862
     88  C        177.0640  265.7450  204.0580 C.2   254  THR254      0.2287
     89  O        176.7120  264.6320  203.7120 O.2   254  THR254     -0.2866
     90  CB       175.1790  267.1830  204.1070 C.3   254  THR254      0.1770
     91  OG1      174.4130  268.0900  203.3620 O.3   254  THR254     -0.2211
     92  CG2      175.4450  267.7720  205.4420 C.3   254  THR254      0.0375
     93  N        172.0860  269.6730  205.1090 N.3   279  GLY279     -0.1210
     94  CA       172.1080  269.6440  206.5600 C.3   279  GLY279      0.1956
     95  C        171.9900  268.2850  207.1510 C.2   279  GLY279      0.2614
     96  O        172.8320  267.4630  206.8110 O.2   279  GLY279     -0.2717
     97  N        170.9710  268.0450  208.0120 N.am  280  GLU280     -0.1933
     98  CA       170.9670  266.8660  208.7890 C.3   280  GLU280      0.1818
     99  C        170.3860  265.7210  208.0140 C.2   280  GLU280      0.2332
    100  O        170.0590  264.6990  208.6020 O.2   280  GLU280     -0.2860
    101  CB       170.3240  267.0840  210.1240 C.2   280  GLU280      0.0097
    102  CG       170.9890  268.0590  211.0000 C.2   280  GLU280      0.0837
    103  CD       170.3350  268.3770  212.3310 C.2   280  GLU280      0.3877
    104  OE1      169.1970  267.9580  212.7110 O.co2 280  GLU280     -0.2406
    105  OE2      170.9900  269.2200  213.0710 O.co2 280  GLU280     -0.2406
    106  N        181.0270  268.7060  211.1470 N.3   324  GLU324     -0.1245
    107  CA       179.9710  268.7480  210.1060 C.3   324  GLU324      0.1567
    108  C        180.5500  269.4870  208.9660 C.2   324  GLU324      0.2260
    109  O        181.0820  270.5700  209.1720 O.2   324  GLU324     -0.2867
    110  CB       178.6590  269.5380  210.5420 C.3   324  GLU324      0.0388
    111  CG       177.9460  268.8900  211.6730 C.3   324  GLU324      0.1160
    112  CD       176.9800  269.7300  212.3820 C.2   324  GLU324      0.3649
    113  OE1      176.1780  270.6460  211.7420 O.co2 324  GLU324     -0.2457
    114  OE2      177.0820  269.4840  213.6720 O.co2 324  GLU324     -0.2457
    115  N        180.0290  270.3720  204.4690 N.3   326  THR326     -0.1218
    116  CA       179.1140  270.3820  203.3150 C.3   326  THR326      0.1862
    117  C        179.9380  270.7300  202.0600 C.2   326  THR326      0.2287
    118  O        180.7170  271.6460  202.0860 O.2   326  THR326     -0.2866
    119  CB       178.0390  271.4280  203.5000 C.3   326  THR326      0.1770
    120  OG1      177.3520  271.0740  204.6900 O.3   326  THR326     -0.2211
    121  CG2      177.1890  271.5440  202.3070 C.3   326  THR326      0.0375
    122  N        181.2500  273.6000  208.6370 N.3   335  LEU335     -0.1231
    123  CA       180.0900  274.2260  209.2760 C.3   335  LEU335      0.1693
    124  C        179.9450  273.9990  210.7540 C.2   335  LEU335      0.2591
    125  O        179.2130  274.7090  211.4140 O.2   335  LEU335     -0.2718
    126  CB       178.7010  273.8130  208.5820 C.3   335  LEU335      0.0284
    127  CG       178.7210  274.5070  207.2090 C.3   335  LEU335      0.0019
    128  CD1      179.1720  273.6530  206.0230 C.3   335  LEU335      0.0001
    129  CD2      177.5040  275.2320  206.9590 C.3   335  LEU335      0.0001
    130  N        180.6080  273.0100  211.2940 N.am  336  GLN336     -0.1979
    131  CA       180.6070  272.8590  212.7480 C.3   336  GLN336      0.1601
    132  C        181.7890  271.9800  213.1340 C.2   336  GLN336      0.2287
    133  O        182.1340  271.0400  212.3780 O.2   336  GLN336     -0.2864
    134  CB       179.2340  272.2260  213.1500 C.3   336  GLN336      0.0394
    135  CG       179.0040  272.2790  214.6240 C.3   336  GLN336      0.0908
    136  CD       177.5810  272.1220  215.1190 C.2   336  GLN336      0.2608
    137  OE1      176.6110  271.8430  214.3900 O.2   336  GLN336     -0.2717
    138  NE2      177.4960  272.2150  216.4270 N.am  336  GLN336     -0.0878
    139  N        183.6020  270.3660  217.0780 N.3   338  ARG338     -0.1245
    140  CA       183.6690  270.3510  218.5240 C.3   338  ARG338      0.1563
    141  C        184.3740  269.1090  218.9970 C.2   338  ARG338      0.2260
    142  O        184.5620  268.1950  218.2360 O.2   338  ARG338     -0.2867
    143  CB       182.2760  270.4340  219.1340 C.3   338  ARG338      0.0307
    144  CG       181.3620  269.2740  218.8430 C.3   338  ARG338      0.0489
    145  CD       180.0600  269.5310  219.5720 C.3   338  ARG338      0.2205
    146  NE       179.0830  268.5270  219.1310 N.pl3 338  ARG338     -0.0865
    147  CZ       177.7890  268.5540  219.3500 C.cat 338  ARG338      0.5346
    148  NH1      177.2310  269.5340  220.0730 N.pl3 338  ARG338      0.1354
    149  NH2      177.0940  267.5590  218.8450 N.pl3 338  ARG338      0.1354
@<TRIPOS>BOND
     1    81    80    1
     2    81    82    2
     3    74    73    2
     4    80    83    1
     5    80    79    1
     6    83    84    1
     7    83    85    1
     8    73    79   am
     9    73    72    1
    10    86    87    1
    11   117   118    2
    12   117   116    1
    13    75    72    1
    14    75    76    1
    15    70    69    1
    16   121   119    1
    17    72    71    1
    18    78    77    1
    19    71    67   am
    20    76    77    1
    21   116   119    1
    22   116   115    1
    23    91    90    1
    24    87    88    1
    25    87    90    1
    26   119   120    1
    27    69    66    1
    28    89    88    2
    29    67    66    1
    30    67    68    2
    31    90    92    1
    32    66    65    1
    33    42    43    2
    34    42    41    1
    35    93    94    1
    36    44    41    1
    37    44    45    1
    38    65    58   am
    39    46    45    1
    40   128   127    1
    41    41    40    1
    42    54    53    1
    43    54    55    1
    44    59    58    2
    45    45    47    1
    46    48    49    1
    47    94    95    1
    48    58    57    1
    49    96    95    2
    50    10    11    1
    51    53    52    1
    52   129   127    1
    53    95    97   am
    54   127   126    1
    55    52    49    1
    56    49    50    1
    57    11    14    1
    58    11    12    1
    59    14    15    1
    60    97    98    1
    61    99   100    2
    62    99    98    1
    63    61    60    1
    64    61    62    1
    65    57    60    1
    66    57    56    1
    67    50    51    2
    68    64    62   am
    69   126   123    1
    70   122   123    1
    71    98   101    1
    72    62    63    2
    73   108   109    2
    74   108   107    1
    75    12    13    2
    76   123   124    1
    77   107   110    1
    78   107   106    1
    79   101   102    2
    80   110   111    1
    81    36    35    2
    82   124   130   am
    83   124   125    2
    84    39    37    1
    85   102   103    1
    86    25    24    1
    87    35    34    1
    88   130   131    1
    89    22    21    1
    90    22    23    1
    91   111   112    1
    92   113   112   ar
    93    24    23    2
    94    24    26    1
    95    37    34    1
    96    37    38    1
    97    21    20    1
    98   103   104   ar
    99   103   105   ar
   100   133   132    2
   101    34    33    1
   102   112   114   ar
   103   131   132    1
   104   131   134    1
   105    16    17    1
   106   134   135    1
   107    20    17    1
   108    17    18    1
   109   137   136    2
   110   135   136    1
   111   136   138   am
   112    18    19    2
   113     7     6    1
   114     7     8    1
   115     6     5    1
   116     9     8    1
   117     4     3    2
   118   139   140    1
   119     3     2    1
   120     5     2    1
   121     2     1    1
   122   142   141    2
   123   140   141    1
   124   140   143    1
   125   144   143    1
   126   144   145    1
   127   149   147    1
   128   146   147    2
   129   146   145    1
   130   147   148    1
   131    32    31    1
   132    31    28    1
   133    28    29    1
   134    28    27    1
   135    29    30    2
