@<TRIPOS>MOLECULE
tmp/5lucD01.pdb
 108 103 0 0 0
SMALL
GASTEIGER

@<TRIPOS>ATOM
      1  N         48.3220  -31.2690   32.2640 N.3    77  SER77      -0.1202
      2  CA        48.6220  -29.9530   31.7390 C.3    77  SER77       0.2020
      3  C         47.6090  -28.9130   32.2920 C.2    77  SER77       0.2619
      4  O         46.7840  -29.2380   33.1160 O.2    77  SER77      -0.2717
      5  CB        48.6050  -29.9570   30.2060 C.3    77  SER77       0.2103
      6  OG        47.3150  -29.9480   29.6760 O.3    77  SER77      -0.2182
      7  N         47.7750  -27.6700   31.8250 N.am   78  GLY78      -0.1942
      8  CA        46.8970  -26.5610   32.2310 C.3    78  GLY78       0.2014
      9  C         45.4030  -26.8770   32.1090 C.2    78  GLY78       0.2638
     10  O         44.6280  -26.6060   33.0090 O.2    78  GLY78      -0.2714
     11  N         44.9930  -27.4700   30.9720 N.am   79  HIS79      -0.1973
     12  CA        43.6010  -27.9140   30.7960 C.3    79  HIS79       0.1656
     13  C         43.1800  -28.9200   31.8550 C.2    79  HIS79       0.2291
     14  O         42.0120  -28.9680   32.2720 O.2    79  HIS79      -0.2864
     15  CB        43.4000  -28.5540   29.4040 C.3    79  HIS79       0.0771
     16  CG        43.2190  -27.5570   28.3180 C.ar   79  HIS79       0.0820
     17  ND1       44.2710  -26.8900   27.7290 N.ar   79  HIS79      -0.2267
     18  CD2       42.0970  -27.1200   27.7010 C.ar   79  HIS79       0.1154
     19  CE1       43.7980  -26.0680   26.8030 C.ar   79  HIS79       0.1986
     20  NE2       42.4820  -26.1720   26.7820 N.ar   79  HIS79      -0.2212
     21  N         40.7510  -18.8340   26.3850 N.3   104  TRP104     -0.1241
     22  CA        40.7500  -19.5290   27.6540 C.3   104  TRP104      0.1605
     23  C         39.3540  -19.5280   28.3120 C.2   104  TRP104      0.2264
     24  O         38.9090  -20.5440   28.7980 O.2   104  TRP104     -0.2867
     25  CB        41.8600  -18.9580   28.5740 C.3   104  TRP104      0.0550
     26  CG        43.1650  -19.0060   27.8380 C.ar  104  TRP104      0.0003
     27  CD1       43.9330  -17.9640   27.4510 C.ar  104  TRP104      0.0946
     28  CD2       43.7830  -20.1800   27.2720 C.ar  104  TRP104      0.0152
     29  NE1       45.0180  -18.4040   26.7090 N.ar  104  TRP104     -0.2442
     30  CE2       44.9510  -19.7670   26.6230 C.ar  104  TRP104      0.0810
     31  CE3       43.4800  -21.5400   27.3150 C.ar  104  TRP104      0.0012
     32  CZ2       45.7800  -20.6730   25.9450 C.ar  104  TRP104      0.0191
     33  CZ3       44.3300  -22.4330   26.6630 C.ar  104  TRP104      0.0001
     34  CH2       45.4610  -21.9810   25.9920 C.ar  104  TRP104      0.0015
     35  N         40.3000  -15.1550   33.4610 N.3   150  THR150     -0.1218
     36  CA        41.6850  -15.3130   33.0150 C.3   150  THR150      0.1862
     37  C         42.5280  -14.1290   33.4760 C.2   150  THR150      0.2287
     38  O         42.2210  -12.9970   33.1680 O.2   150  THR150     -0.2866
     39  CB        41.7650  -15.4350   31.4840 C.3   150  THR150      0.1770
     40  OG1       40.9020  -16.4590   31.0000 O.3   150  THR150     -0.2211
     41  CG2       43.2660  -15.7240   31.0270 C.3   150  THR150      0.0375
     42  N         46.2050  -13.7810   32.9900 N.3   152  GLY152     -0.1225
     43  CA        47.0080  -13.4640   31.8410 C.3   152  GLY152      0.1811
     44  C         46.4260  -14.1240   30.6020 C.2   152  GLY152      0.2280
     45  O         46.5730  -15.3090   30.3840 O.2   152  GLY152     -0.2866
     46  N         46.8020  -15.1610   27.4170 N.3   154  SER154     -0.1217
     47  CA        47.9030  -15.3670   26.5010 C.3   154  SER154      0.1889
     48  C         47.4630  -15.4170   25.0600 C.2   154  SER154      0.2288
     49  O         48.3030  -15.3320   24.1810 O.2   154  SER154     -0.2866
     50  CB        48.6530  -16.6660   26.8440 C.3   154  SER154      0.2089
     51  OG        47.8240  -17.7380   26.8910 O.3   154  SER154     -0.2183
     52  N         42.6140  -18.3560   36.2600 N.3   179  ASN179     -0.1240
     53  CA        43.6700  -18.9840   35.4500 C.3   179  ASN179      0.1653
     54  C         44.9070  -18.0530   35.4800 C.2   179  ASN179      0.2266
     55  O         44.8530  -16.9340   34.9690 O.2   179  ASN179     -0.2867
     56  CB        43.2000  -19.1850   34.0030 C.3   179  ASN179      0.1155
     57  CG        44.3380  -19.6860   33.0400 C.2   179  ASN179      0.2627
     58  OD1       45.4610  -19.3580   33.1850 O.2   179  ASN179     -0.2716
     59  ND2       43.9650  -20.4070   32.0280 N.am  179  ASN179     -0.0877
     60  N         48.0300  -19.4500   34.4610 N.3   181  VAL181     -0.1231
     61  CA        49.0390  -20.2250   33.7290 C.3   181  VAL181      0.1692
     62  C         50.0830  -19.2790   33.1050 C.2   181  VAL181      0.2591
     63  O         51.2770  -19.5100   33.2450 O.2   181  VAL181     -0.2718
     64  CB        48.3600  -21.1140   32.6660 C.3   181  VAL181      0.0266
     65  CG1       49.4370  -21.9260   31.9190 C.3   181  VAL181      0.0020
     66  CG2       47.3430  -22.0600   33.3140 C.3   181  VAL181      0.0020
     67  N         49.6310  -18.1760   32.4490 N.am  182  ALA182     -0.1980
     68  CA        50.5790  -17.3190   31.7390 C.3   182  ALA182      0.1597
     69  C         51.1400  -16.1940   32.5990 C.2   182  ALA182      0.2287
     70  O         52.1620  -15.6050   32.2430 O.2   182  ALA182     -0.2864
     71  CB        49.9630  -16.7260   30.4600 C.3   182  ALA182      0.0319
     72  N         44.9860  -21.5440   39.6240 N.3   200  TYR200     -0.1241
     73  CA        45.8370  -22.5990   39.0560 C.3   200  TYR200      0.1605
     74  C         46.8360  -21.9790   38.0590 C.2   200  TYR200      0.2264
     75  O         46.6210  -20.9260   37.5190 O.2   200  TYR200     -0.2867
     76  CB        45.0200  -23.7080   38.3790 C.3   200  TYR200      0.0534
     77  CG        44.3240  -23.3680   37.0840 C.ar  200  TYR200     -0.0201
     78  CD1       43.0770  -22.6790   37.0700 C.ar  200  TYR200     -0.0009
     79  CD2       44.8870  -23.6970   35.8350 C.ar  200  TYR200     -0.0009
     80  CE1       42.4590  -22.3220   35.8880 C.ar  200  TYR200      0.0417
     81  CE2       44.2150  -23.3890   34.6340 C.ar  200  TYR200      0.0417
     82  CZ        42.9770  -22.6660   34.6810 C.ar  200  TYR200      0.1957
     83  OH        42.3740  -22.3730   33.4920 O.3   200  TYR200     -0.2866
     84  N         54.9330  -24.9750   32.4120 N.3   204  GLN204     -0.1231
     85  CA        55.7490  -24.6910   31.2810 C.3   204  GLN204      0.1698
     86  C         55.8810  -23.2030   30.8690 C.2   204  GLN204      0.2592
     87  O         56.4950  -22.9500   29.8410 O.2   204  GLN204     -0.2718
     88  CB        55.2640  -25.4790   30.0400 C.3   204  GLN204      0.0381
     89  CG        54.0110  -24.8710   29.4130 C.3   204  GLN204      0.0905
     90  CD        52.7340  -25.5700   29.9430 C.2   204  GLN204      0.2608
     91  OE1       52.7020  -26.0280   31.0650 O.2   204  GLN204     -0.2717
     92  NE2       51.6640  -25.6220   29.0820 N.am  204  GLN204     -0.0878
     93  N         55.3070  -22.2440   31.6040 N.am  205  LYS205     -0.1980
     94  CA        55.3870  -20.8320   31.1500 C.3   205  LYS205      0.1596
     95  C         56.5620  -20.2040   31.9070 C.2   205  LYS205      0.2287
     96  O         57.6560  -20.6920   31.7440 O.2   205  LYS205     -0.2864
     97  CB        54.0230  -20.1130   31.3270 C.3   205  LYS205      0.0298
     98  CG        52.9330  -20.8220   30.4720 C.3   205  LYS205      0.0038
     99  CD        53.0830  -20.5080   29.0050 C.3   205  LYS205      0.0206
    100  CE        52.1370  -21.4690   28.1850 C.3   205  LYS205      0.1093
    101  NZ        50.7580  -21.0230   28.4690 N.3   205  LYS205     -0.1314
    102  N         56.3230  -29.0920   30.0590 N.3   211  PRO211     -0.2116
    103  CA        54.8830  -29.2010   30.1710 C.3   211  PRO211      0.1372
    104  C         54.4790  -30.5540   30.7060 C.2   211  PRO211      0.2244
    105  O         55.1330  -31.5640   30.4600 O.2   211  PRO211     -0.2868
    106  CB        54.4000  -29.0280   28.7120 C.3   211  PRO211      0.0268
    107  CG        55.5470  -29.4050   27.8820 C.3   211  PRO211      0.0207
    108  CD        56.7470  -28.9760   28.6590 C.3   211  PRO211      0.0892
@<TRIPOS>BOND
     1    49    48    2
     2    48    47    1
     3    32    34   ar
     4    32    30   ar
     5    34    33   ar
     6    21    22    1
     7    47    50    1
     8    47    46    1
     9    30    29   ar
    10    30    28   ar
    11    33    31   ar
    12    29    27   ar
    13    20    19   ar
    14    20    18   ar
    15    19    17   ar
    16    50    51    1
    17    28    31   ar
    18    28    26   ar
    19    27    26   ar
    20    22    23    1
    21    22    25    1
    22    18    16   ar
    23    17    16   ar
    24    26    25    1
    25   107   108    1
    26   107   106    1
    27   100   101    1
    28   100    99    1
    29    23    24    2
    30    16    15    1
    31   108   102    1
    32   106   103    1
    33    99    98    1
    34    92    90   am
    35    15    12    1
    36    89    90    1
    37    89    88    1
    38     6     5    1
    39    87    86    2
    40    90    91    2
    41    88    85    1
    42   102   103    1
    43   103   104    1
    44     5     2    1
    45    45    44    2
    46    71    68    1
    47   105   104    2
    48    98    97    1
    49    44    43    1
    50    12    11    1
    51    12    13    1
    52    86    85    1
    53    86    93   am
    54    11     9   am
    55    40    39    1
    56    41    39    1
    57    94    97    1
    58    94    93    1
    59    94    95    1
    60    85    84    1
    61    39    36    1
    62    68    67    1
    63    68    69    1
    64     2     1    1
    65     2     3    1
    66    96    95    2
    67     7     8    1
    68     7     3   am
    69    43    42    1
    70    13    14    2
    71    65    64    1
    72    59    57   am
    73     9     8    1
    74     9    10    2
    75    70    69    2
    76     3     4    2
    77    67    62   am
    78    64    66    1
    79    64    61    1
    80    36    35    1
    81    36    37    1
    82    57    58    2
    83    57    56    1
    84    62    63    2
    85    62    61    1
    86    38    37    2
    87    83    82    1
    88    61    60    1
    89    56    53    1
    90    81    82   ar
    91    81    79   ar
    92    82    80   ar
    93    55    54    2
    94    53    54    1
    95    53    52    1
    96    79    77   ar
    97    80    78   ar
    98    78    77   ar
    99    77    76    1
   100    75    74    2
   101    74    73    1
   102    76    73    1
   103    73    72    1
