@<TRIPOS>MOLECULE
tmp/5ludA00.pdb
 90 84 0 0 0
SMALL
GASTEIGER

@<TRIPOS>ATOM
      1  N          2.5970   11.3410  -11.6170 N.3    63  GLN63      -0.1245
      2  CA         1.4610   12.2500  -11.6230 C.3    63  GLN63       0.1566
      3  C          1.3670   12.9840  -12.9200 C.2    63  GLN63       0.2260
      4  O          2.4000   13.5090  -13.4220 O.2    63  GLN63      -0.2867
      5  CB         1.6040   13.2290  -10.4550 C.3    63  GLN63       0.0367
      6  CG         0.4450   14.2360  -10.3310 C.3    63  GLN63       0.0905
      7  CD         0.4600   15.0360   -9.0580 C.2    63  GLN63       0.2608
      8  OE1        0.9680   14.5620   -8.0710 O.2    63  GLN63      -0.2717
      9  NE2       -0.1220   16.2190   -9.0500 N.am   63  GLN63      -0.0878
     10  N          1.4390   20.9420  -12.3850 N.3    72  GLY72      -0.1210
     11  CA         0.8420   20.5300  -11.0810 C.3    72  GLY72       0.1956
     12  C         -0.0190   21.5720  -10.4100 C.2    72  GLY72       0.2613
     13  O         -0.6000   21.3140   -9.3440 O.2    72  GLY72      -0.2717
     14  N         -0.1320   22.7810  -11.0020 N.am   73  THR73      -0.1938
     15  CA        -0.9310   23.8800  -10.4300 C.3    73  THR73       0.2028
     16  C         -2.2630   24.0240  -11.1140 C.2    73  THR73       0.2643
     17  O         -3.0990   24.7770  -10.6050 O.2    73  THR73      -0.2714
     18  CB        -0.1350   25.1900  -10.4420 C.3    73  THR73       0.1808
     19  OG1        0.0380   25.6020  -11.8000 O.3    73  THR73      -0.2208
     20  CG2        1.1170   25.0690   -9.7270 C.3    73  THR73       0.0379
     21  N         -2.5720   23.2600  -12.1890 N.am   74  GLY74      -0.1939
     22  CA        -3.8160   23.5010  -12.9490 C.3    74  GLY74       0.2014
     23  C         -4.6450   22.3100  -13.1830 C.2    74  GLY74       0.2639
     24  O         -4.6560   21.3220  -12.3750 O.2    74  GLY74      -0.2714
     25  N         -5.3190   22.3050  -14.3430 N.am   75  GLY75      -0.1954
     26  CA        -6.3230   21.2580  -14.6860 C.3    75  GLY75       0.1869
     27  C         -7.7400   21.6800  -14.3260 C.2    75  GLY75       0.2309
     28  O         -7.9760   22.5840  -13.5250 O.2    75  GLY75      -0.2863
     29  N        -14.1900   23.6270  -12.4340 N.3    81  GLU81      -0.1231
     30  CA       -12.8090   23.6480  -12.0760 C.3    81  GLU81       0.1699
     31  C        -12.5150   22.5180  -11.1050 C.2    81  GLU81       0.2592
     32  O        -11.5220   21.8260  -11.2470 O.2    81  GLU81      -0.2718
     33  CB       -12.4440   24.9680  -11.4380 C.3    81  GLU81       0.0402
     34  CG       -10.9760   25.0240  -11.0820 C.3    81  GLU81       0.1161
     35  CD       -10.3780   26.3030  -11.4850 C.2    81  GLU81       0.3649
     36  OE1      -10.1020   26.3540  -12.7110 O.co2  81  GLU81      -0.2457
     37  OE2      -10.2620   27.2120  -10.6010 O.co2  81  GLU81      -0.2457
     38  N        -13.3250   22.3800  -10.0830 N.am   82  LYS82      -0.1980
     39  CA       -13.1860   21.4300   -9.0090 C.3    82  LYS82       0.1596
     40  C        -14.4850   20.6780   -8.7670 C.2    82  LYS82       0.2287
     41  O        -15.6150   21.1060   -9.0850 O.2    82  LYS82      -0.2864
     42  CB       -12.7960   22.1040   -7.6750 C.3    82  LYS82       0.0298
     43  CG       -11.5360   22.9780   -7.6130 C.3    82  LYS82       0.0038
     44  CD       -11.5330   23.7820   -6.3090 C.3    82  LYS82       0.0206
     45  CE       -12.9430   24.1960   -5.8300 C.3    82  LYS82       0.1093
     46  NZ       -13.0140   25.2090   -4.7420 N.3    82  LYS82      -0.1314
     47  N         -5.2630   13.4020   -7.6840 N.3   101  ALA101     -0.1231
     48  CA        -4.5350   14.3850   -6.9950 C.3   101  ALA101      0.1694
     49  C         -5.4700   15.4390   -6.5020 C.2   101  ALA101      0.2592
     50  O         -6.5850   15.6010   -7.0160 O.2   101  ALA101     -0.2718
     51  CB        -3.4940   14.9900   -7.9520 C.3   101  ALA101      0.0304
     52  N         -5.0550   16.1740   -5.4940 N.am  102  ASN102     -0.1960
     53  CA        -5.8630   17.2970   -4.9900 C.3   102  ASN102      0.1819
     54  C         -5.0860   18.2950   -4.1950 C.2   102  ASN102      0.2621
     55  O         -3.9300   18.0860   -3.9760 O.2   102  ASN102     -0.2715
     56  CB        -7.1350   16.7480   -4.2030 C.3   102  ASN102      0.1195
     57  CG        -6.7800   16.0690   -2.9340 C.2   102  ASN102      0.2630
     58  OD1       -6.0240   16.6780   -2.0950 O.2   102  ASN102     -0.2716
     59  ND2       -7.2550   14.8970   -2.7330 N.am  102  ASN102     -0.0877
     60  N         -5.7430   19.3710   -3.7530 N.am  103  ALA103     -0.1977
     61  CA        -5.0950   20.4760   -3.0520 C.3   103  ALA103      0.1597
     62  C         -5.9150   20.7850   -1.8300 C.2   103  ALA103      0.2287
     63  O         -6.0580   21.9650   -1.4610 O.2   103  ALA103     -0.2864
     64  CB        -5.0290   21.7070   -3.9660 C.3   103  ALA103      0.0319
     65  N        -11.3950   19.1230   -3.8440 N.3   107  THR107     -0.1218
     66  CA       -10.6830   19.9210   -4.8370 C.3   107  THR107      0.1862
     67  C        -10.1870   19.0540   -6.0190 C.2   107  THR107      0.2287
     68  O         -9.1550   19.4240   -6.6100 O.2   107  THR107     -0.2866
     69  CB        -9.4950   20.7000   -4.2310 C.3   107  THR107      0.1770
     70  OG1       -8.5410   19.7730   -3.7150 O.3   107  THR107     -0.2211
     71  CG2       -9.8620   21.6990   -3.1670 C.3   107  THR107      0.0375
     72  N         -9.7670   17.8770   -9.7920 N.3   109  GLY109     -0.1210
     73  CA        -9.9450   18.5380  -11.0930 C.3   109  GLY109      0.1956
     74  C         -9.7500   17.5180  -12.1760 C.2   109  GLY109      0.2613
     75  O        -10.5360   16.6130  -12.3930 O.2   109  GLY109     -0.2717
     76  N         -8.5690   17.5880  -12.8170 N.am  110  SER110     -0.1938
     77  CA        -8.0980   16.6240  -13.7780 C.3   110  SER110      0.2055
     78  C         -6.8370   15.9210  -13.4130 C.2   110  SER110      0.2642
     79  O         -6.5420   14.8010  -13.9290 O.2   110  SER110     -0.2714
     80  CB        -7.9380   17.2560  -15.1410 C.3   110  SER110      0.2130
     81  OG        -6.9840   18.2940  -15.0250 O.3   110  SER110     -0.2179
     82  N         -6.0540   16.4730  -12.4870 N.am  111  GLN111     -0.1976
     83  CA        -4.7960   15.8010  -12.1270 C.3   111  GLN111      0.1601
     84  C         -5.0100   14.4890  -11.3690 C.2   111  GLN111      0.2287
     85  O         -5.9680   14.3640  -10.5900 O.2   111  GLN111     -0.2864
     86  CB        -3.9080   16.6860  -11.3590 C.3   111  GLN111      0.0394
     87  CG        -3.3330   17.9050  -12.1040 C.3   111  GLN111      0.0908
     88  CD        -2.3560   18.6030  -11.2430 C.2   111  GLN111      0.2608
     89  OE1       -1.3040   18.0250  -10.8570 O.2   111  GLN111     -0.2717
     90  NE2       -2.6550   19.9170  -10.8950 N.am  111  GLN111     -0.0878
@<TRIPOS>BOND
     1    80    81    1
     2    80    77    1
     3    26    25    1
     4    26    27    1
     5    25    23   am
     6    27    28    2
     7    79    78    2
     8    77    78    1
     9    77    76    1
    10     4     3    2
    11    78    82   am
    12    23    22    1
    13    23    24    2
    14    22    21    1
    15     3     2    1
    16    76    74   am
    17    36    35   ar
    18    82    83    1
    19    29    30    1
    20    75    74    2
    21    10    11    1
    22    21    16   am
    23    74    73    1
    24    83    84    1
    25    83    86    1
    26    87    86    1
    27    87    88    1
    28    30    33    1
    29    30    31    1
    30    19    18    1
    31     2     1    1
    32     2     5    1
    33    35    34    1
    34    35    37   ar
    35    33    34    1
    36    84    85    2
    37    32    31    2
    38    88    90   am
    39    88    89    2
    40    16    17    2
    41    16    15    1
    42    31    38   am
    43    73    72    1
    44    11    12    1
    45    14    15    1
    46    14    12   am
    47     5     6    1
    48    18    15    1
    49    18    20    1
    50    12    13    2
    51     6     7    1
    52    38    39    1
    53    41    40    2
    54     7     9   am
    55     7     8    2
    56    39    40    1
    57    39    42    1
    58    51    48    1
    59    47    48    1
    60    42    43    1
    61    43    44    1
    62    50    49    2
    63    48    49    1
    64    68    67    2
    65    49    52   am
    66    44    45    1
    67    67    66    1
    68    45    46    1
    69    52    53    1
    70    53    56    1
    71    53    54    1
    72    66    69    1
    73    66    65    1
    74    69    70    1
    75    69    71    1
    76    56    57    1
    77    54    55    2
    78    54    60   am
    79    64    61    1
    80    60    61    1
    81    61    62    1
    82    57    59   am
    83    57    58    2
    84    62    63    2
