@<TRIPOS>MOLECULE
tmp/5lunC00.pdb
 149 140 0 0 0
SMALL
GASTEIGER

@<TRIPOS>ATOM
      1  N        140.4140  -78.7900  -34.3850 N.3   169  ARG169     -0.1245
      2  CA       139.7500  -78.5440  -33.1050 C.3   169  ARG169      0.1563
      3  C        138.8220  -79.7270  -32.8170 C.2   169  ARG169      0.2260
      4  O        137.9040  -80.0090  -33.5710 O.2   169  ARG169     -0.2867
      5  CB       138.9550  -77.2230  -33.2010 C.3   169  ARG169      0.0307
      6  CG       139.8440  -76.0250  -33.1270 C.3   169  ARG169      0.0489
      7  CD       139.2110  -74.7550  -33.6590 C.3   169  ARG169      0.2205
      8  NE       137.9120  -74.4190  -33.1150 N.pl3 169  ARG169     -0.0865
      9  CZ       137.6990  -73.6500  -32.0500 C.cat 169  ARG169      0.5346
     10  NH1      138.7260  -73.2350  -31.3450 N.pl3 169  ARG169      0.1354
     11  NH2      136.4560  -73.3290  -31.7190 N.pl3 169  ARG169      0.1354
     12  N        136.1010  -80.9270  -30.4610 N.3   171  LEU171     -0.1245
     13  CA       135.1570  -80.1660  -29.6390 C.3   171  LEU171      0.1561
     14  C        134.1550  -81.0390  -28.9120 C.2   171  LEU171      0.2260
     15  O        133.6480  -82.0170  -29.4500 O.2   171  LEU171     -0.2867
     16  CB       134.3390  -79.2310  -30.5560 C.3   171  LEU171      0.0270
     17  CG       135.1540  -78.2300  -31.3750 C.3   171  LEU171      0.0019
     18  CD1      134.8580  -78.3220  -32.8670 C.3   171  LEU171      0.0001
     19  CD2      134.9060  -76.8310  -30.8890 C.3   171  LEU171      0.0001
     20  N        130.6700  -79.9070  -26.8970 N.3   173  PHE173     -0.1241
     21  CA       129.7450  -78.9130  -26.3720 C.3   173  PHE173      0.1605
     22  C        128.9170  -79.5240  -25.2640 C.2   173  PHE173      0.2264
     23  O        128.3940  -80.6180  -25.4310 O.2   173  PHE173     -0.2867
     24  CB       128.8060  -78.4140  -27.4610 C.3   173  PHE173      0.0534
     25  CG       129.5200  -77.6910  -28.5860 C.ar  173  PHE173     -0.0203
     26  CD1      130.1510  -78.3820  -29.6120 C.ar  173  PHE173     -0.0042
     27  CD2      129.6090  -76.3220  -28.5610 C.ar  173  PHE173     -0.0042
     28  CE1      130.8360  -77.6840  -30.6060 C.ar  173  PHE173     -0.0003
     29  CE2      130.2760  -75.6540  -29.5600 C.ar  173  PHE173     -0.0003
     30  CZ       130.8910  -76.3280  -30.5610 C.ar  173  PHE173     -0.0000
     31  N        129.1710  -71.3910  -29.9670 N.3   184  ILE184     -0.1245
     32  CA       130.2430  -70.5720  -30.5710 C.3   184  ILE184      0.1561
     33  C        129.5290  -69.4910  -31.3670 C.2   184  ILE184      0.2260
     34  O        128.5700  -69.7770  -32.1000 O.2   184  ILE184     -0.2867
     35  CB       131.2210  -71.3420  -31.4750 C.3   184  ILE184      0.0252
     36  CG1      131.8990  -72.4990  -30.7480 C.3   184  ILE184      0.0019
     37  CG2      132.3220  -70.3750  -32.0570 C.3   184  ILE184      0.0019
     38  CD1      132.6920  -73.4020  -31.6890 C.3   184  ILE184      0.0001
     39  N        131.4650  -66.7810  -36.9450 N.3   187  HIS187     -0.1241
     40  CA       132.8360  -66.4980  -37.2930 C.3   187  HIS187      0.1621
     41  C        133.1170  -67.1510  -38.6410 C.2   187  HIS187      0.2264
     42  O        132.3230  -67.9470  -39.1370 O.2   187  HIS187     -0.2867
     43  CB       133.7870  -67.0730  -36.2180 C.3   187  HIS187      0.0745
     44  CG       133.7840  -68.5670  -36.1410 C.ar  187  HIS187      0.0817
     45  ND1      132.7950  -69.2830  -35.5030 N.ar  187  HIS187     -0.2268
     46  CD2      134.6500  -69.4920  -36.6360 C.ar  187  HIS187      0.1154
     47  CE1      133.0470  -70.5780  -35.6100 C.ar  187  HIS187      0.1986
     48  NE2      134.1710  -70.7330  -36.2940 N.ar  187  HIS187     -0.2212
     49  N        136.5270  -69.2510  -40.4930 N.3   189  ASP189     -0.1239
     50  CA       137.8460  -69.7880  -40.1900 C.3   189  ASP189      0.1674
     51  C        138.8710  -69.3170  -41.2160 C.2   189  ASP189      0.2266
     52  O        138.5360  -68.5970  -42.1780 O.2   189  ASP189     -0.2867
     53  CB       137.7920  -71.2980  -39.9600 C.3   189  ASP189      0.1410
     54  CG       137.0900  -71.6420  -38.6470 C.2   189  ASP189      0.3668
     55  OD1      137.4250  -71.0330  -37.5900 O.co2 189  ASP189     -0.2456
     56  OD2      136.1400  -72.4560  -38.6760 O.co2 189  ASP189     -0.2456
     57  N        134.7520  -80.8350  -41.7400 N.3   196  ALA196     -0.1231
     58  CA       134.2000  -81.0240  -40.4140 C.3   196  ALA196      0.1694
     59  C        133.3670  -82.2800  -40.3480 C.2   196  ALA196      0.2592
     60  O        132.7510  -82.7330  -41.3220 O.2   196  ALA196     -0.2718
     61  CB       133.3910  -79.7890  -40.0290 C.3   196  ALA196      0.0304
     62  N        133.3780  -82.8720  -39.1550 N.am  197  ALA197     -0.1966
     63  CA       132.6120  -84.0480  -38.8270 C.3   197  ALA197      0.1728
     64  C        131.8470  -83.7600  -37.5470 C.2   197  ALA197      0.2616
     65  O        132.3090  -83.0080  -36.6640 O.2   197  ALA197     -0.2715
     66  CB       133.5410  -85.2380  -38.5920 C.3   197  ALA197      0.0334
     67  N        130.6720  -84.3460  -37.4420 N.am  198  GLN198     -0.1977
     68  CA       129.8880  -84.1730  -36.2370 C.3   198  GLN198      0.1601
     69  C        129.1420  -85.4500  -35.9170 C.2   198  GLN198      0.2287
     70  O        128.9170  -86.3110  -36.7820 O.2   198  GLN198     -0.2864
     71  CB       128.8960  -83.0000  -36.3840 C.3   198  GLN198      0.0394
     72  CG       127.8620  -83.2630  -37.4770 C.3   198  GLN198      0.0908
     73  CD       126.8390  -82.1540  -37.6340 C.2   198  GLN198      0.2608
     74  OE1      126.5510  -81.4380  -36.6640 O.2   198  GLN198     -0.2717
     75  NE2      126.2660  -82.0120  -38.8230 N.am  198  GLN198     -0.0878
     76  N        125.3650  -77.1140  -35.7070 N.3   204  LEU204     -0.1245
     77  CA       126.1230  -76.2340  -36.5810 C.3   204  LEU204      0.1561
     78  C        125.1950  -75.5390  -37.5700 C.2   204  LEU204      0.2260
     79  O        124.3530  -76.1900  -38.2000 O.2   204  LEU204     -0.2867
     80  CB       127.1600  -77.0600  -37.3690 C.3   204  LEU204      0.0270
     81  CG       128.0200  -76.3020  -38.4270 C.3   204  LEU204      0.0019
     82  CD1      128.9370  -75.2840  -37.7990 C.3   204  LEU204      0.0001
     83  CD2      128.8430  -77.3280  -39.2030 C.3   204  LEU204      0.0001
     84  N        133.7900  -76.3940  -46.3210 N.3   248  PHE248     -0.1241
     85  CA       133.5400  -75.0110  -46.7200 C.3   248  PHE248      0.1605
     86  C        134.8390  -74.2190  -46.7740 C.2   248  PHE248      0.2264
     87  O        135.8610  -74.6260  -46.1900 O.2   248  PHE248     -0.2867
     88  CB       132.4590  -74.3200  -45.8600 C.3   248  PHE248      0.0534
     89  CG       132.6690  -74.3760  -44.3850 C.ar  248  PHE248     -0.0203
     90  CD1      133.5390  -73.4920  -43.7580 C.ar  248  PHE248     -0.0042
     91  CD2      131.9020  -75.2080  -43.6150 C.ar  248  PHE248     -0.0042
     92  CE1      133.6970  -73.4700  -42.4150 C.ar  248  PHE248     -0.0003
     93  CE2      132.0390  -75.1950  -42.2000 C.ar  248  PHE248     -0.0003
     94  CZ       132.9590  -74.3150  -41.6240 C.ar  248  PHE248     -0.0000
     95  N        129.8320  -69.2380  -39.8370 N.3   266  HIS266     -0.1241
     96  CA       129.1600  -70.3350  -39.1610 C.3   266  HIS266      0.1621
     97  C        129.1850  -70.1070  -37.6600 C.2   266  HIS266      0.2264
     98  O        129.9470  -69.2910  -37.1470 O.2   266  HIS266     -0.2867
     99  CB       129.8030  -71.6790  -39.5680 C.3   266  HIS266      0.0745
    100  CG       131.2720  -71.7490  -39.3330 C.ar  266  HIS266      0.0817
    101  ND1      132.2090  -71.1050  -40.1190 N.ar  266  HIS266     -0.2268
    102  CD2      131.9780  -72.4590  -38.4290 C.ar  266  HIS266      0.1154
    103  CE1      133.4200  -71.3790  -39.6570 C.ar  266  HIS266      0.1986
    104  NE2      133.3060  -72.1810  -38.6160 N.ar  266  HIS266     -0.2212
    105  N        127.5620  -72.2160  -33.7180 N.3   268  VAL268     -0.1245
    106  CA       127.0240  -73.4210  -33.1130 C.3   268  VAL268      0.1561
    107  C        126.0860  -73.0510  -31.9850 C.2   268  VAL268      0.2260
    108  O        126.3990  -72.1840  -31.1540 O.2   268  VAL268     -0.2867
    109  CB       128.1490  -74.2980  -32.5370 C.3   268  VAL268      0.0252
    110  CG1      127.5950  -75.5040  -31.8240 C.3   268  VAL268      0.0019
    111  CG2      129.0620  -74.7570  -33.6670 C.3   268  VAL268      0.0019
    112  N        127.3810  -82.5550  -27.4190 N.3   275  ARG275     -0.1245
    113  CA       127.6500  -82.7170  -28.8400 C.3   275  ARG275      0.1563
    114  C        129.1240  -82.7530  -29.1070 C.2   275  ARG275      0.2260
    115  O        129.8510  -81.8370  -28.7000 O.2   275  ARG275     -0.2867
    116  CB       127.0530  -81.5410  -29.6000 C.3   275  ARG275      0.0307
    117  CG       127.4430  -81.5510  -31.1100 C.3   275  ARG275      0.0489
    118  CD       126.6440  -80.4970  -31.8940 C.3   275  ARG275      0.2205
    119  NE       127.0800  -80.4200  -33.2910 N.pl3 275  ARG275     -0.0865
    120  CZ       128.0780  -79.6700  -33.7690 C.cat 275  ARG275      0.5346
    121  NH1      128.7280  -78.8110  -33.0060 N.pl3 275  ARG275      0.1354
    122  NH2      128.4350  -79.7680  -35.0290 N.pl3 275  ARG275      0.1354
    123  N        132.0860  -82.8390  -32.0510 N.3   277  ALA277     -0.1231
    124  CA       132.3950  -82.4920  -33.4190 C.3   277  ALA277      0.1694
    125  C        133.9000  -82.3150  -33.5500 C.2   277  ALA277      0.2592
    126  O        134.6080  -82.0200  -32.5780 O.2   277  ALA277     -0.2718
    127  CB       131.6880  -81.2280  -33.8070 C.3   277  ALA277      0.0304
    128  N        134.3850  -82.4720  -34.7820 N.am  278  CYS278     -0.1956
    129  CA       135.7890  -82.2020  -35.0750 C.3   278  CYS278      0.1843
    130  C        135.8350  -81.2720  -36.2870 C.2   278  CYS278      0.2625
    131  O        135.2110  -81.5690  -37.3070 O.2   278  CYS278     -0.2714
    132  CB       136.5530  -83.4910  -35.4110 C.3   278  CYS278      0.0997
    133  SG       136.7310  -84.6430  -33.9890 S.3   278  CYS278     -0.0797
    134  N        136.6010  -80.2060  -36.1970 N.am  279  ALA279     -0.1977
    135  CA       136.7620  -79.2860  -37.3150 C.3   279  ALA279      0.1597
    136  C        138.2280  -79.2850  -37.6830 C.2   279  ALA279      0.2287
    137  O        139.0970  -79.0280  -36.8530 O.2   279  ALA279     -0.2864
    138  CB       136.2680  -77.8960  -36.9060 C.3   279  ALA279      0.0319
    139  N        141.2930  -78.0180  -40.3700 N.3   281  PHE281     -0.1241
    140  CA       141.6800  -76.8400  -41.1330 C.3   281  PHE281      0.1605
    141  C        142.8430  -77.2100  -42.0090 C.2   281  PHE281      0.2264
    142  O        143.9100  -77.5940  -41.5180 O.2   281  PHE281     -0.2867
    143  CB       142.0080  -75.7250  -40.1580 C.3   281  PHE281      0.0534
    144  CG       140.8850  -75.4890  -39.1930 C.ar  281  PHE281     -0.0203
    145  CD1      139.7700  -74.7800  -39.5950 C.ar  281  PHE281     -0.0042
    146  CD2      140.8930  -76.0330  -37.9350 C.ar  281  PHE281     -0.0042
    147  CE1      138.6980  -74.6300  -38.7510 C.ar  281  PHE281     -0.0003
    148  CE2      139.8170  -75.8590  -37.0840 C.ar  281  PHE281     -0.0003
    149  CZ       138.7250  -75.1400  -37.5020 C.ar  281  PHE281     -0.0000
@<TRIPOS>BOND
     1    86    85    1
     2    86    87    2
     3    85    84    1
     4    85    88    1
     5    88    89    1
     6    89    90   ar
     7    89    91   ar
     8    90    92   ar
     9    91    93   ar
    10    92    94   ar
    11    93    94   ar
    12    52    51    2
    13   141   142    2
    14   141   140    1
    15    57    58    1
    16    60    59    2
    17    51    50    1
    18   140   139    1
    19   140   143    1
    20    49    50    1
    21    58    59    1
    22    58    61    1
    23    59    62   am
    24    50    53    1
    25   143   144    1
    26   101   103   ar
    27   101   100   ar
    28    53    54    1
    29    95    96    1
    30   103   104   ar
    31   145   144   ar
    32   145   147   ar
    33    99   100    1
    34    99    96    1
    35   100   102   ar
    36    83    81    1
    37   144   146   ar
    38    96    97    1
    39    62    63    1
    40    42    41    2
    41    63    66    1
    42    63    64    1
    43    75    73   am
    44   147   149   ar
    45    56    54   ar
    46    54    55   ar
    47    41    40    1
    48   104   102   ar
    49    81    82    1
    50    81    80    1
    51    79    78    2
    52   146   148   ar
    53   136   135    1
    54   136   137    2
    55    97    98    2
    56    73    72    1
    57    73    74    2
    58    78    77    1
    59    64    67   am
    60    64    65    2
    61   149   148   ar
    62    72    71    1
    63    67    68    1
    64    80    77    1
    65   135   138    1
    66   135   134    1
    67   131   130    2
    68    40    39    1
    69    40    43    1
    70    70    69    2
    71    46    48   ar
    72    46    44   ar
    73    77    76    1
    74    71    68    1
    75    48    47   ar
    76   130   134   am
    77   130   129    1
    78    68    69    1
    79    43    44    1
    80    44    45   ar
    81    47    45   ar
    82   132   129    1
    83   132   133    1
    84   129   128    1
    85   122   120    1
    86   128   125   am
    87     1     2    1
    88   127   124    1
    89   120   119    2
    90   120   121    1
    91   105   106    1
    92   111   109    1
    93     7     6    1
    94     7     8    1
    95     4     3    2
    96   125   124    1
    97   125   126    2
    98   124   123    1
    99   119   118    1
   100     5     6    1
   101     5     2    1
   102     8     9    2
   103   106   109    1
   104   106   107    1
   105     2     3    1
   106    18    17    1
   107   109   110    1
   108    34    33    2
   109    37    35    1
   110     9    11    1
   111     9    10    1
   112   107   108    2
   113   118   117    1
   114    38    36    1
   115    35    36    1
   116    35    32    1
   117    17    19    1
   118    17    16    1
   119    33    32    1
   120   117   116    1
   121    28    30   ar
   122    28    26   ar
   123    32    31    1
   124    30    29   ar
   125    16    13    1
   126    12    13    1
   127    13    14    1
   128    26    25   ar
   129   116   113    1
   130    29    27   ar
   131    15    14    2
   132   114   113    1
   133   114   115    2
   134   113   112    1
   135    25    27   ar
   136    25    24    1
   137    24    21    1
   138    20    21    1
   139    21    22    1
   140    23    22    2
