@<TRIPOS>MOLECULE
tmp/5lurA00.pdb
 146 143 0 0 0
SMALL
GASTEIGER

@<TRIPOS>ATOM
      1  N        -15.4770   29.2170   -6.7210 N.3    13  MET13      -0.1245
      2  CA       -15.4760   29.5780   -5.3060 C.3    13  MET13       0.1570
      3  C        -16.8460   29.9520   -4.7550 C.2    13  MET13       0.2261
      4  O        -16.9240   30.4540   -3.6480 O.2    13  MET13      -0.2867
      5  CB       -14.5500   30.7660   -5.1060 C.3    13  MET13       0.0387
      6  CG       -13.2270   30.6210   -5.8140 C.3    13  MET13       0.0595
      7  SD       -12.0870   31.8830   -5.2480 S.3    13  MET13      -0.1393
      8  CE       -10.6380   31.4210   -6.2040 C.3    13  MET13       0.0692
      9  N        -18.8320   32.4110   -5.5180 N.3    15  HIS15      -0.1241
     10  CA       -19.2000   33.7980   -5.5970 C.3    15  HIS15       0.1621
     11  C        -20.4020   33.8490   -6.5050 C.2    15  HIS15       0.2264
     12  O        -20.6260   32.9320   -7.2920 O.2    15  HIS15      -0.2867
     13  CB       -18.0790   34.6140   -6.1820 C.3    15  HIS15       0.0745
     14  CG       -16.8520   34.6160   -5.3420 C.ar   15  HIS15       0.0817
     15  ND1      -15.6300   35.0380   -5.8150 N.ar   15  HIS15      -0.2268
     16  CD2      -16.6520   34.2260   -4.0630 C.ar   15  HIS15       0.1154
     17  CE1      -14.7310   34.9180   -4.8570 C.ar   15  HIS15       0.1986
     18  NE2      -15.3250   34.4340   -3.7820 N.ar   15  HIS15      -0.2212
     19  N        -21.2530   42.0840   -6.6680 N.3    32  TYR32      -0.1241
     20  CA       -20.4220   40.9280   -6.3920 C.3    32  TYR32       0.1605
     21  C        -20.6290   40.4560   -4.9480 C.2    32  TYR32       0.2264
     22  O        -20.2730   41.1480   -3.9820 O.2    32  TYR32      -0.2867
     23  CB       -18.9700   41.2820   -6.6350 C.3    32  TYR32       0.0534
     24  CG       -18.0940   40.1140   -7.0030 C.ar   32  TYR32      -0.0201
     25  CD1      -17.7250   39.1660   -6.0540 C.ar   32  TYR32      -0.0009
     26  CD2      -17.6090   39.9680   -8.3040 C.ar   32  TYR32      -0.0009
     27  CE1      -16.9080   38.1000   -6.4010 C.ar   32  TYR32       0.0417
     28  CE2      -16.7880   38.9080   -8.6520 C.ar   32  TYR32       0.0417
     29  CZ       -16.4440   37.9750   -7.7100 C.ar   32  TYR32       0.1957
     30  OH       -15.6340   36.9230   -8.0730 O.3    32  TYR32      -0.2866
     31  N        -19.7570   37.6730   -2.0880 N.3    34  ALA34      -0.1231
     32  CA       -18.7460   36.6580   -1.7500 C.3    34  ALA34       0.1694
     33  C        -18.6190   36.3660   -0.2580 C.2    34  ALA34       0.2593
     34  O        -18.7340   37.2690    0.5740 O.2    34  ALA34      -0.2718
     35  CB       -17.3910   37.0480   -2.3010 C.3    34  ALA34       0.0304
     36  N        -18.3640   35.0940    0.0590 N.am   35  THR35      -0.1939
     37  CA       -18.0360   34.6690    1.4280 C.3    35  THR35       0.2028
     38  C        -16.7220   35.3430    1.8650 C.2    35  THR35       0.2642
     39  O        -15.7860   35.4340    1.0790 O.2    35  THR35      -0.2714
     40  CB       -17.9710   33.1110    1.5880 C.3    35  THR35       0.1808
     41  OG1      -17.2920   32.5120    0.4730 O.3    35  THR35      -0.2208
     42  CG2      -19.3830   32.5010    1.7010 C.3    35  THR35       0.0379
     43  N        -16.6730   35.8230    3.1050 N.am   36  VAL36      -0.1977
     44  CA       -15.6420   36.7710    3.5300 C.3    36  VAL36       0.1596
     45  C        -15.0330   36.3970    4.8830 C.2    36  VAL36       0.2287
     46  O        -14.8100   35.2230    5.1580 O.2    36  VAL36      -0.2864
     47  CB       -16.2380   38.2020    3.5510 C.3    36  VAL36       0.0276
     48  CG1      -17.0820   38.4350    4.7990 C.3    36  VAL36       0.0022
     49  CG2      -15.1470   39.2540    3.4220 C.3    36  VAL36       0.0022
     50  N        -14.9950   47.1560   -3.2110 N.3    65  TRP65      -0.1241
     51  CA       -15.3200   46.3510   -2.0220 C.3    65  TRP65       0.1605
     52  C        -15.8300   47.1660   -0.8350 C.2    65  TRP65       0.2264
     53  O        -15.1480   48.1040   -0.4200 O.2    65  TRP65      -0.2867
     54  CB       -14.0900   45.5520   -1.5640 C.3    65  TRP65       0.0550
     55  CG       -13.5710   44.7070   -2.6260 C.ar   65  TRP65       0.0003
     56  CD1      -12.4320   44.9060   -3.3430 C.ar   65  TRP65       0.0946
     57  CD2      -14.1990   43.5340   -3.1540 C.ar   65  TRP65       0.0152
     58  NE1      -12.3010   43.9000   -4.2910 N.ar   65  TRP65      -0.2442
     59  CE2      -13.3730   43.0470   -4.1920 C.ar   65  TRP65       0.0810
     60  CE3      -15.3860   42.8590   -2.8640 C.ar   65  TRP65       0.0012
     61  CZ2      -13.6950   41.9150   -4.9360 C.ar   65  TRP65       0.0191
     62  CZ3      -15.7030   41.7250   -3.6030 C.ar   65  TRP65       0.0001
     63  CH2      -14.8500   41.2600   -4.6210 C.ar   65  TRP65       0.0015
     64  N        -16.2130   46.1230    2.3570 N.3    67  PHE67      -0.1227
     65  CA       -15.6690   45.7060    3.6540 C.3    67  PHE67       0.1736
     66  C        -14.1560   45.9170    3.7250 C.2    67  PHE67       0.2596
     67  O        -13.5280   45.4700    4.6650 O.2    67  PHE67      -0.2718
     68  CB       -15.9970   44.2340    3.8800 C.3    67  PHE67       0.0547
     69  CG       -15.6170   43.3700    2.7260 C.ar   67  PHE67      -0.0202
     70  CD1      -14.3130   42.9440    2.5650 C.ar   67  PHE67      -0.0042
     71  CD2      -16.5590   43.0520    1.7460 C.ar   67  PHE67      -0.0042
     72  CE1      -13.9560   42.1800    1.4810 C.ar   67  PHE67      -0.0003
     73  CE2      -16.2030   42.2810    0.6420 C.ar   67  PHE67      -0.0003
     74  CZ       -14.8960   41.8440    0.5200 C.ar   67  PHE67      -0.0000
     75  N        -13.5750   46.6090    2.7490 N.am   68  SER68      -0.1952
     76  CA       -12.1140   46.6650    2.5880 C.3    68  SER68       0.1924
     77  C        -11.7010   47.9600    1.9090 C.2    68  SER68       0.2314
     78  O        -12.5270   48.6110    1.2780 O.2    68  SER68      -0.2863
     79  CB       -11.6710   45.4630    1.7620 C.3    68  SER68       0.2116
     80  OG       -10.2990   45.5010    1.4600 O.3    68  SER68      -0.2180
     81  N         -9.3900   47.8580   -0.4130 N.3    70  SER70      -0.1217
     82  CA        -8.8880   47.4010   -1.6930 C.3    70  SER70       0.1889
     83  C         -9.8170   47.7040   -2.8540 C.2    70  SER70       0.2288
     84  O        -10.9590   48.1170   -2.6890 O.2    70  SER70      -0.2866
     85  CB        -8.6360   45.9060   -1.6210 C.3    70  SER70       0.2089
     86  OG        -7.7590   45.6340   -0.5510 O.3    70  SER70      -0.2183
     87  N        -10.5400   45.8710   -6.9210 N.3    72  THR72      -0.1218
     88  CA       -10.1730   44.8190   -7.8520 C.3    72  THR72       0.1862
     89  C        -10.7380   45.1650   -9.2000 C.2    72  THR72       0.2287
     90  O        -11.8780   45.5640   -9.2470 O.2    72  THR72      -0.2866
     91  CB       -10.7130   43.4310   -7.3960 C.3    72  THR72       0.1770
     92  OG1      -10.0030   43.0050   -6.2280 O.3    72  THR72      -0.2211
     93  CG2      -10.5540   42.3780   -8.4930 C.3    72  THR72       0.0375
     94  N        -11.4880   43.4610  -13.0940 N.3    74  PHE74      -0.1241
     95  CA       -11.5590   42.2490  -13.9350 C.3    74  PHE74       0.1605
     96  C        -11.6260   42.6220  -15.4010 C.2    74  PHE74       0.2264
     97  O        -12.3030   43.5820  -15.7610 O.2    74  PHE74      -0.2867
     98  CB       -12.8350   41.4590  -13.6480 C.3    74  PHE74       0.0534
     99  CG       -12.8370   40.7310  -12.3360 C.ar   74  PHE74      -0.0203
    100  CD1      -13.1300   41.4020  -11.1470 C.ar   74  PHE74      -0.0042
    101  CD2      -12.6220   39.3520  -12.2950 C.ar   74  PHE74      -0.0042
    102  CE1      -13.1770   40.7130   -9.9220 C.ar   74  PHE74      -0.0003
    103  CE2      -12.6610   38.6600  -11.0950 C.ar   74  PHE74      -0.0003
    104  CZ       -12.9280   39.3410   -9.8940 C.ar   74  PHE74      -0.0000
    105  N         -7.7460   39.2210  -13.4020 N.3    92  TRP92      -0.1241
    106  CA        -7.9700   40.3330  -12.5280 C.3    92  TRP92       0.1605
    107  C         -6.7200   40.8660  -11.8580 C.2    92  TRP92       0.2264
    108  O         -5.7110   40.1780  -11.7630 O.2    92  TRP92      -0.2867
    109  CB        -8.9860   39.9290  -11.4630 C.3    92  TRP92       0.0550
    110  CG        -8.6760   38.6720  -10.6590 C.ar   92  TRP92       0.0003
    111  CD1       -9.2360   37.4540  -10.8370 C.ar   92  TRP92       0.0946
    112  CD2       -7.7800   38.5420   -9.5440 C.ar   92  TRP92       0.0152
    113  NE1       -8.7500   36.5590   -9.9320 N.ar   92  TRP92      -0.2442
    114  CE2       -7.8600   37.1950   -9.1080 C.ar   92  TRP92       0.0810
    115  CE3       -6.9070   39.4180   -8.8790 C.ar   92  TRP92       0.0012
    116  CZ2       -7.0890   36.6940   -8.0240 C.ar   92  TRP92       0.0191
    117  CZ3       -6.1460   38.9280   -7.8220 C.ar   92  TRP92       0.0001
    118  CH2       -6.2400   37.5700   -7.4090 C.ar   92  TRP92       0.0015
    119  N         -5.8360   42.7980   -8.1350 N.3    94  LEU94      -0.1245
    120  CA        -6.3400   43.2240   -6.8590 C.3    94  LEU94       0.1561
    121  C         -5.3500   44.1720   -6.2250 C.2    94  LEU94       0.2260
    122  O         -4.2150   43.7680   -5.9060 O.2    94  LEU94      -0.2867
    123  CB        -6.5560   42.0160   -5.9650 C.3    94  LEU94       0.0270
    124  CG        -6.6620   42.2510   -4.4630 C.3    94  LEU94       0.0019
    125  CD1       -7.8160   43.1530   -4.1060 C.3    94  LEU94       0.0001
    126  CD2       -6.8230   40.8950   -3.8100 C.3    94  LEU94       0.0001
    127  N         -6.9310   34.8200  -11.8730 N.3   112  TYR112     -0.1227
    128  CA        -7.8820   34.5170  -12.9600 C.3   112  TYR112      0.1736
    129  C         -9.2040   34.0400  -12.3530 C.2   112  TYR112      0.2595
    130  O         -9.2690   33.6740  -11.1590 O.2   112  TYR112     -0.2718
    131  CB        -7.3050   33.4620  -13.9140 C.3   112  TYR112      0.0548
    132  CG        -7.1850   32.1330  -13.2500 C.ar  112  TYR112     -0.0200
    133  CD1       -6.0880   31.8240  -12.4320 C.ar  112  TYR112     -0.0009
    134  CD2       -8.2050   31.1830  -13.3840 C.ar  112  TYR112     -0.0009
    135  CE1       -6.0070   30.5890  -11.7790 C.ar  112  TYR112      0.0417
    136  CE2       -8.1460   29.9530  -12.7340 C.ar  112  TYR112      0.0417
    137  CZ        -7.0560   29.6520  -11.9410 C.ar  112  TYR112      0.1957
    138  OH        -7.0550   28.4290  -11.3180 O.3   112  TYR112     -0.2866
    139  N        -10.2540   34.0680  -13.1710 N.am  113  ASN113     -0.1974
    140  CA       -11.5270   33.5040  -12.7820 C.3   113  ASN113      0.1688
    141  C        -12.3130   33.1320  -13.9850 C.2   113  ASN113      0.2292
    142  O        -12.3340   33.8800  -14.9520 O.2   113  ASN113     -0.2864
    143  CB       -12.3330   34.5100  -11.9770 C.3   113  ASN113      0.1181
    144  CG       -12.5760   34.0600  -10.5680 C.2   113  ASN113      0.2629
    145  OD1      -12.8000   32.8740  -10.3150 O.2   113  ASN113     -0.2716
    146  ND2      -12.5720   34.9970   -9.6410 N.am  113  ASN113     -0.0877
@<TRIPOS>BOND
     1    97    96    2
     2    96    95    1
     3   142   141    2
     4   141   140    1
     5    95    98    1
     6    95    94    1
     7   131   132    1
     8   131   128    1
     9    98    99    1
    10   105   106    1
    11   134   132   ar
    12   134   136   ar
    13   132   133   ar
    14   139   140    1
    15   139   129   am
    16   128   129    1
    17   128   127    1
    18   140   143    1
    19   136   137   ar
    20   106   107    1
    21   106   109    1
    22   133   135   ar
    23   129   130    2
    24    99   101   ar
    25    99   100   ar
    26   101   103   ar
    27   143   144    1
    28   137   135   ar
    29   137   138    1
    30   107   108    2
    31   109   110    1
    32   100   102   ar
    33   103   104   ar
    34   111   110   ar
    35   111   113   ar
    36   110   112   ar
    37   144   145    2
    38   144   146   am
    39   113   114   ar
    40   102   104   ar
    41   112   114   ar
    42   112   115   ar
    43    90    89    2
    44    89    88    1
    45   114   116   ar
    46   115   117   ar
    47    28    26   ar
    48    28    29   ar
    49    93    91    1
    50    26    24   ar
    51   119   120    1
    52    30    29    1
    53   116   118   ar
    54    88    91    1
    55    88    87    1
    56   117   118   ar
    57    29    27   ar
    58    91    92    1
    59    12    11    2
    60    24    23    1
    61    24    25   ar
    62   120   121    1
    63   120   123    1
    64     1     2    1
    65    19    20    1
    66    23    20    1
    67    11    10    1
    68    27    25   ar
    69    20    21    1
    70   121   122    2
    71     8     7    1
    72    13    10    1
    73    13    14    1
    74   123   124    1
    75    15    14   ar
    76    15    17   ar
    77     6     7    1
    78     6     5    1
    79    10     9    1
    80    14    16   ar
    81     2     5    1
    82     2     3    1
    83    21    22    2
    84    61    63   ar
    85    61    59   ar
    86    17    18   ar
    87     3     4    2
    88    63    62   ar
    89   124   125    1
    90   124   126    1
    91    58    59   ar
    92    58    56   ar
    93    59    57   ar
    94    16    18   ar
    95    62    60   ar
    96    56    55   ar
    97    50    51    1
    98    57    60   ar
    99    57    55   ar
   100    83    84    2
   101    83    82    1
   102    55    54    1
   103    35    32    1
   104    31    32    1
   105    51    54    1
   106    51    52    1
   107    32    33    1
   108    82    85    1
   109    82    81    1
   110    85    86    1
   111    52    53    2
   112    33    36   am
   113    33    34    2
   114    36    37    1
   115    41    40    1
   116    74    73   ar
   117    74    72   ar
   118    73    71   ar
   119    39    38    2
   120    78    77    2
   121    37    40    1
   122    37    38    1
   123    80    79    1
   124    72    70   ar
   125    40    42    1
   126    71    69   ar
   127    79    76    1
   128    38    43   am
   129    77    76    1
   130    64    65    1
   131    70    69   ar
   132    76    75    1
   133    69    68    1
   134    75    66   am
   135    43    44    1
   136    49    47    1
   137    44    47    1
   138    44    45    1
   139    47    48    1
   140    65    66    1
   141    65    68    1
   142    66    67    2
   143    45    46    2
