@<TRIPOS>MOLECULE
tmp/5luuA00.pdb
 143 138 0 0 0
SMALL
GASTEIGER

@<TRIPOS>ATOM
      1  N         23.1800   21.7840    0.9230 N.3    40  TRP40      -0.1228
      2  CA        22.9740   20.4120    1.4130 C.3    40  TRP40       0.1722
      3  C         24.2480   19.5590    1.6570 C.2    40  TRP40       0.2437
      4  O         24.3030   18.8850    2.6830 O.2    40  TRP40      -0.2733
      5  CB        21.8830   19.6750    0.5750 C.3    40  TRP40       0.0563
      6  CG        22.1280   19.6060   -0.8850 C.ar   40  TRP40       0.0003
      7  CD1       21.8410   20.5740   -1.7920 C.ar   40  TRP40       0.0946
      8  CD2       22.7320   18.5490   -1.6300 C.ar   40  TRP40       0.0152
      9  NE1       22.2490   20.2070   -3.0400 N.ar   40  TRP40      -0.2442
     10  CE2       22.7560   18.9580   -2.9890 C.ar   40  TRP40       0.0810
     11  CE3       23.2420   17.2950   -1.3010 C.ar   40  TRP40       0.0012
     12  CZ2       23.2910   18.1680   -4.0010 C.ar   40  TRP40       0.0191
     13  CZ3       23.7710   16.5070   -2.3060 C.ar   40  TRP40       0.0001
     14  CH2       23.8030   16.9460   -3.6410 C.ar   40  TRP40       0.0015
     15  N         25.2860   19.6150    0.7740 N.am   41  PRO41      -0.2718
     16  CA        26.4740   18.7780    1.0460 C.3    41  PRO41       0.1535
     17  C         27.2580   19.1990    2.2710 C.2    41  PRO41       0.2598
     18  O         28.0280   18.3950    2.8080 O.2    41  PRO41      -0.2715
     19  CB        27.3160   18.9550   -0.2200 C.3    41  PRO41       0.0310
     20  CG        26.4090   19.4800   -1.2340 C.3    41  PRO41       0.0237
     21  CD        25.4410   20.3130   -0.5130 C.3    41  PRO41       0.0939
     22  N         27.0000   20.4340    2.7180 N.am   42  PHE42      -0.1974
     23  CA        27.7070   21.0900    3.8010 C.3    42  PHE42       0.1639
     24  C         26.9320   21.1340    5.1390 C.2    42  PHE42       0.2290
     25  O         27.4150   21.7000    6.1060 O.2    42  PHE42      -0.2864
     26  CB        28.0650   22.5030    3.3550 C.3    42  PHE42       0.0560
     27  CG        28.8570   22.5420    2.1010 C.ar   42  PHE42      -0.0200
     28  CD1       30.2370   22.3900    2.1210 C.ar   42  PHE42      -0.0042
     29  CD2       28.2360   22.7010    0.8960 C.ar   42  PHE42      -0.0042
     30  CE1       30.9430   22.3560    0.9310 C.ar   42  PHE42      -0.0003
     31  CE2       28.9450   22.6870   -0.2650 C.ar   42  PHE42      -0.0003
     32  CZ        30.2750   22.5130   -0.2490 C.ar   42  PHE42      -0.0000
     33  N         26.1070   18.7540    7.2300 N.3    44  GLN44      -0.1245
     34  CA        26.4850   17.6990    8.2020 C.3    44  GLN44       0.1566
     35  C         27.9140   17.2680    7.8890 C.2    44  GLN44       0.2260
     36  O         28.4150   17.5030    6.7850 O.2    44  GLN44      -0.2867
     37  CB        25.5230   16.4900    8.0840 C.3    44  GLN44       0.0367
     38  CG        25.4720   15.8670    6.7330 C.3    44  GLN44       0.0905
     39  CD        24.7280   16.7010    5.7030 C.2    44  GLN44       0.2608
     40  OE1       23.5870   17.1090    5.9500 O.2    44  GLN44      -0.2717
     41  NE2       25.3550   16.9390    4.5440 N.am   44  GLN44      -0.0878
     42  N         31.1040   15.1870    6.6510 N.3    46  VAL46      -0.1245
     43  CA        31.3010   14.2740    5.5080 C.3    46  VAL46       0.1561
     44  C         31.1990   12.8370    6.0040 C.2    46  VAL46       0.2260
     45  O         31.9490   12.4400    6.9150 O.2    46  VAL46      -0.2867
     46  CB        32.6190   14.5460    4.7910 C.3    46  VAL46       0.0252
     47  CG1       32.9050   13.3880    3.7320 C.3    46  VAL46       0.0019
     48  CG2       32.6220   15.9530    4.0880 C.3    46  VAL46       0.0019
     49  N         29.2860    6.3640    3.6150 N.3    50  LYS50      -0.1231
     50  CA        28.1990    6.5610    2.6540 C.3    50  LYS50       0.1693
     51  C         28.6500    7.0750    1.2720 C.2    50  LYS50       0.2591
     52  O         28.1880    6.5840    0.2420 O.2    50  LYS50      -0.2718
     53  CB        27.1110    7.4840    3.2550 C.3    50  LYS50       0.0285
     54  CG        25.9510    7.4730    2.1580 C.3    50  LYS50       0.0035
     55  CD        24.7160    8.1740    2.6970 C.3    50  LYS50       0.0206
     56  CE        24.6800    9.6490    2.5320 C.3    50  LYS50       0.1093
     57  NZ        24.7150   10.1230    1.1170 N.3    50  LYS50      -0.1314
     58  N         29.5370    8.0720    1.2330 N.am   51  LEU51      -0.1980
     59  CA        30.0410    8.6430   -0.0060 C.3    51  LEU51       0.1596
     60  C         31.1530    7.8020   -0.6650 C.2    51  LEU51       0.2287
     61  O         31.5780    8.1250   -1.7850 O.2    51  LEU51      -0.2864
     62  CB        30.5440   10.0740    0.2480 C.3    51  LEU51       0.0297
     63  CG        29.4530   11.0650    0.6770 C.3    51  LEU51       0.0022
     64  CD1       30.1020   12.3050    1.2520 C.3    51  LEU51       0.0001
     65  CD2       28.4350   11.4580   -0.4690 C.3    51  LEU51       0.0001
     66  N         34.3690    7.4580    0.2230 N.3    53  LEU53      -0.1245
     67  CA        35.5470    8.3170    0.0750 C.3    53  LEU53       0.1561
     68  C         36.5240    7.9130    1.1780 C.2    53  LEU53       0.2260
     69  O         36.7260    8.6440    2.1340 O.2    53  LEU53      -0.2867
     70  CB        35.1200    9.7730    0.1880 C.3    53  LEU53       0.0270
     71  CG        34.1700   10.3800   -0.8380 C.3    53  LEU53       0.0019
     72  CD1       33.8260   11.8140   -0.3720 C.3    53  LEU53       0.0001
     73  CD2       34.7250   10.3500   -2.2460 C.3    53  LEU53       0.0001
     74  N         39.0860   10.4180    2.5280 N.3    56  TYR56      -0.1241
     75  CA        38.7020   11.7800    2.8870 C.3    56  TYR56       0.1605
     76  C         39.4190   12.2260    4.1730 C.2    56  TYR56       0.2264
     77  O         40.0010   13.2960    4.2360 O.2    56  TYR56      -0.2867
     78  CB        37.1900   11.9380    3.0100 C.3    56  TYR56       0.0534
     79  CG        36.8090   13.3690    3.2920 C.ar   56  TYR56      -0.0201
     80  CD1       36.6300   13.8160    4.6140 C.ar   56  TYR56      -0.0009
     81  CD2       36.7240   14.3090    2.2610 C.ar   56  TYR56      -0.0009
     82  CE1       36.3450   15.1480    4.8900 C.ar   56  TYR56       0.0417
     83  CE2       36.4680   15.6520    2.5480 C.ar   56  TYR56       0.0417
     84  CZ        36.2410   16.0450    3.8640 C.ar   56  TYR56       0.1957
     85  OH        35.9740   17.3700    4.1490 O.3    56  TYR56      -0.2866
     86  N         35.2380   20.2420    9.1010 N.3    64  MET64      -0.1230
     87  CA        34.2380   21.2040    9.5590 C.3    64  MET64       0.1702
     88  C         33.0630   21.2690    8.6010 C.2    64  MET64       0.2592
     89  O         33.2060   21.1120    7.4020 O.2    64  MET64      -0.2718
     90  CB        34.8530   22.5850    9.7700 C.3    64  MET64       0.0401
     91  CG        34.0170   23.6270   10.5400 C.3    64  MET64       0.0596
     92  SD        33.1610   23.0450   12.0580 S.3    64  MET64      -0.1393
     93  CE        34.6140   22.5810   13.0040 C.3    64  MET64       0.0692
     94  N         31.8790   21.5540    9.1280 N.am   65  ASP65      -0.1974
     95  CA        30.6520   21.5540    8.3070 C.3    65  ASP65       0.1709
     96  C         29.6590   22.5100    8.9460 C.2    65  ASP65       0.2293
     97  O         29.8480   22.9060   10.1100 O.2    65  ASP65      -0.2864
     98  CB        30.0620   20.1510    8.2220 C.3    65  ASP65       0.1436
     99  CG        29.5990   19.6900    9.5840 C.2    65  ASP65       0.3671
    100  OD1       30.4630   19.2490   10.4000 O.co2  65  ASP65      -0.2456
    101  OD2       28.4120   19.8640    9.8480 O.co2  65  ASP65      -0.2456
    102  N         35.8440   24.9100    6.6570 N.3    91  MET91      -0.1245
    103  CA        34.9540   24.1830    5.8090 C.3    91  MET91       0.1570
    104  C         35.2320   24.4350    4.3380 C.2    91  MET91       0.2261
    105  O         35.3140   23.4860    3.5400 O.2    91  MET91      -0.2867
    106  CB        33.5020   24.5140    6.1330 C.3    91  MET91       0.0387
    107  CG        32.4370   23.8500    5.2860 C.3    91  MET91       0.0595
    108  SD        30.7600   24.3570    5.7220 S.3    91  MET91      -0.1393
    109  CE        30.6460   25.9730    4.8550 C.3    91  MET91       0.0692
    110  N         37.1230   21.7740    1.4030 N.3    95  CYS95      -0.1235
    111  CA        36.5050   21.4570    0.1360 C.3    95  CYS95       0.1677
    112  C         37.4670   21.6630   -1.0350 C.2    95  CYS95       0.2270
    113  O         37.5890   20.8110   -1.9050 O.2    95  CYS95      -0.2867
    114  CB        35.2000   22.2440   -0.0280 C.3    95  CYS95       0.0956
    115  SG        34.2600   21.8400   -1.4860 S.3    95  CYS95      -0.0801
    116  N         40.3630   18.9950   -0.8840 N.3    98  TYR98      -0.1227
    117  CA        40.0200   17.6030   -1.2110 C.3    98  TYR98       0.1736
    118  C         39.6350   17.4080   -2.6710 C.2    98  TYR98       0.2595
    119  O         39.9930   16.4160   -3.2870 O.2    98  TYR98      -0.2718
    120  CB        38.9450   17.0260   -0.2830 C.3    98  TYR98       0.0548
    121  CG        38.6860   15.5720   -0.5660 C.ar   98  TYR98      -0.0200
    122  CD1       39.5560   14.5960   -0.1210 C.ar   98  TYR98      -0.0009
    123  CD2       37.6080   15.1790   -1.3440 C.ar   98  TYR98      -0.0009
    124  CE1       39.3390   13.2750   -0.4280 C.ar   98  TYR98       0.0417
    125  CE2       37.3630   13.8780   -1.6350 C.ar   98  TYR98       0.0417
    126  CZ        38.2240   12.9110   -1.1740 C.ar   98  TYR98       0.1957
    127  OH        37.9760   11.5900   -1.5160 O.3    98  TYR98      -0.2866
    128  N         38.9070   18.3650   -3.2210 N.am   99  ASN99      -0.1974
    129  CA        38.2940   18.2440   -4.5450 C.3    99  ASN99       0.1688
    130  C         39.1240   18.9020   -5.6490 C.2    99  ASN99       0.2292
    131  O         40.1760   19.4910   -5.3710 O.2    99  ASN99      -0.2864
    132  CB        36.8550   18.7830   -4.4710 C.3    99  ASN99       0.1181
    133  CG        36.0100   18.0120   -3.4660 C.2    99  ASN99       0.2629
    134  OD1       35.5850   16.8760   -3.7400 O.2    99  ASN99      -0.2716
    135  ND2       35.8080   18.5960   -2.2570 N.am   99  ASN99      -0.0877
    136  N         31.0590   20.1300   -6.4640 N.3   105  ILE105     -0.1245
    137  CA        31.0960   20.4220   -5.0200 C.3   105  ILE105      0.1561
    138  C         31.8860   21.7370   -4.7790 C.2   105  ILE105      0.2260
    139  O         31.5480   22.5340   -3.8840 O.2   105  ILE105     -0.2867
    140  CB        31.6100   19.2380   -4.2350 C.3   105  ILE105      0.0252
    141  CG1       31.3810   19.4690   -2.7490 C.3   105  ILE105      0.0019
    142  CG2       33.1040   18.9780   -4.5530 C.3   105  ILE105      0.0019
    143  CD1       29.9250   19.3260   -2.3450 C.3   105  ILE105      0.0001
@<TRIPOS>BOND
     1   136   137    1
     2   130   131    2
     3   130   129    1
     4   137   138    1
     5   137   140    1
     6   138   139    2
     7   142   140    1
     8   129   132    1
     9   129   128    1
    10   132   133    1
    11   140   141    1
    12    12    14   ar
    13    12    10   ar
    14   134   133    2
    15    14    13   ar
    16   133   135   am
    17   119   118    2
    18   128   118   am
    19     9    10   ar
    20     9     7   ar
    21    10     8   ar
    22   141   143    1
    23   118   117    1
    24    13    11   ar
    25    73    71    1
    26   113   112    2
    27     7     6   ar
    28    61    60    2
    29   125   123   ar
    30   125   126   ar
    31     8    11   ar
    32     8     6   ar
    33   127   126    1
    34   115   114    1
    35   123   121   ar
    36    20    21    1
    37    20    19    1
    38   117   116    1
    39   117   120    1
    40   126   124   ar
    41   112   111    1
    42     6     5    1
    43    71    72    1
    44    71    70    1
    45    60    59    1
    46   121   120    1
    47   121   122   ar
    48    21    15    1
    49    65    63    1
    50   124   122   ar
    51    31    32   ar
    52    31    29   ar
    53    32    30   ar
    54    19    16    1
    55   114   111    1
    56    59    62    1
    57    59    58    1
    58    67    70    1
    59    67    66    1
    60    67    68    1
    61   111   110    1
    62    52    51    2
    63    62    63    1
    64     5     2    1
    65    63    64    1
    66    15    16    1
    67    15     3   am
    68    29    27   ar
    69     1     2    1
    70    30    28   ar
    71    16    17    1
    72    57    56    1
    73    68    69    2
    74    58    51   am
    75    51    50    1
    76     2     3    1
    77     3     4    2
    78    27    28   ar
    79    27    26    1
    80    54    55    1
    81    54    53    1
    82    81    83   ar
    83    81    79   ar
    84    17    22   am
    85    17    18    2
    86    74    75    1
    87    56    55    1
    88    83    84   ar
    89    50    53    1
    90    50    49    1
    91    22    23    1
    92    75    78    1
    93    75    76    1
    94    78    79    1
    95    79    80   ar
    96    26    23    1
    97   105   104    2
    98    47    46    1
    99    23    24    1
   100    84    85    1
   101    84    82   ar
   102    48    46    1
   103    76    77    2
   104   104   103    1
   105    41    39   am
   106    80    82   ar
   107    46    43    1
   108   109   108    1
   109    24    25    2
   110   107   108    1
   111   107   106    1
   112    43    44    1
   113    43    42    1
   114    39    40    2
   115    39    38    1
   116   103   106    1
   117   103   102    1
   118    44    45    2
   119    38    37    1
   120    36    35    2
   121    33    34    1
   122    89    88    2
   123    35    34    1
   124    37    34    1
   125    98    95    1
   126    98    99    1
   127    95    96    1
   128    95    94    1
   129    88    94   am
   130    88    87    1
   131    96    97    2
   132    86    87    1
   133    87    90    1
   134    99   101   ar
   135    99   100   ar
   136    90    91    1
   137    91    92    1
   138    92    93    1
