@<TRIPOS>MOLECULE
tmp/5luzB00.pdb
 71 66 0 0 0
SMALL
GASTEIGER

@<TRIPOS>ATOM
      1  N         -1.8130  -43.6600  -22.2180 N.3    68  ARG68      -0.1231
      2  CA        -0.7990  -43.0980  -21.3260 C.3    68  ARG68       0.1694
      3  C          0.4750  -42.6600  -22.0540 C.2    68  ARG68       0.2592
      4  O          1.0330  -41.6190  -21.7110 O.2    68  ARG68      -0.2718
      5  CB        -0.4390  -44.0900  -20.2080 C.3    68  ARG68       0.0321
      6  CG         0.2230  -43.4410  -18.9960 C.3    68  ARG68       0.0489
      7  CD         1.1800  -44.3680  -18.2600 C.3    68  ARG68       0.2205
      8  NE         2.1680  -43.5730  -17.5280 N.pl3  68  ARG68      -0.0865
      9  CZ         2.1080  -43.2380  -16.2390 C.cat  68  ARG68       0.5346
     10  NH1        1.1320  -43.6700  -15.4450 N.pl3  68  ARG68       0.1354
     11  NH2        3.0760  -42.4850  -15.7220 N.pl3  68  ARG68       0.1354
     12  N          0.9240  -43.4320  -23.0490 N.am   69  THR69      -0.1953
     13  CA         2.1550  -43.1000  -23.7910 C.3    69  THR69       0.1897
     14  C          2.0510  -41.8200  -24.6250 C.2    69  THR69       0.2313
     15  O          3.0540  -41.1380  -24.8200 O.2    69  THR69      -0.2863
     16  CB         2.6560  -44.2570  -24.6950 C.3    69  THR69       0.1794
     17  OG1        1.6020  -44.7160  -25.5480 O.3    69  THR69      -0.2208
     18  CG2        3.1760  -45.4130  -23.8450 C.3    69  THR69       0.0378
     19  N          2.7660  -39.5030  -21.6930 N.3    72  ASP72      -0.1239
     20  CA         4.1310  -39.7050  -21.1540 C.3    72  ASP72       0.1674
     21  C          5.2240  -39.2610  -22.1030 C.2    72  ASP72       0.2266
     22  O          6.1170  -38.5090  -21.7260 O.2    72  ASP72      -0.2867
     23  CB         4.4300  -41.1910  -20.9080 C.3    72  ASP72       0.1410
     24  CG         3.6450  -41.7790  -19.7830 C.2    72  ASP72       0.3668
     25  OD1        3.2550  -41.0420  -18.8490 O.co2  72  ASP72      -0.2456
     26  OD2        3.4470  -43.0140  -19.8240 O.co2  72  ASP72      -0.2456
     27  N          2.8400  -37.2930  -16.4740 N.3    91  ASP91      -0.1239
     28  CA         3.6410  -38.4000  -15.9360 C.3    91  ASP91       0.1674
     29  C          3.6670  -38.3800  -14.3980 C.2    91  ASP91       0.2266
     30  O          3.5580  -39.4300  -13.7620 O.2    91  ASP91      -0.2867
     31  CB         5.0730  -38.3490  -16.5030 C.3    91  ASP91       0.1410
     32  CG         5.8450  -39.6630  -16.3310 C.2    91  ASP91       0.3668
     33  OD1        5.2900  -40.6660  -15.8270 O.co2  91  ASP91      -0.2456
     34  OD2        7.0350  -39.6930  -16.7220 O.co2  91  ASP91      -0.2456
     35  N          1.4090  -41.2200  -12.5070 N.3    95  SER95      -0.1217
     36  CA         2.1800  -42.0930  -11.6080 C.3    95  SER95       0.1889
     37  C          1.5880  -42.1360  -10.2010 C.2    95  SER95       0.2288
     38  O          1.6560  -43.1670   -9.5350 O.2    95  SER95      -0.2866
     39  CB         3.6420  -41.6640  -11.5430 C.3    95  SER95       0.2089
     40  OG         4.2540  -41.8060  -12.8100 O.3    95  SER95      -0.2183
     41  N         11.1770  -38.7370  -11.4040 N.3   165  ILE165     -0.1245
     42  CA        10.8440  -37.9730  -12.6140 C.3   165  ILE165      0.1561
     43  C         11.6270  -36.6550  -12.6760 C.2   165  ILE165      0.2260
     44  O         12.1650  -36.3040  -13.7310 O.2   165  ILE165     -0.2867
     45  CB         9.3140  -37.7350  -12.7400 C.3   165  ILE165      0.0252
     46  CG1        8.6280  -39.0300  -13.1940 C.3   165  ILE165      0.0019
     47  CG2        8.9900  -36.6150  -13.7320 C.3   165  ILE165      0.0019
     48  CD1        7.1270  -39.0420  -12.9910 C.3   165  ILE165      0.0001
     49  N         11.8330  -47.2400  -26.3720 N.3   417  PHE417     -0.1227
     50  CA        10.5710  -46.9830  -25.6850 C.3   417  PHE417      0.1736
     51  C          9.4770  -47.9210  -26.1820 C.2   417  PHE417      0.2596
     52  O          9.2880  -48.0560  -27.3900 O.2   417  PHE417     -0.2718
     53  CB        10.1210  -45.5510  -25.9610 C.3   417  PHE417      0.0547
     54  CG        10.9880  -44.5000  -25.3280 C.ar  417  PHE417     -0.0202
     55  CD1       12.2240  -44.1660  -25.8780 C.ar  417  PHE417     -0.0042
     56  CD2       10.5540  -43.8120  -24.1970 C.ar  417  PHE417     -0.0042
     57  CE1       13.0160  -43.1830  -25.3010 C.ar  417  PHE417     -0.0003
     58  CE2       11.3400  -42.8230  -23.6230 C.ar  417  PHE417     -0.0003
     59  CZ        12.5740  -42.5110  -24.1720 C.ar  417  PHE417     -0.0000
     60  N          8.7490  -48.5470  -25.2580 N.am  418  GLY418     -0.1942
     61  CA         7.5460  -49.3120  -25.5950 C.3   418  GLY418      0.2014
     62  C          6.3310  -48.3940  -25.6430 C.2   418  GLY418      0.2638
     63  O          5.8970  -47.8840  -24.6020 O.2   418  GLY418     -0.2714
     64  N          5.7850  -48.1810  -26.8420 N.am  419  LEU419     -0.1977
     65  CA         4.6550  -47.2600  -27.0480 C.3   419  LEU419      0.1596
     66  C          3.3080  -47.9850  -27.0980 C.2   419  LEU419      0.2287
     67  O          2.3320  -47.5280  -26.4990 O.2   419  LEU419     -0.2864
     68  CB         4.8650  -46.4480  -28.3270 C.3   419  LEU419      0.0297
     69  CG         6.1880  -45.6780  -28.4410 C.3   419  LEU419      0.0022
     70  CD1        6.2260  -44.8960  -29.7450 C.3   419  LEU419      0.0001
     71  CD2        6.4050  -44.7490  -27.2530 C.3   419  LEU419      0.0001
@<TRIPOS>BOND
     1    70    69    1
     2    69    68    1
     3    69    71    1
     4    68    65    1
     5    52    51    2
     6    66    65    1
     7    66    67    2
     8    65    64    1
     9    64    62   am
    10    49    50    1
    11    51    50    1
    12    51    60   am
    13    53    50    1
    14    53    54    1
    15    55    54   ar
    16    55    57   ar
    17    62    61    1
    18    62    63    2
    19    61    60    1
    20    17    16    1
    21    54    56   ar
    22    57    59   ar
    23    15    14    2
    24    16    18    1
    25    16    13    1
    26    14    13    1
    27    56    58   ar
    28    59    58   ar
    29    13    12    1
    30    12     3   am
    31     1     2    1
    32    21    22    2
    33    21    20    1
    34     3     4    2
    35     3     2    1
    36    19    20    1
    37     2     5    1
    38    20    23    1
    39    23    24    1
    40     5     6    1
    41    26    24   ar
    42    24    25   ar
    43     6     7    1
    44     7     8    1
    45     8     9    2
    46    34    32   ar
    47    31    32    1
    48    31    28    1
    49    27    28    1
    50    32    33   ar
    51     9    11    1
    52     9    10    1
    53    28    29    1
    54    29    30    2
    55    47    45    1
    56    44    43    2
    57    46    48    1
    58    46    45    1
    59    40    39    1
    60    45    42    1
    61    43    42    1
    62    42    41    1
    63    35    36    1
    64    36    39    1
    65    36    37    1
    66    37    38    2
