@<TRIPOS>MOLECULE
tmp/5lv2D02.pdb
 102 100 0 0 0
SMALL
GASTEIGER

@<TRIPOS>ATOM
      1  N          5.0700   -4.9050   87.7440 N.3    14  GLN14      -0.1231
      2  CA         3.9750   -4.5000   86.8710 C.3    14  GLN14       0.1698
      3  C          2.8840   -5.5650   86.7960 C.2    14  GLN14       0.2592
      4  O          1.6790   -5.2730   86.8980 O.2    14  GLN14      -0.2718
      5  CB         4.5250   -4.2220   85.4700 C.3    14  GLN14       0.0381
      6  CG         3.4820   -3.9460   84.4050 C.3    14  GLN14       0.0905
      7  CD         4.1080   -3.7040   83.0440 C.2    14  GLN14       0.2608
      8  OE1        5.3280   -3.7770   82.8870 O.2    14  GLN14      -0.2717
      9  NE2        3.2730   -3.4290   82.0500 N.am   14  GLN14      -0.0878
     10  N          3.3250   -6.8090   86.6470 N.am   15  TYR15      -0.1976
     11  CA         2.4130   -7.9220   86.4400 C.3    15  TYR15       0.1639
     12  C          1.4350   -8.0650   87.5920 C.2    15  TYR15       0.2290
     13  O          0.2270   -8.1180   87.3750 O.2    15  TYR15      -0.2864
     14  CB         3.2000   -9.2200   86.2600 C.3    15  TYR15       0.0560
     15  CG         2.3260  -10.4350   86.0580 C.ar   15  TYR15      -0.0198
     16  CD1        1.7970  -10.7410   84.8110 C.ar   15  TYR15      -0.0009
     17  CD2        2.0350  -11.2820   87.1190 C.ar   15  TYR15      -0.0009
     18  CE1        0.9990  -11.8600   84.6300 C.ar   15  TYR15       0.0417
     19  CE2        1.2420  -12.3980   86.9480 C.ar   15  TYR15       0.0417
     20  CZ         0.7270  -12.6830   85.7050 C.ar   15  TYR15       0.1957
     21  OH        -0.0650  -13.7940   85.5430 O.3    15  TYR15      -0.2866
     22  N         -0.9280   -5.0960   88.0850 N.3    18  PHE18      -0.1227
     23  CA        -2.0740   -5.2260   87.1840 C.3    18  PHE18       0.1736
     24  C         -3.2170   -6.0560   87.7790 C.2    18  PHE18       0.2595
     25  O         -4.3820   -5.6860   87.6600 O.2    18  PHE18      -0.2718
     26  CB        -1.6110   -5.8340   85.8560 C.3    18  PHE18       0.0547
     27  CG        -2.7220   -6.0930   84.8720 C.ar   18  PHE18      -0.0202
     28  CD1       -3.1350   -5.1010   83.9940 C.ar   18  PHE18      -0.0042
     29  CD2       -3.3260   -7.3410   84.7950 C.ar   18  PHE18      -0.0042
     30  CE1       -4.1460   -5.3420   83.0770 C.ar   18  PHE18      -0.0003
     31  CE2       -4.3360   -7.5870   83.8800 C.ar   18  PHE18      -0.0003
     32  CZ        -4.7460   -6.5870   83.0190 C.ar   18  PHE18      -0.0000
     33  N         -2.8940   -7.1830   88.4020 N.am   19  TYR19      -0.1976
     34  CA        -3.9330   -8.0720   88.9240 C.3    19  TYR19       0.1639
     35  C         -4.4760   -7.6850   90.3000 C.2    19  TYR19       0.2290
     36  O         -5.3490   -8.3670   90.8400 O.2    19  TYR19      -0.2864
     37  CB        -3.4120   -9.5070   88.9610 C.3    19  TYR19       0.0560
     38  CG        -3.4070  -10.1470   87.5960 C.ar   19  TYR19      -0.0198
     39  CD1       -4.6030  -10.4510   86.9580 C.ar   19  TYR19      -0.0009
     40  CD2       -2.2200  -10.4620   86.9500 C.ar   19  TYR19      -0.0009
     41  CE1       -4.6200  -11.0400   85.7150 C.ar   19  TYR19       0.0417
     42  CE2       -2.2290  -11.0550   85.7010 C.ar   19  TYR19       0.0417
     43  CZ        -3.4330  -11.3420   85.0910 C.ar   19  TYR19       0.1957
     44  OH        -3.4570  -11.9300   83.8490 O.3    19  TYR19      -0.2866
     45  N        -10.2580   -5.5160   86.9280 N.3    24  GLN24      -0.1245
     46  CA        -9.7100   -6.5860   86.1120 C.3    24  GLN24       0.1566
     47  C        -10.3620   -7.9150   86.5210 C.2    24  GLN24       0.2260
     48  O        -10.7510   -8.7390   85.6710 O.2    24  GLN24      -0.2867
     49  CB        -8.1840   -6.6270   86.2730 C.3    24  GLN24       0.0367
     50  CG        -7.5000   -7.7600   85.5510 C.3    24  GLN24       0.0905
     51  CD        -7.8950   -7.8400   84.0940 C.2    24  GLN24       0.2608
     52  OE1       -8.0690   -6.8180   83.4280 O.2    24  GLN24      -0.2717
     53  NE2       -8.0570   -9.0580   83.5950 N.am   24  GLN24      -0.0878
     54  N         -3.0750  -15.4530   76.9380 N.3   127  TYR127     -0.1241
     55  CA        -3.2760  -15.4170   75.4980 C.3   127  TYR127      0.1605
     56  C         -2.4050  -16.4830   74.8500 C.2   127  TYR127      0.2264
     57  O         -1.2730  -16.7140   75.2790 O.2   127  TYR127     -0.2867
     58  CB        -2.9440  -14.0370   74.9310 C.3   127  TYR127      0.0534
     59  CG        -3.8760  -12.9340   75.3730 C.ar  127  TYR127     -0.0201
     60  CD1       -5.2550  -13.1060   75.3470 C.ar  127  TYR127     -0.0009
     61  CD2       -3.3770  -11.7190   75.8170 C.ar  127  TYR127     -0.0009
     62  CE1       -6.1090  -12.0950   75.7480 C.ar  127  TYR127      0.0417
     63  CE2       -4.2210  -10.7070   76.2230 C.ar  127  TYR127      0.0417
     64  CZ        -5.5890  -10.8980   76.1800 C.ar  127  TYR127      0.1957
     65  OH        -6.4520   -9.9050   76.5850 O.3   127  TYR127     -0.2866
     66  N          1.1360  -17.2920   77.3370 N.3   131  ASN131     -0.1225
     67  CA         1.5000  -15.9610   77.8140 C.3   131  ASN131      0.1785
     68  C          1.3740  -15.8890   79.3320 C.2   131  ASN131      0.2597
     69  O          0.5150  -16.5460   79.9180 O.2   131  ASN131     -0.2718
     70  CB         0.6320  -14.8800   77.1680 C.3   131  ASN131      0.1169
     71  CG         1.1380  -13.4780   77.4690 C.2   131  ASN131      0.2627
     72  OD1        2.3430  -13.2240   77.4560 O.2   131  ASN131     -0.2716
     73  ND2        0.2200  -12.5650   77.7590 N.am  131  ASN131     -0.0877
     74  N          2.2440  -15.0810   79.9380 N.am  132  GLU132     -0.1979
     75  CA         2.3310  -14.8760   81.3920 C.3   132  GLU132      0.1602
     76  C          3.1370  -15.9660   82.1050 C.2   132  GLU132      0.2287
     77  O          3.5280  -15.7930   83.2620 O.2   132  GLU132     -0.2864
     78  CB         0.9350  -14.7520   82.0150 C.3   132  GLU132      0.0415
     79  CG         0.1750  -13.5590   81.4700 C.3   132  GLU132      0.1163
     80  CD        -1.2240  -13.4310   82.0220 C.2   132  GLU132      0.3649
     81  OE1       -1.4160  -13.5880   83.2480 O.co2 132  GLU132     -0.2457
     82  OE2       -2.1330  -13.1590   81.2160 O.co2 132  GLU132     -0.2457
     83  N          4.6440  -10.8700   74.7360 N.3   336  LYS336     -0.1245
     84  CA         4.4210   -9.9980   75.8800 C.3   336  LYS336      0.1561
     85  C          3.5640   -8.7880   75.5280 C.2   336  LYS336      0.2260
     86  O          2.7450   -8.3370   76.3300 O.2   336  LYS336     -0.2867
     87  CB         5.7680   -9.5090   76.4090 C.3   336  LYS336      0.0271
     88  CG         5.7120   -8.6420   77.6490 C.3   336  LYS336      0.0035
     89  CD         5.1710   -9.3800   78.8520 C.3   336  LYS336      0.0206
     90  CE         5.2070   -8.4800   80.0760 C.3   336  LYS336      0.1093
     91  NZ         4.9410   -9.2230   81.3330 N.3   336  LYS336     -0.1314
     92  N         -4.1240   -5.4390   70.9230 N.3   340  PHE340     -0.1241
     93  CA        -5.5220   -5.6740   71.2420 C.3   340  PHE340      0.1605
     94  C         -6.3880   -4.9430   70.2350 C.2   340  PHE340      0.2264
     95  O         -6.5650   -3.7290   70.3140 O.2   340  PHE340     -0.2867
     96  CB        -5.8340   -5.2080   72.6610 C.3   340  PHE340      0.0534
     97  CG        -5.0490   -5.9240   73.7120 C.ar  340  PHE340     -0.0203
     98  CD1       -5.5350   -7.0850   74.2690 C.ar  340  PHE340     -0.0042
     99  CD2       -3.8190   -5.4410   74.1440 C.ar  340  PHE340     -0.0042
    100  CE1       -4.8240   -7.7470   75.2300 C.ar  340  PHE340     -0.0003
    101  CE2       -3.0990   -6.1130   75.1170 C.ar  340  PHE340     -0.0003
    102  CZ        -3.6060   -7.2700   75.6580 C.ar  340  PHE340     -0.0000
@<TRIPOS>BOND
     1    94    95    2
     2    94    93    1
     3    92    93    1
     4    93    96    1
     5    96    97    1
     6    97    99   ar
     7    97    98   ar
     8    99   101   ar
     9    98   100   ar
    10    83    84    1
    11    56    57    2
    12    56    55    1
    13    58    59    1
    14    58    55    1
    15   101   102   ar
    16   100   102   ar
    17    60    59   ar
    18    60    62   ar
    19    59    61   ar
    20    55    54    1
    21    85    84    1
    22    85    86    2
    23    62    64   ar
    24    61    63   ar
    25    84    87    1
    26    64    63   ar
    27    64    65    1
    28    87    88    1
    29    70    71    1
    30    70    67    1
    31    66    67    1
    32    72    71    2
    33    71    73   am
    34    88    89    1
    35    67    68    1
    36    89    90    1
    37    68    69    2
    38    68    74   am
    39    74    75    1
    40    90    91    1
    41    82    80   ar
    42    75    78    1
    43    75    76    1
    44    79    78    1
    45    79    80    1
    46    80    81   ar
    47     9     7   am
    48    76    77    2
    49     8     7    2
    50    32    30   ar
    51    32    31   ar
    52     7     6    1
    53    30    28   ar
    54    52    51    2
    55    53    51   am
    56    44    43    1
    57    31    29   ar
    58    28    27   ar
    59    51    50    1
    60     6     5    1
    61    18    16   ar
    62    18    20   ar
    63    29    27   ar
    64    16    15   ar
    65    27    26    1
    66    43    42   ar
    67    43    41   ar
    68     5     2    1
    69    21    20    1
    70    50    49    1
    71    48    47    2
    72    42    40   ar
    73    20    19   ar
    74    41    39   ar
    75    26    23    1
    76    15    14    1
    77    15    17   ar
    78    46    49    1
    79    46    47    1
    80    46    45    1
    81    14    11    1
    82    11    10    1
    83    11    12    1
    84    10     3   am
    85     3     2    1
    86     3     4    2
    87     2     1    1
    88    19    17   ar
    89    40    38   ar
    90    39    38   ar
    91    23    24    1
    92    23    22    1
    93    13    12    2
    94    38    37    1
    95    25    24    2
    96    24    33   am
    97    33    34    1
    98    34    37    1
    99    34    35    1
   100    35    36    2
