@<TRIPOS>MOLECULE
tmp/5lvaA00.pdb
 140 140 0 0 0
SMALL
GASTEIGER

@<TRIPOS>ATOM
      1  N         24.0520  -27.7770    1.2090 N.3     9  HIS9       -0.1241
      2  CA        22.7200  -28.0940    0.7740 C.3     9  HIS9        0.1621
      3  C         22.8230  -29.0990   -0.3660 C.2     9  HIS9        0.2264
      4  O         23.5650  -28.8900   -1.3090 O.2     9  HIS9       -0.2867
      5  CB        21.9910  -26.8370    0.3360 C.3     9  HIS9        0.0745
      6  CG        20.5290  -27.0380    0.1230 C.ar    9  HIS9        0.0817
      7  ND1       20.0270  -27.9830   -0.7460 N.ar    9  HIS9       -0.2268
      8  CD2       19.4590  -26.4200    0.6630 C.ar    9  HIS9        0.1154
      9  CE1       18.7110  -27.9370   -0.7290 C.ar    9  HIS9        0.1986
     10  NE2       18.3380  -26.9970    0.1190 N.ar    9  HIS9       -0.2212
     11  N         16.9920  -25.6130   -3.9890 N.3    15  SER15      -0.1202
     12  CA        16.8680  -24.8360   -2.7580 C.3    15  SER15       0.2020
     13  C         16.0760  -23.5710   -2.9920 C.2    15  SER15       0.2619
     14  O         16.2230  -22.9410   -4.0280 O.2    15  SER15      -0.2717
     15  CB        18.2570  -24.4740   -2.2050 C.3    15  SER15       0.2103
     16  OG        18.1890  -23.4960   -1.1760 O.3    15  SER15      -0.2182
     17  N         15.2480  -23.1890   -2.0320 N.am   16  VAL16      -0.1965
     18  CA        14.5880  -21.9020   -2.1090 C.3    16  VAL16       0.1727
     19  C         15.2640  -20.8820   -1.2050 C.2    16  VAL16       0.2616
     20  O         15.7110  -19.8430   -1.6790 O.2    16  VAL16      -0.2715
     21  CB        13.0890  -22.0110   -1.7540 C.3    16  VAL16       0.0290
     22  CG1       12.4980  -20.6540   -1.5070 C.3    16  VAL16       0.0023
     23  CG2       12.3470  -22.6920   -2.8730 C.3    16  VAL16       0.0023
     24  N         15.3500  -21.1900    0.0890 N.am   17  VAL17      -0.1963
     25  CA        15.8190  -20.2350    1.0920 C.3    17  VAL17       0.1727
     26  C         17.3230  -20.0090    1.0600 C.2    17  VAL17       0.2616
     27  O         17.7940  -18.8790    0.9660 O.2    17  VAL17      -0.2715
     28  CB        15.4450  -20.6840    2.5100 C.3    17  VAL17       0.0290
     29  CG1       15.9640  -19.6750    3.5420 C.3    17  VAL17       0.0023
     30  CG2       13.9510  -20.8640    2.6280 C.3    17  VAL17       0.0023
     31  N         18.0790  -21.0910    1.1500 N.am   18  ASN18      -0.1972
     32  CA        19.5250  -20.9930    1.1740 C.3    18  ASN18       0.1688
     33  C         20.0820  -20.4300   -0.1080 C.2    18  ASN18       0.2292
     34  O         21.0700  -19.6990   -0.0940 O.2    18  ASN18      -0.2864
     35  CB        20.1280  -22.3510    1.4650 C.3    18  ASN18       0.1181
     36  CG        20.1290  -22.6590    2.9400 C.2    18  ASN18       0.2629
     37  OD1       21.0070  -22.2130    3.6700 O.2    18  ASN18      -0.2716
     38  ND2       19.1320  -23.3960    3.3930 N.am   18  ASN18      -0.0877
     39  N         20.5280  -26.0620    5.7510 N.3    65  PRO65      -0.2102
     40  CA        19.1780  -26.1670    6.2920 C.3    65  PRO65       0.1504
     41  C         19.1760  -27.0740    7.5090 C.2    65  PRO65       0.2576
     42  O         19.9750  -28.0040    7.5700 O.2    65  PRO65      -0.2718
     43  CB        18.3870  -26.7890    5.1450 C.3    65  PRO65       0.0282
     44  CG        19.3820  -27.6120    4.4360 C.3    65  PRO65       0.0208
     45  CD        20.6640  -26.8180    4.4930 C.3    65  PRO65       0.0893
     46  N         18.2930  -26.8000    8.4600 N.am   66  LEU66      -0.1966
     47  CA        18.1110  -27.6650    9.6030 C.3    66  LEU66       0.1728
     48  C         17.4160  -28.9400    9.1840 C.2    66  LEU66       0.2616
     49  O         16.2420  -28.9260    8.8260 O.2    66  LEU66      -0.2715
     50  CB        17.2940  -26.9690   10.6890 C.3    66  LEU66       0.0311
     51  CG        17.3620  -27.5590   12.0910 C.3    66  LEU66       0.0022
     52  CD1       18.7510  -27.3460   12.6420 C.3    66  LEU66       0.0001
     53  CD2       16.3260  -26.9220   12.9720 C.3    66  LEU66       0.0001
     54  N         18.1610  -30.0350    9.2420 N.am   67  TYR67      -0.1960
     55  CA        17.6480  -31.3580    8.9590 C.3    67  TYR67       0.1771
     56  C         17.7000  -32.1820   10.2220 C.2    67  TYR67       0.2620
     57  O         18.7810  -32.3970   10.7520 O.2    67  TYR67      -0.2715
     58  CB        18.4730  -32.0560    7.8790 C.3    67  TYR67       0.0574
     59  CG        18.2760  -31.5750    6.4690 C.ar   67  TYR67      -0.0198
     60  CD1       17.2780  -30.6620    6.1390 C.ar   67  TYR67      -0.0009
     61  CD2       19.0770  -32.0540    5.4590 C.ar   67  TYR67      -0.0009
     62  CE1       17.1040  -30.2420    4.8420 C.ar   67  TYR67       0.0417
     63  CE2       18.9100  -31.6410    4.1690 C.ar   67  TYR67       0.0417
     64  CZ        17.9280  -30.7400    3.8510 C.ar   67  TYR67       0.1957
     65  OH        17.8000  -30.3520    2.5220 O.3    67  TYR67      -0.2866
     66  N         16.5470  -32.6630   10.6770 N.am   68  TRP68      -0.1960
     67  CA        16.4130  -33.3830   11.9550 C.3    68  TRP68       0.1771
     68  C         17.2610  -32.7480   13.0620 C.2    68  TRP68       0.2619
     69  O         18.0310  -33.4100   13.7550 O.2    68  TRP68      -0.2715
     70  CB        16.7330  -34.8690   11.7670 C.3    68  TRP68       0.0590
     71  CG        15.6730  -35.5130   10.9310 C.ar   68  TRP68       0.0006
     72  CD1       15.7830  -35.9190    9.6350 C.ar   68  TRP68       0.0946
     73  CD2       14.3100  -35.7460   11.3080 C.ar   68  TRP68       0.0152
     74  NE1       14.5820  -36.4170    9.1890 N.ar   68  TRP68      -0.2442
     75  CE2       13.6590  -36.3150   10.1920 C.ar   68  TRP68       0.0810
     76  CE3       13.5780  -35.5350   12.4810 C.ar   68  TRP68       0.0012
     77  CZ2       12.3180  -36.6860   10.2210 C.ar   68  TRP68       0.0191
     78  CZ3       12.2500  -35.8950   12.5080 C.ar   68  TRP68       0.0001
     79  CH2       11.6290  -36.4670   11.3910 C.ar   68  TRP68       0.0015
     80  N         17.0970  -31.4320   13.1780 N.am   69  TYR69      -0.1974
     81  CA        17.6840  -30.6120   14.2250 C.3    69  TYR69       0.1639
     82  C         19.1990  -30.6300   14.1560 C.2    69  TYR69       0.2290
     83  O         19.8860  -30.1940   15.0670 O.2    69  TYR69      -0.2864
     84  CB        17.1560  -31.0660   15.5870 C.3    69  TYR69       0.0560
     85  CG        15.6520  -31.1900   15.5670 C.ar   69  TYR69      -0.0198
     86  CD1       14.8430  -30.0700   15.6710 C.ar   69  TYR69      -0.0009
     87  CD2       15.0390  -32.4300   15.3790 C.ar   69  TYR69      -0.0009
     88  CE1       13.4660  -30.1860   15.6070 C.ar   69  TYR69       0.0417
     89  CE2       13.6730  -32.5530   15.3250 C.ar   69  TYR69       0.0417
     90  CZ        12.8920  -31.4310   15.4360 C.ar   69  TYR69       0.1957
     91  OH        11.5330  -31.5560   15.3840 O.3    69  TYR69      -0.2866
     92  N         18.5880  -22.4720    8.4210 N.3   106  SER106     -0.1202
     93  CA        17.2010  -22.2090    8.1340 C.3   106  SER106      0.2020
     94  C         16.3530  -23.3590    8.6690 C.2   106  SER106      0.2619
     95  O         16.7590  -24.5130    8.6100 O.2   106  SER106     -0.2717
     96  CB        17.0010  -22.0240    6.6330 C.3   106  SER106      0.2103
     97  OG        17.4190  -23.1790    5.9410 O.3   106  SER106     -0.2182
     98  N         15.1780  -23.0520    9.2000 N.am  107  ALA107     -0.1965
     99  CA        14.3460  -24.1050    9.7610 C.3   107  ALA107      0.1728
    100  C         12.9180  -23.9830    9.2770 C.2   107  ALA107      0.2617
    101  O         12.4000  -22.8860    9.1490 O.2   107  ALA107     -0.2715
    102  CB        14.3980  -24.0700   11.2780 C.3   107  ALA107      0.0334
    103  N         12.2900  -25.1210    9.0080 N.am  108  GLY108     -0.1940
    104  CA        10.9220  -25.1420    8.5330 C.3   108  GLY108      0.2014
    105  C          9.9000  -24.6600    9.5420 C.2   108  GLY108      0.2638
    106  O          8.9590  -23.9500    9.1970 O.2   108  GLY108     -0.2714
    107  N         10.0980  -25.0370   10.7970 N.am  109  ALA109     -0.1977
    108  CA         9.1410  -24.7530   11.8530 C.3   109  ALA109      0.1597
    109  C          9.1810  -23.2840   12.2760 C.2   109  ALA109      0.2287
    110  O         10.1510  -22.5730   12.0100 O.2   109  ALA109     -0.2864
    111  CB         9.4040  -25.6700   13.0270 C.3   109  ALA109      0.0319
    112  N         10.5390  -23.4290   18.8750 N.3   114  TYR114     -0.1241
    113  CA        11.8520  -23.6720   19.4620 C.3   114  TYR114      0.1605
    114  C         12.0390  -22.9730   20.8060 C.2   114  TYR114      0.2264
    115  O         12.7650  -22.0020   20.9310 O.2   114  TYR114     -0.2867
    116  CB        12.9460  -23.2700   18.4670 C.3   114  TYR114      0.0534
    117  CG        12.9510  -24.1900   17.2720 C.ar  114  TYR114     -0.0201
    118  CD1       13.4720  -25.4580   17.3700 C.ar  114  TYR114     -0.0009
    119  CD2       12.3950  -23.8080   16.0650 C.ar  114  TYR114     -0.0009
    120  CE1       13.4640  -26.3180   16.3110 C.ar  114  TYR114      0.0417
    121  CE2       12.3810  -24.6690   14.9810 C.ar  114  TYR114      0.0417
    122  CZ        12.9160  -25.9250   15.1150 C.ar  114  TYR114      0.1957
    123  OH        12.9080  -26.8000   14.0650 O.3   114  TYR114     -0.2866
    124  N          8.5360  -27.8710   19.6050 N.3   120  ASN120     -0.1240
    125  CA         9.8190  -28.5570   19.5130 C.3   120  ASN120      0.1653
    126  C         10.6230  -28.5100   20.8140 C.2   120  ASN120      0.2266
    127  O         11.6660  -29.1470   20.9100 O.2   120  ASN120     -0.2867
    128  CB        10.6390  -27.9940   18.3570 C.3   120  ASN120      0.1155
    129  CG        10.2050  -28.5530   17.0260 C.2   120  ASN120      0.2627
    130  OD1        9.6730  -29.6580   16.9490 O.2   120  ASN120     -0.2716
    131  ND2       10.4210  -27.7900   15.9680 N.am  120  ASN120     -0.0877
    132  N         10.9610  -21.3860    7.1030 N.3   151  ALA151     -0.1231
    133  CA        11.6610  -21.4710    5.8370 C.3   151  ALA151      0.1694
    134  C         10.8680  -22.2580    4.7880 C.2   151  ALA151      0.2592
    135  O         10.4760  -23.3980    5.0160 O.2   151  ALA151     -0.2718
    136  CB        13.0290  -22.0890    6.0540 C.3   151  ALA151      0.0304
    137  N         10.6190  -21.6270    3.6460 N.am  152  GLY152     -0.1957
    138  CA         9.8040  -22.2330    2.6060 C.3   152  GLY152      0.1869
    139  C          8.3570  -21.7710    2.5490 C.2   152  GLY152      0.2309
    140  O          7.7570  -21.7540    1.4860 O.2   152  GLY152     -0.2863
@<TRIPOS>BOND
     1    14    13    2
     2    11    12    1
     3    13    12    1
     4    13    17   am
     5    23    21    1
     6    12    15    1
     7    15    16    1
     8    18    17    1
     9    18    21    1
    10    18    19    1
    11    21    22    1
    12    20    19    2
    13     4     3    2
    14    19    24   am
    15     7     9   ar
    16     7     6   ar
    17     9    10   ar
    18     3     2    1
    19    33    34    2
    20    33    32    1
    21    24    25    1
    22    10     8   ar
    23     6     5    1
    24     6     8   ar
    25     5     2    1
    26     2     1    1
    27    27    26    2
    28    26    25    1
    29    26    31   am
    30    25    28    1
    31    31    32    1
    32    32    35    1
    33    35    36    1
    34   140   139    2
    35    28    30    1
    36    28    29    1
    37    65    64    1
    38   139   138    1
    39   138   137    1
    40    36    38   am
    41    36    37    2
    42   137   134   am
    43    64    63   ar
    44    64    62   ar
    45    63    61   ar
    46    44    45    1
    47    44    43    1
    48    45    39    1
    49   134   135    2
    50   134   133    1
    51    62    60   ar
    52    43    40    1
    53    61    59   ar
    54    39    40    1
    55   133   136    1
    56   133   132    1
    57    97    96    1
    58    60    59   ar
    59    40    41    1
    60    59    58    1
    61    96    93    1
    62    41    42    2
    63    41    46   am
    64    58    55    1
    65    93    92    1
    66    93    94    1
    67    46    47    1
    68   104   103    1
    69   104   105    1
    70    95    94    2
    71    94    98   am
    72    49    48    2
    73    55    54    1
    74    55    56    1
    75   103   100   am
    76   101   100    2
    77    48    54   am
    78    48    47    1
    79    74    72   ar
    80    74    75   ar
    81   106   105    2
    82    98    99    1
    83   100    99    1
    84   105   107   am
    85    47    50    1
    86    72    71   ar
    87    99   102    1
    88    75    77   ar
    89    75    73   ar
    90    77    79   ar
    91    56    66   am
    92    56    57    2
    93    66    67    1
    94    50    51    1
    95   107   108    1
    96    71    73   ar
    97    71    70    1
    98    73    76   ar
    99    79    78   ar
   100    70    67    1
   101   108   109    1
   102   108   111    1
   103    67    68    1
   104   110   109    2
   105    51    52    1
   106    51    53    1
   107    76    78   ar
   108    68    80   am
   109    68    69    2
   110    80    81    1
   111   123   122    1
   112    82    81    1
   113    82    83    2
   114    81    84    1
   115   121   122   ar
   116   121   119   ar
   117   122   120   ar
   118    89    87   ar
   119    89    90   ar
   120    87    85   ar
   121    91    90    1
   122    90    88   ar
   123    85    84    1
   124    85    86   ar
   125    88    86   ar
   126   131   129   am
   127   119   117   ar
   128   120   118   ar
   129   130   129    2
   130   129   128    1
   131   117   118   ar
   132   117   116    1
   133   128   125    1
   134   116   113    1
   135   112   113    1
   136   113   114    1
   137   125   124    1
   138   125   126    1
   139   114   115    2
   140   126   127    2
