@<TRIPOS>MOLECULE
tmp/5lvdA00.pdb
 151 148 0 0 0
SMALL
GASTEIGER

@<TRIPOS>ATOM
      1  N         13.5460   44.1360    0.0660 N.3   112  ASN112     -0.1225
      2  CA        13.3520   43.1440   -0.9840 C.3   112  ASN112      0.1785
      3  C         14.4940   42.1360   -0.9290 C.2   112  ASN112      0.2597
      4  O         15.4700   42.2810   -0.1720 O.2   112  ASN112     -0.2718
      5  CB        13.2580   43.8020   -2.3690 C.3   112  ASN112      0.1169
      6  CG        12.2690   43.1170   -3.2950 C.2   112  ASN112      0.2627
      7  OD1       11.9270   41.9530   -3.1230 O.2   112  ASN112     -0.2716
      8  ND2       11.7800   43.8590   -4.2770 N.am  112  ASN112     -0.0877
      9  N         14.3360   41.0970   -1.7430 N.am  113  ALA113     -0.1966
     10  CA        15.3340   40.0650   -1.9850 C.3   113  ALA113      0.1728
     11  C         15.1450   39.6230   -3.4260 C.2   113  ALA113      0.2616
     12  O         14.0400   39.7500   -3.9700 O.2   113  ALA113     -0.2715
     13  CB        15.1570   38.8940   -1.0150 C.3   113  ALA113      0.0334
     14  N         16.2010   39.0930   -4.0440 N.am  114  PHE114     -0.1960
     15  CA        16.0990   38.7480   -5.4540 C.3   114  PHE114      0.1771
     16  C         17.2100   37.7890   -5.8490 C.2   114  PHE114      0.2619
     17  O         18.2100   37.6250   -5.1440 O.2   114  PHE114     -0.2715
     18  CB        16.1010   39.9980   -6.3540 C.3   114  PHE114      0.0574
     19  CG        17.3060   40.9040   -6.2260 C.ar  114  PHE114     -0.0200
     20  CD1       17.3730   41.8500   -5.2210 C.ar  114  PHE114     -0.0042
     21  CD2       18.3470   40.8490   -7.1510 C.ar  114  PHE114     -0.0042
     22  CE1       18.4470   42.7300   -5.1350 C.ar  114  PHE114     -0.0003
     23  CE2       19.4270   41.7200   -7.0460 C.ar  114  PHE114     -0.0003
     24  CZ        19.4630   42.6600   -6.0520 C.ar  114  PHE114     -0.0000
     25  N         17.0000   37.1590   -7.0010 N.am  115  TRP115     -0.1974
     26  CA        18.0200   36.4110   -7.7260 C.3   115  TRP115      0.1640
     27  C         18.4990   37.3100   -8.8670 C.2   115  TRP115      0.2290
     28  O         17.6820   37.7850   -9.6600 O.2   115  TRP115     -0.2864
     29  CB        17.4170   35.0990   -8.2460 C.3   115  TRP115      0.0576
     30  CG        18.3170   34.3370   -9.1920 C.ar  115  TRP115      0.0006
     31  CD1       18.2800   34.3480  -10.5560 C.ar  115  TRP115      0.0946
     32  CD2       19.4040   33.4780   -8.8280 C.ar  115  TRP115      0.0152
     33  NE1       19.2870   33.5540  -11.0440 N.ar  115  TRP115     -0.2442
     34  CE2       19.9730   32.9870  -10.0050 C.ar  115  TRP115      0.0810
     35  CE3       19.9160   33.0320   -7.6030 C.ar  115  TRP115      0.0012
     36  CZ2       21.0560   32.0820   -9.9920 C.ar  115  TRP115      0.0191
     37  CZ3       20.9630   32.1250   -7.5860 C.ar  115  TRP115      0.0001
     38  CH2       21.5200   31.6690   -8.7690 C.ar  115  TRP115      0.0015
     39  N          9.9890   45.4800    6.8020 N.3   130  PHE130     -0.1241
     40  CA        10.6300   44.1730    6.8770 C.3   130  PHE130      0.1605
     41  C         11.7430   44.2110    7.9120 C.2   130  PHE130      0.2264
     42  O         12.3720   45.2530    8.1370 O.2   130  PHE130     -0.2867
     43  CB        11.3390   43.7960    5.5600 C.3   130  PHE130      0.0534
     44  CG        10.4460   43.2710    4.4900 C.ar  130  PHE130     -0.0203
     45  CD1       10.0270   41.9580    4.5200 C.ar  130  PHE130     -0.0042
     46  CD2       10.0790   44.0620    3.4310 C.ar  130  PHE130     -0.0042
     47  CE1        9.2320   41.4550    3.5240 C.ar  130  PHE130     -0.0003
     48  CE2        9.2760   43.5580    2.4220 C.ar  130  PHE130     -0.0003
     49  CZ         8.8670   42.2570    2.4750 C.ar  130  PHE130     -0.0000
     50  N         15.4350   39.8090    5.2650 N.3   133  LEU133     -0.1245
     51  CA        14.4850   38.9520    4.5660 C.3   133  LEU133      0.1561
     52  C         14.9050   37.4900    4.5490 C.2   133  LEU133      0.2260
     53  O         14.0490   36.6120    4.3650 O.2   133  LEU133     -0.2867
     54  CB        14.1870   39.4620    3.1530 C.3   133  LEU133      0.0270
     55  CG        13.1880   40.6220    3.0860 C.3   133  LEU133      0.0019
     56  CD1       13.8370   41.9630    3.3900 C.3   133  LEU133      0.0001
     57  CD2       12.5120   40.6540    1.7370 C.3   133  LEU133      0.0001
     58  N         10.8550   32.8140    1.8020 N.3   139  VAL139     -0.1245
     59  CA        11.5370   33.8260    0.9910 C.3   139  VAL139      0.1561
     60  C         12.8260   33.2640    0.3900 C.2   139  VAL139      0.2260
     61  O         13.0800   33.4070   -0.8100 O.2   139  VAL139     -0.2867
     62  CB        11.8000   35.1030    1.8200 C.3   139  VAL139      0.0252
     63  CG1       12.6570   36.0720    1.0220 C.3   139  VAL139      0.0019
     64  CG2       10.4980   35.7570    2.2410 C.3   139  VAL139      0.0019
     65  N         11.9080   30.8070   -2.2010 N.3   142  HIS142     -0.1226
     66  CA        11.3750   31.5630   -3.3420 C.3   142  HIS142      0.1752
     67  C         12.5210   32.0450   -4.2290 C.2   142  HIS142      0.2595
     68  O         12.4710   31.9180   -5.4650 O.2   142  HIS142     -0.2718
     69  CB        10.5350   32.7280   -2.7810 C.3   142  HIS142      0.0759
     70  CG         9.9630   33.6710   -3.8180 C.ar  142  HIS142      0.0818
     71  ND1        8.6140   33.7930   -4.0620 N.ar  142  HIS142     -0.2268
     72  CD2       10.5600   34.5510   -4.6580 C.ar  142  HIS142      0.1154
     73  CE1        8.4140   34.6880   -5.0210 C.ar  142  HIS142      0.1986
     74  NE2        9.5820   35.1650   -5.4080 N.ar  142  HIS142     -0.2212
     75  N         13.5580   32.6120   -3.6160 N.am  143  GLU143     -0.1979
     76  CA        14.6780   33.1350   -4.3950 C.3   143  GLU143      0.1602
     77  C         15.4300   32.0230   -5.1100 C.2   143  GLU143      0.2287
     78  O         15.7460   32.1470   -6.2980 O.2   143  GLU143     -0.2864
     79  CB        15.6370   33.9600   -3.5430 C.3   143  GLU143      0.0415
     80  CG        15.0120   35.1070   -2.7420 C.3   143  GLU143      0.1163
     81  CD        14.1170   36.0420   -3.4930 C.2   143  GLU143      0.3649
     82  OE1       14.2090   36.0980   -4.7240 O.co2 143  GLU143     -0.2457
     83  OE2       13.2470   36.6700   -2.8260 O.co2 143  GLU143     -0.2457
     84  N         13.7210   30.8450   -8.1950 N.3   146  HIS146     -0.1241
     85  CA        13.9230   31.6220   -9.4170 C.3   146  HIS146      0.1621
     86  C         15.0920   31.0760  -10.2390 C.2   146  HIS146      0.2264
     87  O         15.0230   31.0290  -11.4740 O.2   146  HIS146     -0.2867
     88  CB        14.1520   33.0960   -9.0730 C.3   146  HIS146      0.0745
     89  CG        12.8850   33.8770   -8.8170 C.ar  146  HIS146      0.0817
     90  ND1       11.8450   33.9180   -9.7180 N.ar  146  HIS146     -0.2268
     91  CD2       12.5040   34.6820   -7.7860 C.ar  146  HIS146      0.1154
     92  CE1       10.8800   34.6910   -9.2430 C.ar  146  HIS146      0.1986
     93  NE2       11.2560   35.1850   -8.0750 N.ar  146  HIS146     -0.2212
     94  N         10.1220   37.1280  -17.4520 N.3   157  TYR157     -0.1241
     95  CA         9.6340   37.8180  -16.2430 C.3   157  TYR157      0.1605
     96  C          8.7180   39.0050  -16.5450 C.2   157  TYR157      0.2264
     97  O          8.9530   40.1240  -16.1240 O.2   157  TYR157     -0.2867
     98  CB        10.8030   38.2120  -15.3530 C.3   157  TYR157      0.0534
     99  CG        10.4440   38.4020  -13.8960 C.ar  157  TYR157     -0.0201
    100  CD1       10.0070   37.3310  -13.1290 C.ar  157  TYR157     -0.0009
    101  CD2       10.5940   39.6320  -13.2700 C.ar  157  TYR157     -0.0009
    102  CE1        9.7280   37.4660  -11.7860 C.ar  157  TYR157      0.0417
    103  CE2       10.3180   39.7790  -11.9170 C.ar  157  TYR157      0.0417
    104  CZ         9.8860   38.6880  -11.1750 C.ar  157  TYR157      0.1957
    105  OH         9.6460   38.8810   -9.8360 O.3   157  TYR157     -0.2866
    106  N          6.5880   33.7660  -10.8770 N.3   166  GLU166     -0.1245
    107  CA         6.3690   34.1420   -9.4850 C.3   166  GLU166      0.1567
    108  C          5.6430   33.0660   -8.7010 C.2   166  GLU166      0.2260
    109  O          6.0380   32.7460   -7.5720 O.2   166  GLU166     -0.2867
    110  CB         5.5880   35.4520   -9.4200 C.3   166  GLU166      0.0388
    111  CG         6.4800   36.6800   -9.4030 C.3   166  GLU166      0.1160
    112  CD         7.4520   36.6170   -8.2440 C.2   166  GLU166      0.3649
    113  OE1        7.0030   36.4440   -7.0830 O.co2 166  GLU166     -0.2457
    114  OE2        8.6960   36.6640   -8.4890 O.co2 166  GLU166     -0.2457
    115  N          3.0290   33.9530    2.4030 N.3   188  ILE188     -0.1245
    116  CA         4.3890   34.2310    1.9270 C.3   188  ILE188      0.1561
    117  C          4.9940   35.3650    2.7400 C.2   188  ILE188      0.2260
    118  O          4.4670   36.4830    2.7520 O.2   188  ILE188     -0.2867
    119  CB         4.4260   34.5950    0.4330 C.3   188  ILE188      0.0252
    120  CG1        3.7370   33.5450   -0.4330 C.3   188  ILE188      0.0019
    121  CG2        5.8450   34.8480   -0.0150 C.3   188  ILE188      0.0019
    122  CD1        4.3400   32.1780   -0.3600 C.3   188  ILE188      0.0001
    123  N          3.1680   39.1210    2.9520 N.3   202  LEU202     -0.1231
    124  CA         3.2270   39.7190    1.6160 C.3   202  LEU202      0.1693
    125  C          2.0580   39.2690    0.7640 C.2   202  LEU202      0.2591
    126  O          1.4160   40.0860    0.0900 O.2   202  LEU202     -0.2718
    127  CB         4.5260   39.3380    0.8920 C.3   202  LEU202      0.0284
    128  CG         5.8360   39.7440    1.5510 C.3   202  LEU202      0.0019
    129  CD1        7.0070   39.3880    0.6450 C.3   202  LEU202      0.0001
    130  CD2        5.7610   41.2190    1.8710 C.3   202  LEU202      0.0001
    131  N          1.8330   37.9580    0.7130 N.am  203  ARG203     -0.1980
    132  CA         0.8230   37.3730   -0.1380 C.3   203  ARG203      0.1597
    133  C          0.2360   36.1990    0.6200 C.2   203  ARG203      0.2287
    134  O          0.8620   35.6440    1.5220 O.2   203  ARG203     -0.2864
    135  CB         1.3880   36.8370   -1.4610 C.3   203  ARG203      0.0334
    136  CG         1.8720   37.9030   -2.4270 C.3   203  ARG203      0.0492
    137  CD         2.5010   37.2910   -3.6440 C.3   203  ARG203      0.2205
    138  NE         3.8080   36.6890   -3.4250 N.pl3 203  ARG203     -0.0865
    139  CZ         4.9500   37.3490   -3.4080 C.cat 203  ARG203      0.5346
    140  NH1        6.0940   36.6920   -3.3410 N.pl3 203  ARG203      0.1354
    141  NH2        4.9660   38.6700   -3.4440 N.pl3 203  ARG203      0.1354
    142  N          3.7600   39.8770   -9.5450 N.3   231  HIS231     -0.1241
    143  CA         3.4940   39.5650   -8.1430 C.3   231  HIS231      0.1621
    144  C          2.0250   39.7180   -7.7650 C.2   231  HIS231      0.2264
    145  O          1.6630   39.4990   -6.5920 O.2   231  HIS231     -0.2867
    146  CB         4.3260   40.4510   -7.2000 C.3   231  HIS231      0.0745
    147  CG         5.8040   40.3010   -7.3550 C.ar  231  HIS231      0.0817
    148  ND1        6.5480   41.0800   -8.2110 N.ar  231  HIS231     -0.2268
    149  CD2        6.6800   39.4650   -6.7430 C.ar  231  HIS231      0.1154
    150  CE1        7.8210   40.7160   -8.1440 C.ar  231  HIS231      0.1986
    151  NE2        7.9260   39.7450   -7.2540 N.ar  231  HIS231     -0.2212
@<TRIPOS>BOND
     1    94    95    1
     2    96    95    1
     3    96    97    2
     4    95    98    1
     5    98    99    1
     6    99   101   ar
     7    99   100   ar
     8   101   103   ar
     9   100   102   ar
    10   103   104   ar
    11   102   104   ar
    12    87    86    2
    13   104   105    1
    14    33    31   ar
    15    33    34   ar
    16   106   107    1
    17    31    30   ar
    18    86    85    1
    19    34    36   ar
    20    34    32   ar
    21    36    38   ar
    22    90    92   ar
    23    90    89   ar
    24    28    27    2
    25   142   143    1
    26   107   110    1
    27   107   108    1
    28   110   111    1
    29    85    88    1
    30    85    84    1
    31   111   112    1
    32    92    93   ar
    33    30    32   ar
    34    30    29    1
    35    88    89    1
    36    27    26    1
    37    32    35   ar
    38    89    91   ar
    39    38    37   ar
    40   108   109    2
    41   114   112   ar
    42    29    26    1
    43   112   113   ar
    44   148   150   ar
    45   148   147   ar
    46   150   151   ar
    47   143   144    1
    48   143   146    1
    49    93    91   ar
    50   144   145    2
    51    26    25    1
    52    35    37   ar
    53   147   146    1
    54   147   149   ar
    55   151   149   ar
    56    21    23   ar
    57    21    19   ar
    58    23    24   ar
    59    25    16   am
    60    18    19    1
    61    18    15    1
    62    78    77    2
    63    19    20   ar
    64    24    22   ar
    65    16    15    1
    66    16    17    2
    67    68    67    2
    68    15    14    1
    69    74    73   ar
    70    74    72   ar
    71    20    22   ar
    72    77    76    1
    73    73    71   ar
    74    82    81   ar
    75    72    70   ar
    76    76    75    1
    77    76    79    1
    78     8     6   am
    79    67    75   am
    80    67    66    1
    81    71    70   ar
    82    14    11   am
    83    12    11    2
    84    70    69    1
    85   137   138    1
    86   137   136    1
    87    79    80    1
    88    81    83   ar
    89    81    80    1
    90   141   139    1
    91    11    10    1
    92   138   139    2
    93   139   140    1
    94    66    69    1
    95    66    65    1
    96     6     7    2
    97     6     5    1
    98   136   135    1
    99     5     2    1
   100    10     9    1
   101    10    13    1
   102     9     3   am
   103   135   132    1
   104     2     3    1
   105     2     1    1
   106     3     4    2
   107    61    60    2
   108   120   122    1
   109   120   119    1
   110   132   133    1
   111   132   131    1
   112   121   119    1
   113   126   125    2
   114    60    59    1
   115   119   116    1
   116   133   134    2
   117   129   128    1
   118   131   125   am
   119   125   124    1
   120   127   128    1
   121   127   124    1
   122    59    58    1
   123    59    62    1
   124    63    62    1
   125   128   130    1
   126   124   123    1
   127    57    55    1
   128    62    64    1
   129   116   115    1
   130   116   117    1
   131    48    49   ar
   132    48    46   ar
   133    49    47   ar
   134   117   118    2
   135    55    54    1
   136    55    56    1
   137    54    51    1
   138    46    44   ar
   139    47    45   ar
   140    53    52    2
   141    44    45   ar
   142    44    43    1
   143    52    51    1
   144    51    50    1
   145    43    40    1
   146    39    40    1
   147    40    41    1
   148    41    42    2
