@<TRIPOS>MOLECULE
tmp/5lvlA00.pdb
 117 108 0 0 0
SMALL
GASTEIGER

@<TRIPOS>ATOM
      1  N        -14.7280   -4.7120  -14.8400 N.3    15  LEU15      -0.1231
      2  CA       -15.1030   -5.4220  -13.6260 C.3    15  LEU15       0.1693
      3  C        -16.4950   -5.0840  -13.1310 C.2    15  LEU15       0.2592
      4  O        -17.2000   -5.9480  -12.5780 O.2    15  LEU15      -0.2718
      5  CB       -14.1110   -5.0530  -12.5220 C.3    15  LEU15       0.0284
      6  CG       -12.6910   -5.5230  -12.8330 C.3    15  LEU15       0.0019
      7  CD1      -11.7140   -4.8900  -11.7950 C.3    15  LEU15       0.0001
      8  CD2      -12.5920   -7.0630  -12.8320 C.3    15  LEU15       0.0001
      9  N        -16.8950   -3.8190  -13.2660 N.am   16  GLY16      -0.1957
     10  CA       -18.1770   -3.3450  -12.7610 C.3    16  GLY16       0.1869
     11  C        -18.6130   -2.1120  -13.5300 C.2    16  GLY16       0.2309
     12  O        -17.7860   -1.3400  -14.0190 O.2    16  GLY16      -0.2863
     13  N        -15.5350    0.4990  -13.7090 N.3    23  VAL23      -0.1245
     14  CA       -14.3230   -0.0010  -13.0810 C.3    23  VAL23       0.1561
     15  C        -13.7010   -1.0550  -13.9770 C.2    23  VAL23       0.2260
     16  O        -14.3640   -2.0230  -14.3720 O.2    23  VAL23      -0.2867
     17  CB       -14.5910   -0.6060  -11.6720 C.3    23  VAL23       0.0252
     18  CG1      -13.3040   -1.0990  -11.0000 C.3    23  VAL23       0.0019
     19  CG2      -15.2750    0.4180  -10.7910 C.3    23  VAL23       0.0019
     20  N         -7.8470   -2.0160   -9.8490 N.3    36  ALA36      -0.1245
     21  CA        -9.1710   -1.7350  -10.3770 C.3    36  ALA36       0.1562
     22  C         -9.2580   -0.2230  -10.5670 C.2    36  ALA36       0.2260
     23  O         -9.2030    0.5150   -9.5730 O.2    36  ALA36      -0.2867
     24  CB       -10.2170   -2.2080   -9.3980 C.3    36  ALA36       0.0290
     25  N        -11.2420    2.9870  -11.4630 N.3    38  LYS38      -0.1245
     26  CA       -12.5800    3.5530  -11.6530 C.3    38  LYS38       0.1561
     27  C        -12.4670    4.7640  -12.5610 C.2    38  LYS38       0.2260
     28  O        -11.7110    5.6670  -12.2760 O.2    38  LYS38      -0.2867
     29  CB       -13.2360    3.9120  -10.3230 C.3    38  LYS38       0.0271
     30  CG       -14.6470    4.4350  -10.4980 C.3    38  LYS38       0.0035
     31  CD       -15.2880    4.8120   -9.1720 C.3    38  LYS38       0.0206
     32  CE       -15.6300    3.6030   -8.3730 C.3    38  LYS38       0.1093
     33  NZ       -16.7090    3.9660   -7.4120 N.3    38  LYS38      -0.1314
     34  N        -11.4100   -0.9600    0.5330 N.3    70  VAL70      -0.1245
     35  CA       -10.7250   -0.7070   -0.7300 C.3    70  VAL70       0.1561
     36  C         -9.8670    0.5110   -0.5380 C.2    70  VAL70       0.2260
     37  O        -10.3320    1.4670    0.0380 O.2    70  VAL70      -0.2867
     38  CB       -11.7810   -0.4970   -1.8490 C.3    70  VAL70       0.0252
     39  CG1      -11.1710    0.1410   -3.1320 C.3    70  VAL70       0.0019
     40  CG2      -12.4280   -1.8500   -2.2070 C.3    70  VAL70       0.0019
     41  N         -7.6910    1.9090   -7.6040 N.3    86  LEU86      -0.1231
     42  CA        -8.2370    1.2480   -6.4050 C.3    86  LEU86       0.1693
     43  C         -7.6840   -0.1590   -6.2620 C.2    86  LEU86       0.2593
     44  O         -7.2350   -0.7960   -7.2150 O.2    86  LEU86      -0.2718
     45  CB        -9.7810    1.1680   -6.4920 C.3    86  LEU86       0.0284
     46  CG       -10.4830    2.4790   -6.7140 C.3    86  LEU86       0.0019
     47  CD1      -11.9950    2.1600   -6.8810 C.3    86  LEU86       0.0001
     48  CD2      -10.2630    3.4520   -5.6210 C.3    86  LEU86       0.0001
     49  N         -7.6800   -0.6740   -5.0160 N.am   87  SER87      -0.1938
     50  CA        -7.4390   -2.0980   -4.7990 C.3    87  SER87       0.2055
     51  C         -8.2770   -2.9700   -5.6900 C.2    87  SER87       0.2643
     52  O         -9.4680   -2.7020   -5.8090 O.2    87  SER87      -0.2714
     53  CB        -7.8610   -2.5300   -3.3710 C.3    87  SER87       0.2130
     54  OG        -7.4980   -1.6170   -2.3890 O.3    87  SER87      -0.2179
     55  N         -7.7020   -4.0340   -6.2190 N.am   88  TYR88      -0.1959
     56  CA        -8.4410   -5.0340   -6.9970 C.3    88  TYR88       0.1771
     57  C         -8.8360   -6.1700   -6.0650 C.2    88  TYR88       0.2619
     58  O         -7.9580   -6.7550   -5.4440 O.2    88  TYR88      -0.2715
     59  CB        -7.5230   -5.5610   -8.0940 C.3    88  TYR88       0.0574
     60  CG        -8.0520   -6.7070   -8.9140 C.ar   88  TYR88      -0.0198
     61  CD1       -9.3790   -6.7330   -9.3120 C.ar   88  TYR88      -0.0009
     62  CD2       -7.2320   -7.7350   -9.3050 C.ar   88  TYR88      -0.0009
     63  CE1       -9.8570   -7.7740  -10.0910 C.ar   88  TYR88       0.0417
     64  CE2       -7.7000   -8.7640  -10.1030 C.ar   88  TYR88       0.0417
     65  CZ        -9.0330   -8.7620  -10.4730 C.ar   88  TYR88       0.1957
     66  OH        -9.4810   -9.8170  -11.2670 O.3    88  TYR88      -0.2866
     67  N        -10.1410   -6.4270   -5.9510 N.am   89  ALA89      -0.1963
     68  CA       -10.7080   -7.4870   -5.1100 C.3    89  ALA89       0.1728
     69  C        -11.1940   -8.5750   -6.0180 C.2    89  ALA89       0.2616
     70  O        -12.3190   -8.5550   -6.4890 O.2    89  ALA89      -0.2715
     71  CB       -11.7900   -6.9430   -4.2840 C.3    89  ALA89       0.0334
     72  N        -10.3150   -9.5220   -6.2810 N.am   90  LYS90      -0.1977
     73  CA       -10.4630  -10.4310   -7.4190 C.3    90  LYS90       0.1596
     74  C        -11.7470  -11.2520   -7.3510 C.2    90  LYS90       0.2287
     75  O        -12.3040  -11.6010   -8.3930 O.2    90  LYS90      -0.2864
     76  CB        -9.2220  -11.3210   -7.5160 C.3    90  LYS90       0.0298
     77  CG        -9.3090  -12.4420   -8.5260 C.3    90  LYS90       0.0038
     78  CD        -7.9870  -13.2110   -8.5460 C.3    90  LYS90       0.0206
     79  CE        -7.9470  -14.2050   -9.6870 C.3    90  LYS90       0.1093
     80  NZ        -7.8740  -13.5000  -10.9960 N.3    90  LYS90      -0.1314
     81  N        -14.7330  -10.3960   -6.2890 N.3    92  GLY92      -0.1210
     82  CA       -15.9600   -9.6660   -6.5360 C.3    92  GLY92       0.1956
     83  C        -16.8960   -9.5560   -5.3540 C.2    92  GLY92       0.2611
     84  O        -16.4780   -9.5580   -4.2060 O.2    92  GLY92      -0.2717
     85  N        -18.1680   -9.3660   -5.6300 N.am   93  GLU93      -0.1979
     86  CA       -19.1500   -9.0170   -4.6040 C.3    93  GLU93       0.1602
     87  C        -19.5360  -10.1700   -3.7060 C.2    93  GLU93       0.2287
     88  O        -19.7490  -11.3080   -4.1740 O.2    93  GLU93      -0.2864
     89  CB       -20.4090   -8.5190   -5.2650 C.3    93  GLU93       0.0415
     90  CG       -20.2350   -7.2980   -6.1530 C.3    93  GLU93       0.1163
     91  CD       -21.5020   -6.9140   -6.8750 C.2    93  GLU93       0.3649
     92  OE1      -22.5310   -7.6060   -6.7240 O.co2  93  GLU93      -0.2457
     93  OE2      -21.4610   -5.9030   -7.6020 O.co2  93  GLU93      -0.2457
     94  N        -22.6460  -12.2060   -4.7710 N.3    96  LYS96      -0.1245
     95  CA       -22.5220  -13.3430   -5.7070 C.3    96  LYS96       0.1561
     96  C        -22.5240  -14.6660   -4.9500 C.2    96  LYS96       0.2260
     97  O        -23.1410  -15.6620   -5.3880 O.2    96  LYS96      -0.2867
     98  CB       -21.2010  -13.1940   -6.4730 C.3    96  LYS96       0.0271
     99  CG       -20.6550  -14.4270   -7.1520 C.3    96  LYS96       0.0035
    100  CD       -19.6660  -14.0540   -8.2830 C.3    96  LYS96       0.0206
    101  CE       -18.5770  -13.0690   -7.8360 C.3    96  LYS96       0.1093
    102  NZ       -17.7580  -12.5120   -8.9740 N.3    96  LYS96      -0.1314
    103  N        -16.7490   -6.3240   -1.1480 N.3   139  LEU139     -0.1245
    104  CA       -16.0110   -7.1340   -2.1000 C.3   139  LEU139      0.1561
    105  C        -15.1350   -8.1410   -1.3580 C.2   139  LEU139      0.2260
    106  O        -14.9570   -8.0250   -0.1650 O.2   139  LEU139     -0.2867
    107  CB       -15.1740   -6.2880   -3.0390 C.3   139  LEU139      0.0270
    108  CG       -15.8890   -5.1280   -3.7180 C.3   139  LEU139      0.0019
    109  CD1      -14.9030   -4.3610   -4.6030 C.3   139  LEU139      0.0001
    110  CD2      -17.1110   -5.5880   -4.4760 C.3   139  LEU139      0.0001
    111  N        -16.3850   -1.0680   -0.3350 N.3   149  THR149     -0.1218
    112  CA       -16.2400   -0.0160   -1.3350 C.3   149  THR149      0.1862
    113  C        -17.4720    0.8980   -1.3540 C.2   149  THR149      0.2287
    114  O        -18.3950    0.7360   -0.5290 O.2   149  THR149     -0.2866
    115  CB       -16.0140   -0.6600   -2.7240 C.3   149  THR149      0.1770
    116  OG1      -15.5520    0.3340   -3.6550 O.3   149  THR149     -0.2211
    117  CG2      -17.2940   -1.3820   -3.2120 C.3   149  THR149      0.0375
@<TRIPOS>BOND
     1     1     2    1
     2    16    15    2
     3    12    11    2
     4    15    14    1
     5    13    14    1
     6     2     3    1
     7     2     5    1
     8    11    10    1
     9     9     3   am
    10     9    10    1
    11     3     4    2
    12    14    17    1
    13     6     8    1
    14     6     5    1
    15     6     7    1
    16    27    28    2
    17    27    26    1
    18    17    18    1
    19    17    19    1
    20    26    25    1
    21    26    29    1
    22    66    65    1
    23    80    79    1
    24    22    21    1
    25    22    23    2
    26    30    29    1
    27    30    31    1
    28    65    64   ar
    29    65    63   ar
    30    21    20    1
    31    21    24    1
    32    64    62   ar
    33    63    61   ar
    34    79    78    1
    35    61    60   ar
    36    62    60   ar
    37    31    32    1
    38   102   101    1
    39    60    59    1
    40    78    77    1
    41    77    76    1
    42    75    74    2
    43    32    33    1
    44   100   101    1
    45   100    99    1
    46    59    56    1
    47    41    42    1
    48    93    91   ar
    49    76    73    1
    50    73    74    1
    51    73    72    1
    52    44    43    2
    53    99    98    1
    54    56    55    1
    55    56    57    1
    56    47    46    1
    57    91    92   ar
    58    91    90    1
    59    46    45    1
    60    46    48    1
    61    82    81    1
    62    82    83    1
    63    45    42    1
    64    70    69    2
    65    98    95    1
    66    42    43    1
    67    72    69   am
    68    43    49   am
    69    55    51   am
    70    90    89    1
    71    57    67   am
    72    57    58    2
    73    69    68    1
    74    67    68    1
    75    52    51    2
    76    95    96    1
    77    95    94    1
    78    51    50    1
    79    85    83   am
    80    85    86    1
    81    97    96    2
    82    83    84    2
    83    89    86    1
    84    68    71    1
    85    49    50    1
    86    50    53    1
    87    86    87    1
    88   109   108    1
    89   110   108    1
    90    88    87    2
    91   108   107    1
    92   116   115    1
    93    53    54    1
    94   117   115    1
    95    39    38    1
    96   107   104    1
    97   115   112    1
    98    40    38    1
    99   104   105    1
   100   104   103    1
   101    38    35    1
   102   105   106    2
   103   113   112    1
   104   113   114    2
   105   112   111    1
   106    35    36    1
   107    35    34    1
   108    36    37    2
