@<TRIPOS>MOLECULE
tmp/5lvmA00.pdb
 90 82 0 0 0
SMALL
GASTEIGER

@<TRIPOS>ATOM
      1  N        -14.2370   18.1730  -15.6100 N.3    13  LEU13      -0.1231
      2  CA       -14.6960   17.5720  -14.3670 C.3    13  LEU13       0.1693
      3  C        -16.0990   18.0120  -13.9940 C.2    13  LEU13       0.2592
      4  O        -16.8230   17.2230  -13.3930 O.2    13  LEU13      -0.2718
      5  CB       -13.7620   17.9270  -13.1990 C.3    13  LEU13       0.0284
      6  CG       -12.3400   17.3950  -13.3950 C.3    13  LEU13       0.0019
      7  CD1      -11.4090   17.9920  -12.3300 C.3    13  LEU13       0.0001
      8  CD2      -12.2870   15.8800  -13.3120 C.3    13  LEU13       0.0001
      9  N        -16.5090   19.2130  -14.3840 N.am   14  GLY14      -0.1957
     10  CA       -17.8250   19.7120  -14.0530 C.3    14  GLY14       0.1869
     11  C        -18.1660   20.9200  -14.8890 C.2    14  GLY14       0.2309
     12  O        -17.2970   21.6740  -15.3150 O.2    14  GLY14      -0.2863
     13  N        -15.1190   23.2940  -14.5890 N.3    21  VAL21      -0.1245
     14  CA       -13.9470   22.7990  -13.8690 C.3    21  VAL21       0.1561
     15  C        -13.2500   21.7670  -14.7340 C.2    21  VAL21       0.2260
     16  O        -13.8770   20.8250  -15.2190 O.2    21  VAL21      -0.2867
     17  CB       -14.3380   22.1930  -12.5210 C.3    21  VAL21       0.0252
     18  CG1      -13.1370   21.7610  -11.7440 C.3    21  VAL21       0.0019
     19  CG2      -15.1350   23.1810  -11.7170 C.3    21  VAL21       0.0019
     20  N         -7.5700   20.7600  -10.1080 N.3    34  ALA34      -0.1245
     21  CA        -8.8680   21.0210  -10.7280 C.3    34  ALA34       0.1562
     22  C         -8.9550   22.5260  -10.9070 C.2    34  ALA34       0.2260
     23  O         -8.9420   23.2660   -9.9110 O.2    34  ALA34      -0.2867
     24  CB        -9.9620   20.5120   -9.7990 C.3    34  ALA34       0.0290
     25  N        -10.9990   25.7580  -11.9040 N.3    36  LYS36      -0.1245
     26  CA       -12.3220   26.3180  -12.1620 C.3    36  LYS36       0.1561
     27  C        -12.1660   27.5810  -12.9840 C.2    36  LYS36       0.2260
     28  O        -11.3790   28.4630  -12.6340 O.2    36  LYS36      -0.2867
     29  CB       -13.0130   26.6740  -10.8530 C.3    36  LYS36       0.0271
     30  CG       -14.3220   27.4120  -11.0860 C.3    36  LYS36       0.0035
     31  CD       -15.0560   27.7160   -9.7980 C.3    36  LYS36       0.0206
     32  CE       -15.5950   26.4530   -9.1780 C.3    36  LYS36       0.1093
     33  NZ       -16.5880   26.7500   -8.1410 N.3    36  LYS36      -0.1314
     34  N        -11.4330   21.5140    0.1470 N.3    68  VAL68      -0.1245
     35  CA       -10.7520   21.8090   -1.1210 C.3    68  VAL68       0.1561
     36  C         -9.8990   23.0480   -0.8660 C.2    68  VAL68       0.2260
     37  O        -10.3730   24.0210   -0.3080 O.2    68  VAL68      -0.2867
     38  CB       -11.7600   22.0220   -2.2940 C.3    68  VAL68       0.0252
     39  CG1      -11.0880   22.5750   -3.5210 C.3    68  VAL68       0.0019
     40  CG2      -12.4940   20.6990   -2.6360 C.3    68  VAL68       0.0019
     41  N         -7.5260   24.6770   -7.8540 N.3    84  LEU84      -0.1231
     42  CA        -8.0610   24.0060   -6.6950 C.3    84  LEU84       0.1693
     43  C         -7.4460   22.6210   -6.5420 C.2    84  LEU84       0.2593
     44  O         -7.0120   21.9830   -7.5220 O.2    84  LEU84      -0.2718
     45  CB        -9.5780   23.8410   -6.8410 C.3    84  LEU84       0.0284
     46  CG       -10.3600   25.1410   -7.0920 C.3    84  LEU84       0.0019
     47  CD1      -11.7890   24.7970   -7.4110 C.3    84  LEU84       0.0001
     48  CD2      -10.2930   26.0300   -5.9300 C.3    84  LEU84       0.0001
     49  N         -7.4710   22.0750   -5.3140 N.am   85  SER85      -0.1938
     50  CA        -7.1160   20.6760   -5.1900 C.3    85  SER85       0.2055
     51  C         -8.1000   19.7820   -5.9610 C.2    85  SER85       0.2643
     52  O         -9.3070   20.0210   -6.0360 O.2    85  SER85      -0.2714
     53  CB        -6.8620   20.2410   -3.7750 C.3    85  SER85       0.2130
     54  OG        -7.7340   20.7400   -2.9790 O.3    85  SER85      -0.2179
     55  N         -7.5590   18.7540   -6.5650 N.am   86  TYR86      -0.1959
     56  CA        -8.3260   17.7680   -7.3070 C.3    86  TYR86       0.1771
     57  C         -8.8210   16.6690   -6.3810 C.2    86  TYR86       0.2619
     58  O         -8.0200   16.0380   -5.7040 O.2    86  TYR86      -0.2715
     59  CB        -7.4730   17.1710   -8.4270 C.3    86  TYR86       0.0574
     60  CG        -8.0540   16.0480   -9.1740 C.ar   86  TYR86      -0.0198
     61  CD1       -9.3580   16.0790   -9.6210 C.ar   86  TYR86      -0.0009
     62  CD2       -7.2790   14.9680   -9.5320 C.ar   86  TYR86      -0.0009
     63  CE1       -9.9220   15.0400  -10.3780 C.ar   86  TYR86       0.0417
     64  CE2       -7.8180   13.9750  -10.2810 C.ar   86  TYR86       0.0417
     65  CZ        -9.1310   14.0060  -10.7220 C.ar   86  TYR86       0.1957
     66  OH        -9.6150   12.9690  -11.5220 O.3    86  TYR86      -0.2866
     67  N        -10.1240   16.4550   -6.3240 N.am   87  ALA87      -0.1977
     68  CA       -10.7400   15.3800   -5.5500 C.3    87  ALA87       0.1597
     69  C        -11.1280   14.2730   -6.5370 C.2    87  ALA87       0.2287
     70  O        -12.2060   14.2770   -7.1240 O.2    87  ALA87      -0.2864
     71  CB       -11.9640   15.9090   -4.8400 C.3    87  ALA87       0.0319
     72  N        -14.6930   12.2720   -6.5600 N.3    90  GLY90      -0.1225
     73  CA       -15.9500   12.9270   -6.8440 C.3    90  GLY90       0.1811
     74  C        -16.8210   13.0930   -5.6260 C.2    90  GLY90       0.2280
     75  O        -16.3500   13.2340   -4.5220 O.2    90  GLY90      -0.2866
     76  N        -16.7420   16.4490   -1.4910 N.3   137  LEU137     -0.1245
     77  CA       -16.0080   15.6190   -2.4510 C.3   137  LEU137      0.1561
     78  C        -15.1060   14.6620   -1.6890 C.2   137  LEU137      0.2260
     79  O        -14.9410   14.7490   -0.4780 O.2   137  LEU137     -0.2867
     80  CB       -15.2220   16.5120   -3.4240 C.3   137  LEU137      0.0270
     81  CG       -15.9800   17.6320   -4.1360 C.3   137  LEU137      0.0019
     82  CD1      -15.0770   18.3420   -5.1340 C.3   137  LEU137      0.0001
     83  CD2      -17.3210   17.1500   -4.7690 C.3   137  LEU137      0.0001
     84  N        -16.3880   21.6160   -0.5600 N.3   147  THR147     -0.1218
     85  CA       -16.2950   22.6430   -1.5760 C.3   147  THR147      0.1862
     86  C        -17.5350   23.5230   -1.5980 C.2   147  THR147      0.2287
     87  O        -18.4300   23.3800   -0.7880 O.2   147  THR147     -0.2866
     88  CB       -16.0740   21.9250   -2.9120 C.3   147  THR147      0.1770
     89  OG1      -15.6410   22.8920   -3.8530 O.3   147  THR147     -0.2211
     90  CG2      -17.3040   21.1860   -3.3870 C.3   147  THR147      0.0375
@<TRIPOS>BOND
     1     1     2    1
     2    12    11    2
     3    16    15    2
     4    11    10    1
     5    15    14    1
     6    13    14    1
     7     9    10    1
     8     9     3   am
     9     2     3    1
    10     2     5    1
    11     3     4    2
    12    14    17    1
    13     6     8    1
    14     6     5    1
    15     6     7    1
    16    27    28    2
    17    27    26    1
    18    17    18    1
    19    17    19    1
    20    26    25    1
    21    26    29    1
    22    66    65    1
    23    30    29    1
    24    30    31    1
    25    22    21    1
    26    22    23    2
    27    21    20    1
    28    21    24    1
    29    65    63   ar
    30    65    64   ar
    31    63    61   ar
    32    64    62   ar
    33    31    32    1
    34    61    60   ar
    35    62    60   ar
    36    32    33    1
    37    60    59    1
    38    59    56    1
    39    41    42    1
    40    44    43    2
    41    47    46    1
    42    56    55    1
    43    56    57    1
    44    70    69    2
    45    46    45    1
    46    46    48    1
    47    73    72    1
    48    73    74    1
    49    45    42    1
    50    42    43    1
    51    55    51   am
    52    43    49   am
    53    69    68    1
    54    57    67   am
    55    57    58    2
    56    67    68    1
    57    52    51    2
    58    51    50    1
    59    74    75    2
    60    68    71    1
    61    49    50    1
    62    50    53    1
    63    82    81    1
    64    83    81    1
    65    81    80    1
    66    89    88    1
    67    53    54    1
    68    39    38    1
    69    80    77    1
    70    90    88    1
    71    88    85    1
    72    40    38    1
    73    77    78    1
    74    77    76    1
    75    38    35    1
    76    78    79    2
    77    86    85    1
    78    86    87    2
    79    85    84    1
    80    35    36    1
    81    35    34    1
    82    36    37    2
