@<TRIPOS>MOLECULE
tmp/5lvnA01.pdb
 143 133 0 0 0
SMALL
GASTEIGER

@<TRIPOS>ATOM
      1  N        -14.2630   16.4010  -15.4760 N.3    14  LEU14      -0.1231
      2  CA       -14.6880   15.7520  -14.2390 C.3    14  LEU14       0.1693
      3  C        -16.1160   16.1040  -13.8680 C.2    14  LEU14       0.2593
      4  O        -16.7850   15.3220  -13.1850 O.2    14  LEU14      -0.2718
      5  CB       -13.7810   16.1670  -13.0780 C.3    14  LEU14       0.0284
      6  CG       -12.3240   15.7090  -13.2290 C.3    14  LEU14       0.0019
      7  CD1      -11.4380   16.3350  -12.1460 C.3    14  LEU14       0.0001
      8  CD2      -12.1960   14.1650  -13.2090 C.3    14  LEU14       0.0001
      9  N        -16.5930   17.2660  -14.2800 N.am   15  GLY15      -0.1942
     10  CA       -17.9560   17.6370  -13.9580 C.3    15  GLY15       0.2014
     11  C        -18.2740   19.0030  -14.5090 C.2    15  GLY15       0.2639
     12  O        -17.3930   19.7630  -14.9220 O.2    15  GLY15      -0.2714
     13  N        -19.5650   19.2960  -14.5240 N.am   16  GLU16      -0.1963
     14  CA       -20.0450   20.5590  -15.0520 C.3    16  GLU16       0.1733
     15  C        -21.0840   21.0870  -14.0830 C.2    16  GLU16       0.2616
     16  O        -21.9470   20.3340  -13.6210 O.2    16  GLU16      -0.2715
     17  CB       -20.6430   20.3760  -16.4560 C.3    16  GLU16       0.0429
     18  CG       -19.5640   20.2070  -17.5310 C.3    16  GLU16       0.1163
     19  CD       -20.0940   19.6470  -18.8480 C.2    16  GLU16       0.3649
     20  OE1      -20.7510   20.4030  -19.5960 O.co2  16  GLU16      -0.2457
     21  OE2      -19.8380   18.4530  -19.1440 O.co2  16  GLU16      -0.2457
     22  N        -20.9450   22.3610  -13.7280 N.am   17  GLY17      -0.1955
     23  CA       -21.9450   23.0770  -12.9770 C.3    17  GLY17       0.1869
     24  C        -22.6730   24.0230  -13.9120 C.2    17  GLY17       0.2309
     25  O        -22.3780   24.1190  -15.1020 O.2    17  GLY17      -0.2863
     26  N        -19.7630   26.5110  -14.4060 N.3    20  SER20      -0.1217
     27  CA       -18.3620   26.1110  -14.3540 C.3    20  SER20       0.1889
     28  C        -18.1720   24.7680  -15.0440 C.2    20  SER20       0.2288
     29  O        -19.1200   24.0180  -15.2940 O.2    20  SER20      -0.2866
     30  CB       -17.8640   26.0150  -12.9070 C.3    20  SER20       0.2089
     31  OG       -18.6220   25.0480  -12.2070 O.3    20  SER20      -0.2183
     32  N        -15.2170   21.5610  -14.5060 N.3    22  VAL22      -0.1245
     33  CA       -14.0750   21.0670  -13.7330 C.3    22  VAL22       0.1561
     34  C        -13.3650   20.0540  -14.6050 C.2    22  VAL22       0.2260
     35  O        -13.9790   19.0770  -15.0560 O.2    22  VAL22      -0.2867
     36  CB       -14.4960   20.4360  -12.3990 C.3    22  VAL22       0.0252
     37  CG1      -13.2760   20.0190  -11.5810 C.3    22  VAL22       0.0019
     38  CG2      -15.3100   21.3830  -11.6030 C.3    22  VAL22       0.0019
     39  N         -7.5820   19.1790  -10.0620 N.3    35  ALA35      -0.1245
     40  CA        -8.8830   19.4330  -10.6560 C.3    35  ALA35       0.1562
     41  C         -8.9830   20.9400  -10.8150 C.2    35  ALA35       0.2260
     42  O         -8.9050   21.6690   -9.8270 O.2    35  ALA35      -0.2867
     43  CB        -9.9850   18.8900   -9.7390 C.3    35  ALA35       0.0290
     44  N        -11.1660   24.1080  -11.8050 N.3    37  LYS37      -0.1245
     45  CA       -12.5060   24.6310  -12.0250 C.3    37  LYS37       0.1561
     46  C        -12.3850   25.8910  -12.8660 C.2    37  LYS37       0.2260
     47  O        -11.6690   26.8290  -12.5020 O.2    37  LYS37      -0.2867
     48  CB       -13.1790   24.9190  -10.6830 C.3    37  LYS37       0.0271
     49  CG       -14.5790   25.4860  -10.7790 C.3    37  LYS37       0.0035
     50  CD       -15.2380   25.5450   -9.3680 C.3    37  LYS37       0.0206
     51  CE       -16.6350   26.0360   -9.3630 C.3    37  LYS37       0.1093
     52  NZ       -17.1260   25.8880   -7.9670 N.3    37  LYS37      -0.1314
     53  N        -11.2250   19.8290    0.1580 N.3    69  VAL69      -0.1245
     54  CA       -10.5300   20.1410   -1.0760 C.3    69  VAL69       0.1561
     55  C         -9.7050   21.4000   -0.8300 C.2    69  VAL69       0.2260
     56  O        -10.1720   22.3620   -0.2100 O.2    69  VAL69      -0.2867
     57  CB       -11.5430   20.3120   -2.2280 C.3    69  VAL69       0.0252
     58  CG1      -10.8690   20.8970   -3.4720 C.3    69  VAL69       0.0019
     59  CG2      -12.2910   18.9590   -2.5520 C.3    69  VAL69       0.0019
     60  N         -7.5020   23.1220   -7.8330 N.3    85  LEU85      -0.1231
     61  CA        -7.9780   22.4140   -6.6590 C.3    85  LEU85       0.1693
     62  C         -7.3200   21.0470   -6.5380 C.2    85  LEU85       0.2593
     63  O         -6.9030   20.4330   -7.5260 O.2    85  LEU85      -0.2718
     64  CB        -9.4890   22.1990   -6.7660 C.3    85  LEU85       0.0284
     65  CG       -10.3270   23.4610   -7.0060 C.3    85  LEU85       0.0019
     66  CD1      -11.7100   23.0870   -7.4990 C.3    85  LEU85       0.0001
     67  CD2      -10.4540   24.2410   -5.7520 C.3    85  LEU85       0.0001
     68  N         -7.2910   20.5270   -5.3190 N.am   86  SER86      -0.1938
     69  CA        -6.8700   19.1370   -5.2010 C.3    86  SER86       0.2055
     70  C         -7.8820   18.2160   -5.8970 C.2    86  SER86       0.2643
     71  O         -9.0850   18.4570   -5.9080 O.2    86  SER86      -0.2714
     72  CB        -6.6160   18.7470   -3.7600 C.3    86  SER86       0.2130
     73  OG        -7.7000   19.0570   -2.9910 O.3    86  SER86      -0.2179
     74  N         -7.3660   17.1740   -6.5190 N.am   87  TYR87      -0.1959
     75  CA        -8.1740   16.2210   -7.2530 C.3    87  TYR87       0.1771
     76  C         -8.6460   15.1270   -6.3070 C.2    87  TYR87       0.2619
     77  O         -7.8310   14.4210   -5.7040 O.2    87  TYR87      -0.2715
     78  CB        -7.3440   15.6220   -8.3790 C.3    87  TYR87       0.0574
     79  CG        -7.9520   14.5150   -9.1610 C.ar   87  TYR87      -0.0198
     80  CD1       -9.2840   14.5300   -9.5300 C.ar   87  TYR87      -0.0009
     81  CD2       -7.1610   13.4450   -9.5780 C.ar   87  TYR87      -0.0009
     82  CE1       -9.8130   13.5020  -10.2830 C.ar   87  TYR87       0.0417
     83  CE2       -7.6780   12.4350  -10.3280 C.ar   87  TYR87       0.0417
     84  CZ        -9.0080   12.4650  -10.6830 C.ar   87  TYR87       0.1957
     85  OH        -9.5410   11.4500  -11.4440 O.3    87  TYR87      -0.2866
     86  N         -9.9590   15.0020   -6.1720 N.am   88  ALA88      -0.1977
     87  CA       -10.5700   13.9350   -5.3790 C.3    88  ALA88       0.1597
     88  C        -10.9200   12.8040   -6.3390 C.2    88  ALA88       0.2287
     89  O        -11.9920   12.7940   -6.9510 O.2    88  ALA88      -0.2864
     90  CB       -11.7830   14.4680   -4.6250 C.3    88  ALA88       0.0319
     91  N        -14.4230   10.7820   -6.4100 N.3    91  GLY91      -0.1210
     92  CA       -15.6930   11.4190   -6.7220 C.3    91  GLY91       0.1956
     93  C        -16.5710   11.6430   -5.5050 C.2    91  GLY91       0.2611
     94  O        -16.0890   11.7850   -4.3800 O.2    91  GLY91      -0.2717
     95  N        -17.8880   11.6920   -5.7560 N.am   92  GLU92      -0.1979
     96  CA       -18.8680   12.1020   -4.7580 C.3    92  GLU92       0.1602
     97  C        -19.2610   10.9630   -3.8260 C.2    92  GLU92       0.2287
     98  O        -19.5080    9.8260   -4.2510 O.2    92  GLU92      -0.2864
     99  CB       -20.1410   12.6030   -5.4400 C.3    92  GLU92       0.0415
    100  CG       -19.9370   13.8090   -6.2890 C.3    92  GLU92       0.1163
    101  CD       -21.1530   14.1820   -7.1290 C.2    92  GLU92       0.3649
    102  OE1      -22.2420   13.6060   -6.9230 O.co2  92  GLU92      -0.2457
    103  OE2      -21.0230   15.0700   -7.9990 O.co2  92  GLU92      -0.2457
    104  N        -23.3090   15.1750   -2.3600 N.3   135  GLU135     -0.1231
    105  CA       -22.7120   15.5900   -3.6300 C.3   135  GLU135      0.1699
    106  C        -21.4960   16.4850   -3.4180 C.2   135  GLU135      0.2592
    107  O        -20.6330   16.5710   -4.3040 O.2   135  GLU135     -0.2718
    108  CB       -23.7590   16.3650   -4.4340 C.3   135  GLU135      0.0402
    109  CG       -23.2680   17.0300   -5.6740 C.3   135  GLU135      0.1161
    110  CD       -24.3980   17.7110   -6.4130 C.2   135  GLU135      0.3649
    111  OE1      -25.4190   17.0430   -6.6690 O.co2 135  GLU135     -0.2457
    112  OE2      -24.2710   18.9200   -6.6990 O.co2 135  GLU135     -0.2457
    113  N        -21.4350   17.1720   -2.2670 N.am  136  ASN136     -0.1974
    114  CA       -20.3760   18.1070   -1.9210 C.3   136  ASN136      0.1688
    115  C        -19.3430   17.5080   -0.9660 C.2   136  ASN136      0.2292
    116  O        -18.4810   18.2340   -0.4640 O.2   136  ASN136     -0.2864
    117  CB       -20.9680   19.4010   -1.3100 C.3   136  ASN136      0.1181
    118  CG       -21.6020   20.2760   -2.3510 C.2   136  ASN136      0.2629
    119  OD1      -21.3450   20.1250   -3.5600 O.2   136  ASN136     -0.2716
    120  ND2      -22.4290   21.1760   -1.9160 N.am  136  ASN136     -0.0877
    121  N        -16.5660   14.9400   -1.3550 N.3   138  LEU138     -0.1245
    122  CA       -15.8340   14.1360   -2.3180 C.3   138  LEU138      0.1561
    123  C        -14.9300   13.1680   -1.5550 C.2   138  LEU138      0.2260
    124  O        -14.8100   13.2360   -0.3350 O.2   138  LEU138     -0.2867
    125  CB       -15.0590   15.0080   -3.3170 C.3   138  LEU138      0.0270
    126  CG       -15.8460   16.1140   -4.0060 C.3   138  LEU138      0.0019
    127  CD1      -14.9910   16.8090   -5.0350 C.3   138  LEU138      0.0001
    128  CD2      -17.1410   15.6310   -4.6420 C.3   138  LEU138      0.0001
    129  N        -16.2250   20.1070   -0.4050 N.3   148  THR148     -0.1203
    130  CA       -16.0570   21.1500   -1.3930 C.3   148  THR148      0.1994
    131  C        -17.3040   22.0220   -1.4880 C.2   148  THR148      0.2617
    132  O        -18.2360   21.8860   -0.6910 O.2   148  THR148     -0.2717
    133  CB       -15.6950   20.5180   -2.7320 C.3   148  THR148      0.1784
    134  OG1      -15.2210   21.5480   -3.5800 O.3   148  THR148     -0.2211
    135  CG2      -16.8780   19.7680   -3.3390 C.3   148  THR148      0.0376
    136  N        -17.2550   22.9600   -2.4630 N.am  149  ASP149     -0.1973
    137  CA       -18.3500   23.8620   -2.8260 C.3   149  ASP149      0.1709
    138  C        -18.5800   24.9550   -1.7840 C.2   149  ASP149      0.2293
    139  O        -19.5470   24.9220   -1.0110 O.2   149  ASP149     -0.2864
    140  CB       -19.6120   23.0720   -3.2000 C.3   149  ASP149      0.1436
    141  CG       -19.5000   22.4460   -4.5920 C.2   149  ASP149      0.3671
    142  OD1      -18.3660   22.2500   -5.0660 O.co2 149  ASP149     -0.2456
    143  OD2      -20.5310   22.1520   -5.2200 O.co2 149  ASP149     -0.2456
@<TRIPOS>BOND
     1    20    19   ar
     2    21    19   ar
     3    19    18    1
     4    18    17    1
     5    17    14    1
     6     1     2    1
     7    29    28    2
     8    25    24    2
     9    35    34    2
    10    14    13    1
    11    14    15    1
    12    28    27    1
    13    12    11    2
    14    34    33    1
    15    13    11   am
    16    11    10    1
    17    32    33    1
    18    26    27    1
    19    27    30    1
    20     9    10    1
    21     9     3   am
    22     2     3    1
    23     2     5    1
    24    15    22   am
    25    15    16    2
    26    24    23    1
    27     3     4    2
    28    33    36    1
    29    22    23    1
    30     6     8    1
    31     6     5    1
    32     6     7    1
    33    30    31    1
    34    46    47    2
    35    46    45    1
    36    36    38    1
    37    36    37    1
    38    45    44    1
    39    45    48    1
    40    85    84    1
    41    41    40    1
    42    41    42    2
    43    49    48    1
    44    49    50    1
    45    84    83   ar
    46    84    82   ar
    47    40    39    1
    48    40    43    1
    49    83    81   ar
    50    82    80   ar
    51    81    79   ar
    52    80    79   ar
    53    50    51    1
    54    51    52    1
    55    79    78    1
    56    78    75    1
    57   103   101   ar
    58    60    61    1
    59    63    62    2
    60    66    65    1
    61    75    74    1
    62    75    76    1
    63   101   102   ar
    64   101   100    1
    65    65    64    1
    66    65    67    1
    67    89    88    2
    68    64    61    1
    69    92    91    1
    70    92    93    1
    71   112   110   ar
    72   111   110   ar
    73    61    62    1
    74    62    68   am
    75    74    70   am
    76   110   109    1
    77    88    87    1
    78    76    86   am
    79    76    77    2
    80   100    99    1
    81    86    87    1
    82    71    70    2
    83    70    69    1
    84    95    93   am
    85    95    96    1
    86   109   108    1
    87    93    94    2
    88    99    96    1
    89    87    90    1
    90    68    69    1
    91   143   141   ar
    92    69    72    1
    93   142   141   ar
    94   127   126    1
    95    96    97    1
    96   128   126    1
    97   141   140    1
    98   108   105    1
    99   107   106    2
   100    98    97    2
   101   126   125    1
   102    72    73    1
   103   105   106    1
   104   105   104    1
   105   134   133    1
   106   119   118    2
   107    58    57    1
   108   106   113   am
   109   135   133    1
   110   125   122    1
   111   140   137    1
   112   137   136    1
   113   137   138    1
   114   133   130    1
   115    59    57    1
   116   136   131   am
   117   118   120   am
   118   118   117    1
   119   122   123    1
   120   122   121    1
   121   113   114    1
   122    57    54    1
   123   114   117    1
   124   114   115    1
   125   138   139    2
   126   123   124    2
   127   131   130    1
   128   131   132    2
   129   130   129    1
   130    54    55    1
   131    54    53    1
   132   115   116    2
   133    55    56    2
