@<TRIPOS>MOLECULE
tmp/5lvoA01.pdb
 124 119 0 0 0
SMALL
GASTEIGER

@<TRIPOS>ATOM
      1  N          3.0980   34.3250  -10.8760 N.3     4  LYS4       -0.1245
      2  CA         1.6690   34.1930  -11.1380 C.3     4  LYS4        0.1561
      3  C          1.4630   33.2720  -12.3210 C.2     4  LYS4        0.2260
      4  O          2.1520   33.3720  -13.3370 O.2     4  LYS4       -0.2867
      5  CB         1.0480   35.5470  -11.4640 C.3     4  LYS4        0.0271
      6  CG        -0.4720   35.6120  -11.5060 C.3     4  LYS4        0.0035
      7  CD        -0.8470   37.0700  -11.6370 C.3     4  LYS4        0.0206
      8  CE        -2.2650   37.3610  -12.0670 C.3     4  LYS4        0.1093
      9  NZ        -3.1790   36.4610  -11.3190 N.3     4  LYS4       -0.1314
     10  N        -15.9160   35.5450  -17.7410 N.3    43  LYS43      -0.1245
     11  CA       -16.2120   36.8700  -17.1880 C.3    43  LYS43       0.1561
     12  C        -17.4990   37.4610  -17.7340 C.2    43  LYS43       0.2260
     13  O        -18.3180   37.9800  -16.9700 O.2    43  LYS43      -0.2867
     14  CB       -15.0640   37.8250  -17.4570 C.3    43  LYS43       0.0271
     15  CG       -13.8180   37.5330  -16.6410 C.3    43  LYS43       0.0035
     16  CD       -12.6900   38.4340  -17.0370 C.3    43  LYS43       0.0206
     17  CE       -11.5530   38.3780  -16.0450 C.3    43  LYS43       0.1093
     18  NZ       -10.4600   39.3370  -16.4060 N.3    43  LYS43      -0.1314
     19  N        -20.4060   35.9180  -15.9060 N.3    46  ILE46      -0.1231
     20  CA       -20.4470   36.3390  -14.5200 C.3    46  ILE46       0.1692
     21  C        -20.9690   37.7760  -14.4190 C.2    46  ILE46       0.2591
     22  O        -21.7510   38.0880  -13.5160 O.2    46  ILE46      -0.2718
     23  CB       -19.0510   36.1220  -13.8670 C.3    46  ILE46       0.0266
     24  CG1      -18.6360   34.6280  -13.8450 C.3    46  ILE46       0.0019
     25  CG2      -19.0010   36.7540  -12.4740 C.3    46  ILE46       0.0020
     26  CD1      -19.5350   33.7240  -13.0690 C.3    46  ILE46       0.0001
     27  N        -20.4440   38.6750  -15.2620 N.am   47  ILE47      -0.1980
     28  CA       -20.8450   40.0850  -15.2370 C.3    47  ILE47       0.1595
     29  C        -22.3080   40.2340  -15.6140 C.2    47  ILE47       0.2287
     30  O        -23.0770   40.9080  -14.9180 O.2    47  ILE47      -0.2864
     31  CB       -19.9320   40.9340  -16.1480 C.3    47  ILE47       0.0276
     32  CG1      -18.5410   41.0750  -15.5390 C.3    47  ILE47       0.0022
     33  CG2      -20.5170   42.3530  -16.3550 C.3    47  ILE47       0.0022
     34  CD1      -17.4820   41.5340  -16.5340 C.3    47  ILE47       0.0001
     35  N        -20.6030   38.4000   -9.8270 N.3    52  VAL52      -0.1245
     36  CA       -19.2780   38.8270   -9.3560 C.3    52  VAL52       0.1561
     37  C        -19.1520   38.6600   -7.8530 C.2    52  VAL52       0.2260
     38  O        -18.1100   38.1580   -7.3820 O.2    52  VAL52      -0.2867
     39  CB       -18.9610   40.2400   -9.8590 C.3    52  VAL52       0.0252
     40  CG1      -17.6600   40.7440   -9.2280 C.3    52  VAL52       0.0019
     41  CG2      -18.9010   40.2850  -11.4070 C.3    52  VAL52       0.0019
     42  N        -18.2700   34.9820   -6.9670 N.3    55  VAL55      -0.1231
     43  CA       -16.9220   34.5640   -7.3430 C.3    55  VAL55       0.1692
     44  C        -15.9010   35.1490   -6.3950 C.2    55  VAL55       0.2592
     45  O        -14.9600   34.4830   -5.9600 O.2    55  VAL55      -0.2718
     46  CB       -16.6450   35.0110   -8.7900 C.3    55  VAL55       0.0266
     47  CG1      -15.2150   34.7320   -9.1420 C.3    55  VAL55       0.0020
     48  CG2      -17.5870   34.2920   -9.7150 C.3    55  VAL55       0.0020
     49  N        -16.0560   36.4310   -6.0700 N.am   56  THR56      -0.1953
     50  CA       -15.1890   37.0930   -5.0970 C.3    56  THR56       0.1897
     51  C        -15.2640   36.4080   -3.7450 C.2    56  THR56       0.2313
     52  O        -14.2540   36.1960   -3.0860 O.2    56  THR56      -0.2863
     53  CB       -15.6340   38.5480   -4.9550 C.3    56  THR56       0.1794
     54  OG1      -15.5820   39.1710   -6.2330 O.3    56  THR56      -0.2208
     55  CG2      -14.7590   39.2970   -3.9850 C.3    56  THR56       0.0378
     56  N        -13.3840   33.0570   -3.6840 N.3    59  ARG59      -0.1245
     57  CA       -11.9580   33.2670   -3.5110 C.3    59  ARG59       0.1563
     58  C        -11.6220   33.6700   -2.0900 C.2    59  ARG59       0.2260
     59  O        -10.6890   33.1390   -1.4780 O.2    59  ARG59      -0.2867
     60  CB       -11.4540   34.3080   -4.5120 C.3    59  ARG59       0.0307
     61  CG        -9.9280   34.4470   -4.5220 C.3    59  ARG59       0.0489
     62  CD        -9.4710   35.7700   -5.1220 C.3    59  ARG59       0.2205
     63  NE       -10.0190   36.9070   -4.3820 N.pl3  59  ARG59      -0.0865
     64  CZ       -10.9240   37.7580   -4.8640 C.cat  59  ARG59       0.5346
     65  NH1      -11.3910   37.6130   -6.0990 N.pl3  59  ARG59       0.1354
     66  NH2      -11.3830   38.7410   -4.0970 N.pl3  59  ARG59       0.1354
     67  N         -5.0050   31.6240   -7.9890 N.3    76  THR76      -0.1203
     68  CA        -6.0310   32.1400   -8.8790 C.3    76  THR76       0.1994
     69  C         -5.3290   32.9550   -9.9520 C.2    76  THR76       0.2618
     70  O         -4.2280   33.4500   -9.7270 O.2    76  THR76      -0.2717
     71  CB        -7.0990   33.0160   -8.1940 C.3    76  THR76       0.1784
     72  OG1       -6.4540   34.1020   -7.5460 O.3    76  THR76      -0.2211
     73  CG2       -7.8960   32.2370   -7.1980 C.3    76  THR76       0.0376
     74  N         -5.9560   33.0630  -11.1230 N.am   77  PHE77      -0.1961
     75  CA        -5.4590   33.9730  -12.1600 C.3    77  PHE77       0.1771
     76  C         -6.6130   34.2790  -13.1020 C.2    77  PHE77       0.2619
     77  O         -7.6810   33.6710  -13.0440 O.2    77  PHE77      -0.2715
     78  CB        -4.2070   33.4200  -12.8810 C.3    77  PHE77       0.0574
     79  CG        -4.3590   32.0640  -13.5180 C.ar   77  PHE77      -0.0200
     80  CD1       -4.7990   31.8980  -14.8110 C.ar   77  PHE77      -0.0042
     81  CD2       -3.9650   30.9500  -12.8210 C.ar   77  PHE77      -0.0042
     82  CE1       -4.9210   30.6200  -15.3570 C.ar   77  PHE77      -0.0003
     83  CE2       -4.0850   29.6820  -13.3820 C.ar   77  PHE77      -0.0003
     84  CZ        -4.5520   29.5250  -14.6410 C.ar   77  PHE77      -0.0000
     85  N         -6.3820   35.2410  -13.9930 N.am   78  GLN78      -0.1977
     86  CA        -7.4090   35.6470  -14.9340 C.3    78  GLN78       0.1601
     87  C         -6.7490   36.0330  -16.2510 C.2    78  GLN78       0.2287
     88  O         -5.5520   36.3030  -16.3230 O.2    78  GLN78      -0.2864
     89  CB        -8.2390   36.8130  -14.3570 C.3    78  GLN78       0.0394
     90  CG        -7.4270   38.0150  -13.9440 C.3    78  GLN78       0.0908
     91  CD        -8.2860   39.1440  -13.4560 C.2    78  GLN78       0.2608
     92  OE1       -9.2240   39.5550  -14.1420 O.2    78  GLN78      -0.2717
     93  NE2       -7.9990   39.6360  -12.2550 N.am   78  GLN78      -0.0878
     94  N        -11.8270   33.7090  -15.5320 N.3    83  LEU83      -0.1231
     95  CA       -11.2960   33.5910  -14.1810 C.3    83  LEU83       0.1693
     96  C        -10.9460   32.1200  -13.9500 C.2    83  LEU83       0.2592
     97  O        -11.7060   31.2330  -14.3530 O.2    83  LEU83      -0.2718
     98  CB       -12.3750   34.0000  -13.1600 C.3    83  LEU83       0.0284
     99  CG       -12.9630   35.3880  -13.3460 C.3    83  LEU83       0.0019
    100  CD1      -14.3250   35.5200  -12.6940 C.3    83  LEU83       0.0001
    101  CD2      -12.0190   36.3800  -12.8070 C.3    83  LEU83       0.0001
    102  N         -9.8290   31.8710  -13.2600 N.am   84  TYR84      -0.1962
    103  CA        -9.3690   30.5100  -13.0170 C.3    84  TYR84       0.1771
    104  C         -9.0490   30.3260  -11.5320 C.2    84  TYR84       0.2619
    105  O         -8.3070   31.1280  -10.9470 O.2    84  TYR84      -0.2715
    106  CB        -8.1010   30.2480  -13.8030 C.3    84  TYR84       0.0574
    107  CG        -8.1570   30.4240  -15.2890 C.ar   84  TYR84      -0.0198
    108  CD1       -8.0870   31.7040  -15.8620 C.ar   84  TYR84      -0.0009
    109  CD2       -8.1710   29.3520  -16.1540 C.ar   84  TYR84      -0.0009
    110  CE1       -8.0540   31.8820  -17.2330 C.ar   84  TYR84       0.0417
    111  CE2       -8.1380   29.5430  -17.5340 C.ar   84  TYR84       0.0417
    112  CZ        -8.1150   30.8100  -18.0560 C.ar   84  TYR84       0.1957
    113  OH        -8.0980   30.9920  -19.4270 O.3    84  TYR84      -0.2866
    114  N         -9.5560   29.2380  -10.9530 N.am   85  PHE85      -0.1974
    115  CA        -9.2320   28.8440   -9.5840 C.3    85  PHE85       0.1639
    116  C         -8.4760   27.5300   -9.6630 C.2    85  PHE85       0.2290
    117  O         -9.0020   26.5580  -10.2160 O.2    85  PHE85      -0.2864
    118  CB       -10.4770   28.5100   -8.7700 C.3    85  PHE85       0.0560
    119  CG       -11.4180   29.6590   -8.4260 C.ar   85  PHE85      -0.0200
    120  CD1      -12.4540   29.9990   -9.2880 C.ar   85  PHE85      -0.0042
    121  CD2      -11.4360   30.2080   -7.1650 C.ar   85  PHE85      -0.0042
    122  CE1      -13.3810   30.9750   -8.9310 C.ar   85  PHE85      -0.0003
    123  CE2      -12.3690   31.1830   -6.8030 C.ar   85  PHE85      -0.0003
    124  CZ       -13.3180   31.5520   -7.6670 C.ar   85  PHE85      -0.0000
@<TRIPOS>BOND
     1   113   112    1
     2   112   111   ar
     3   112   110   ar
     4    10    11    1
     5    12    11    1
     6    12    13    2
     7   111   109   ar
     8    14    11    1
     9    14    15    1
    10   110   108   ar
    11    16    15    1
    12    16    17    1
    13    34    32    1
    14    18    17    1
    15    33    31    1
    16    88    87    2
    17    87    86    1
    18   109   107   ar
    19    31    32    1
    20    31    28    1
    21    19    20    1
    22   108   107   ar
    23    29    28    1
    24    29    30    2
    25    94    95    1
    26    82    80   ar
    27    82    84   ar
    28   107   106    1
    29    27    28    1
    30    27    21   am
    31    86    89    1
    32    86    85    1
    33    80    79   ar
    34    84    83   ar
    35    20    21    1
    36    20    23    1
    37    21    22    2
    38    89    90    1
    39    97    96    2
    40    95    96    1
    41    95    98    1
    42    92    91    2
    43    85    76   am
    44    96   102   am
    45    90    91    1
    46    23    24    1
    47    23    25    1
    48    24    26    1
    49   106   103    1
    50    79    78    1
    51    79    81   ar
    52    91    93   am
    53    83    81   ar
    54    99    98    1
    55    99   101    1
    56    99   100    1
    57     4     3    2
    58   102   103    1
    59    76    77    2
    60    76    75    1
    61   103   104    1
    62    78    75    1
    63     3     2    1
    64    75    74    1
    65     8     7    1
    66     8     9    1
    67     7     6    1
    68   104   114   am
    69   104   105    2
    70     6     5    1
    71     5     2    1
    72    41    39    1
    73     2     1    1
    74    74    69   am
    75   114   115    1
    76   117   116    2
    77    69    70    2
    78    69    68    1
    79    39    36    1
    80    39    40    1
    81    35    36    1
    82    48    46    1
    83   116   115    1
    84   115   118    1
    85    36    37    1
    86   120   122   ar
    87   120   119   ar
    88    47    46    1
    89   122   124   ar
    90    68    71    1
    91    68    67    1
    92    46    43    1
    93   118   119    1
    94   119   121   ar
    95    71    72    1
    96    71    73    1
    97    37    38    2
    98   124   123   ar
    99    43    42    1
   100    43    44    1
   101   121   123   ar
   102    44    49   am
   103    44    45    2
   104    54    53    1
   105    65    64    1
   106    49    50    1
   107    62    61    1
   108    62    63    1
   109    50    53    1
   110    50    51    1
   111    53    55    1
   112    64    63    2
   113    64    66    1
   114    61    60    1
   115    60    57    1
   116    51    52    2
   117    56    57    1
   118    57    58    1
   119    58    59    2
