@<TRIPOS>MOLECULE
tmp/5lvpC00.pdb
 181 177 0 0 0
SMALL
GASTEIGER

@<TRIPOS>ATOM
      1  N        -32.6970   14.3010   12.3060 N.3     1  ARG1       -0.1231
      2  CA       -34.0170   13.6970   12.4620 C.3     1  ARG1        0.1694
      3  C        -34.1770   12.3020   11.8470 C.2     1  ARG1        0.2592
      4  O        -33.9930   12.1220   10.6390 O.2     1  ARG1       -0.2718
      5  CB       -35.1140   14.6180   11.9110 C.3     1  ARG1        0.0321
      6  CG       -36.5190   14.0390   12.1270 C.3     1  ARG1        0.0489
      7  CD       -37.5510   14.7950   11.3610 C.3     1  ARG1        0.2205
      8  NE       -37.5970   14.5530    9.9210 N.pl3   1  ARG1       -0.0865
      9  CZ       -38.2360   13.5010    9.3870 C.cat   1  ARG1        0.5346
     10  NH1      -38.8520   12.6090   10.1790 N.pl3   1  ARG1        0.1354
     11  NH2      -38.2700   13.3480    8.0240 N.pl3   1  ARG1        0.1354
     12  N        -34.5180   11.3280   12.6940 N.am    2  LYS2       -0.1966
     13  CA       -34.6930    9.9370   12.2860 C.3     2  LYS2        0.1728
     14  C        -35.8260    9.7860   11.2540 C.2     2  LYS2        0.2616
     15  O        -36.8760   10.4220   11.3800 O.2     2  LYS2       -0.2715
     16  CB       -34.9700    9.0730   13.5190 C.3     2  LYS2        0.0311
     17  CG       -35.0880    7.5990   13.2200 C.3     2  LYS2        0.0038
     18  CD       -35.3630    6.8150   14.4830 C.3     2  LYS2        0.0206
     19  CE       -35.7650    5.3890   14.1370 C.3     2  LYS2        0.1093
     20  NZ       -36.0000    4.5540   15.3520 N.3     2  LYS2       -0.1314
     21  N        -35.6210    8.9560   10.2310 N.am    3  LYS3       -0.1977
     22  CA       -36.6610    8.7960    9.2230 C.3     3  LYS3        0.1596
     23  C        -37.7000    7.7630    9.6690 C.2     3  LYS3        0.2287
     24  O        -37.5520    7.0840   10.6920 O.2     3  LYS3       -0.2864
     25  CB       -36.0560    8.3930    7.8820 C.3     3  LYS3        0.0298
     26  CG       -34.7830    9.1280    7.5130 C.3     3  LYS3        0.0038
     27  CD       -35.0450   10.3720    6.6930 C.3     3  LYS3        0.0206
     28  CE       -33.8550   10.6580    5.7810 C.3     3  LYS3        0.1093
     29  NZ       -33.8410   12.0360    5.2260 N.3     3  LYS3       -0.1314
     30  N        -37.9800   -8.2150   12.0000 N.3    41  LYS41      -0.1245
     31  CA       -37.4010   -8.4360   13.3200 C.3    41  LYS41       0.1561
     32  C        -37.6270   -9.8660   13.7910 C.2    41  LYS41       0.2260
     33  O        -36.7070  -10.5070   14.3140 O.2    41  LYS41      -0.2867
     34  CB       -37.9980   -7.4610   14.3330 C.3    41  LYS41       0.0271
     35  CG       -37.5940   -6.0310   14.1510 C.3    41  LYS41       0.0035
     36  CD       -38.2840   -5.1440   15.1680 C.3    41  LYS41       0.0206
     37  CE       -37.8150   -3.7200   15.0110 C.3    41  LYS41       0.1093
     38  NZ       -38.5920   -2.7980   15.8630 N.3    41  LYS41      -0.1314
     39  N        -35.3070  -12.2930   12.6240 N.3    44  ILE44      -0.1231
     40  CA       -33.9490  -11.9930   13.0720 C.3    44  ILE44       0.1692
     41  C        -33.7360  -12.4590   14.5030 C.2    44  ILE44       0.2591
     42  O        -32.6730  -12.9910   14.8440 O.2    44  ILE44      -0.2718
     43  CB       -33.6600  -10.4900   12.9270 C.3    44  ILE44       0.0266
     44  CG1      -33.5090  -10.1160   11.4710 C.3    44  ILE44       0.0019
     45  CG2      -32.4020  -10.0860   13.6920 C.3    44  ILE44       0.0020
     46  CD1      -33.2220   -8.6650   11.3340 C.3    44  ILE44       0.0001
     47  N        -34.7270  -12.2500   15.3670 N.am   45  ILE45      -0.1980
     48  CA       -34.5900  -12.7090   16.7410 C.3    45  ILE45       0.1595
     49  C        -34.5960  -14.2360   16.7940 C.2    45  ILE45       0.2287
     50  O        -33.8650  -14.8470   17.5830 O.2    45  ILE45      -0.2864
     51  CB       -35.6980  -12.0870   17.6150 C.3    45  ILE45       0.0276
     52  CG1      -35.7380  -10.5620   17.4270 C.3    45  ILE45       0.0022
     53  CG2      -35.4850  -12.4380   19.0880 C.3    45  ILE45       0.0022
     54  CD1      -36.8210   -9.8510   18.2440 C.3    45  ILE45       0.0001
     55  N        -29.3440  -10.3370   16.0860 N.3    50  VAL50      -0.1245
     56  CA       -29.3680   -8.9250   16.4780 C.3    50  VAL50       0.1561
     57  C        -27.9540   -8.3520   16.5100 C.2    50  VAL50       0.2260
     58  O        -27.7440   -7.2380   16.0070 O.2    50  VAL50      -0.2867
     59  CB       -30.0720   -8.7190   17.8290 C.3    50  VAL50       0.0252
     60  CG1      -29.8660   -7.2900   18.3280 C.3    50  VAL50       0.0019
     61  CG2      -31.5460   -9.0170   17.6950 C.3    50  VAL50       0.0019
     62  N        -26.8540   -8.0300   12.7350 N.3    53  VAL53      -0.1231
     63  CA       -27.4720   -6.8830   12.0820 C.3    53  VAL53       0.1692
     64  C        -26.8220   -5.5860   12.5460 C.2    53  VAL53       0.2592
     65  O        -26.5950   -4.6690   11.7450 O.2    53  VAL53      -0.2718
     66  CB       -28.9910   -6.8910   12.3400 C.3    53  VAL53       0.0266
     67  CG1      -29.6120   -5.5870   11.8930 C.3    53  VAL53       0.0020
     68  CG2      -29.6400   -8.0490   11.6120 C.3    53  VAL53       0.0020
     69  N        -26.5070   -5.4830   13.8400 N.am   54  THR54      -0.1953
     70  CA       -25.8600   -4.2680   14.3330 C.3    54  THR54       0.1897
     71  C        -24.4850   -4.0810   13.7000 C.2    54  THR54       0.2313
     72  O        -24.0940   -2.9530   13.3710 O.2    54  THR54      -0.2863
     73  CB       -25.7430   -4.2970   15.8580 C.3    54  THR54       0.1794
     74  OG1      -27.0250   -4.5680   16.4360 O.3    54  THR54      -0.2208
     75  CG2      -25.2450   -2.9500   16.3750 C.3    54  THR54       0.0378
     76  N        -24.5380   -2.6600   10.2730 N.3    57  ARG57      -0.1245
     77  CA       -24.8330   -1.2360   10.3330 C.3    57  ARG57       0.1563
     78  C        -23.5700   -0.4350   10.6050 C.2    57  ARG57       0.2260
     79  O        -23.2310    0.4820    9.8420 O.2    57  ARG57      -0.2867
     80  CB       -25.8840   -0.9420   11.3990 C.3    57  ARG57       0.0307
     81  CG       -26.1290    0.5470   11.5490 C.3    57  ARG57       0.0489
     82  CD       -27.0100    0.8250   12.7180 C.3    57  ARG57       0.2205
     83  NE       -26.3500    0.4850   13.9700 N.pl3  57  ARG57      -0.0865
     84  CZ       -26.0140    1.3730   14.8980 C.cat  57  ARG57       0.5346
     85  NH1      -26.2910    2.6580   14.7100 N.pl3  57  ARG57       0.1354
     86  NH2      -25.4140    0.9770   16.0150 N.pl3  57  ARG57       0.1354
     87  N        -21.6270    2.2110    8.0500 N.3    61  SER61      -0.1217
     88  CA       -21.5500    3.6320    8.3760 C.3    61  SER61       0.1889
     89  C        -20.1110    4.1220    8.4480 C.2    61  SER61       0.2288
     90  O        -19.8700    5.3260    8.3140 O.2    61  SER61      -0.2866
     91  CB       -22.2850    3.9330    9.6850 C.3    61  SER61       0.2089
     92  OG       -21.7870    3.1530   10.7480 O.3    61  SER61      -0.2183
     93  N        -24.3890    3.6870    3.2320 N.3    71  LEU71      -0.1231
     94  CA       -25.5180    3.5980    4.1550 C.3    71  LEU71       0.1693
     95  C        -25.9130    5.0170    4.5730 C.2    71  LEU71       0.2592
     96  O        -25.1990    5.6690    5.3440 O.2    71  LEU71      -0.2718
     97  CB       -25.1550    2.7390    5.3670 C.3    71  LEU71       0.0284
     98  CG       -26.1320    2.7560    6.5510 C.3    71  LEU71       0.0019
     99  CD1      -27.5370    2.5670    6.0640 C.3    71  LEU71       0.0001
    100  CD2      -25.7990    1.6680    7.5670 C.3    71  LEU71       0.0001
    101  N        -27.0550    5.4980    4.0620 N.am   72  TYR72      -0.1962
    102  CA       -27.4990    6.8450    4.3980 C.3    72  TYR72       0.1771
    103  C        -28.2610    6.8860    5.7130 C.2    72  TYR72       0.2620
    104  O        -28.0750    7.8160    6.5020 O.2    72  TYR72      -0.2715
    105  CB       -28.3810    7.4160    3.2940 C.3    72  TYR72       0.0574
    106  CG       -27.6550    7.6920    2.0160 C.ar   72  TYR72      -0.0198
    107  CD1      -27.4900    6.6950    1.0620 C.ar   72  TYR72      -0.0009
    108  CD2      -27.1560    8.9520    1.7390 C.ar   72  TYR72      -0.0009
    109  CE1      -26.8320    6.9430   -0.1260 C.ar   72  TYR72       0.0417
    110  CE2      -26.4910    9.2100    0.5510 C.ar   72  TYR72       0.0417
    111  CZ       -26.3340    8.2020   -0.3750 C.ar   72  TYR72       0.1957
    112  OH       -25.6830    8.4520   -1.5540 O.3    72  TYR72      -0.2866
    113  N        -29.1480    5.9240    5.9640 N.am   73  PHE73      -0.1960
    114  CA       -29.9540    6.0200    7.1750 C.3    73  PHE73       0.1771
    115  C        -30.4380    4.6450    7.5740 C.2    73  PHE73       0.2620
    116  O        -30.4900    3.7220    6.7600 O.2    73  PHE73      -0.2715
    117  CB       -31.1670    6.9590    7.0140 C.3    73  PHE73       0.0574
    118  CG       -31.9330    6.7470    5.7420 C.ar   73  PHE73      -0.0200
    119  CD1      -32.8860    5.7450    5.6470 C.ar   73  PHE73      -0.0042
    120  CD2      -31.6760    7.5290    4.6310 C.ar   73  PHE73      -0.0042
    121  CE1      -33.5720    5.5320    4.4800 C.ar   73  PHE73      -0.0003
    122  CE2      -32.3530    7.3170    3.4500 C.ar   73  PHE73      -0.0003
    123  CZ       -33.3030    6.3120    3.3720 C.ar   73  PHE73      -0.0000
    124  N        -30.8080    4.5380    8.8450 N.am   74  THR74      -0.1937
    125  CA       -31.5670    3.4100    9.3430 C.3    74  THR74       0.2028
    126  C        -32.7630    3.9160   10.1380 C.2    74  THR74       0.2642
    127  O        -32.7960    5.0540   10.6090 O.2    74  THR74      -0.2714
    128  CB       -30.7090    2.4820   10.2040 C.3    74  THR74       0.1808
    129  OG1      -30.0680    3.2400   11.2370 O.3    74  THR74      -0.2208
    130  CG2      -29.6580    1.7590    9.3360 C.3    74  THR74       0.0379
    131  N        -33.7700    3.0640   10.2410 N.am   75  PHE75      -0.1959
    132  CA       -34.8710    3.2950   11.1580 C.3    75  PHE75       0.1771
    133  C        -35.5900    1.9720   11.3590 C.2    75  PHE75       0.2619
    134  O        -35.2560    0.9580   10.7400 O.2    75  PHE75      -0.2715
    135  CB       -35.8080    4.3940   10.6500 C.3    75  PHE75       0.0574
    136  CG       -36.2960    4.2050    9.2420 C.ar   75  PHE75      -0.0200
    137  CD1      -35.5840    4.7180    8.1720 C.ar   75  PHE75      -0.0042
    138  CD2      -37.5090    3.5630    8.9860 C.ar   75  PHE75      -0.0042
    139  CE1      -36.0570    4.5690    6.8660 C.ar   75  PHE75      -0.0003
    140  CE2      -37.9880    3.4150    7.6810 C.ar   75  PHE75      -0.0003
    141  CZ       -37.2590    3.9140    6.6240 C.ar   75  PHE75      -0.0000
    142  N        -36.5820    1.9810   12.2400 N.am   76  GLN76      -0.1977
    143  CA       -37.3400    0.7680   12.4790 C.3    76  GLN76       0.1601
    144  C        -38.7920    1.1240   12.7560 C.2    76  GLN76       0.2287
    145  O        -39.1560    2.2910   12.9370 O.2    76  GLN76      -0.2864
    146  CB       -36.7270   -0.0520   13.6200 C.3    76  GLN76       0.0394
    147  CG       -36.6310    0.6700   14.9400 C.3    76  GLN76       0.0908
    148  CD       -36.0100   -0.1870   16.0320 C.2    76  GLN76       0.2608
    149  OE1      -36.4820   -1.2840   16.3230 O.2    76  GLN76      -0.2717
    150  NE2      -34.9390    0.3120   16.6370 N.am   76  GLN76      -0.0878
    151  N        -36.8690   -3.6940   10.2920 N.3    81  LEU81      -0.1231
    152  CA       -35.6730   -2.8650   10.3070 C.3    81  LEU81       0.1693
    153  C        -35.4220   -2.3760    8.8890 C.2    81  LEU81       0.2592
    154  O        -35.5010   -3.1650    7.9400 O.2    81  LEU81      -0.2718
    155  CB       -34.4580   -3.6500   10.8050 C.3    81  LEU81       0.0284
    156  CG       -34.4270   -4.1210   12.2580 C.3    81  LEU81       0.0019
    157  CD1      -33.0920   -4.7570   12.5630 C.3    81  LEU81       0.0001
    158  CD2      -34.6820   -2.9660   13.1950 C.3    81  LEU81       0.0001
    159  N        -35.1200   -1.0900    8.7390 N.am   82  TYR82      -0.1962
    160  CA       -34.9280   -0.4820    7.4260 C.3    82  TYR82       0.1771
    161  C        -33.5090    0.0460    7.3410 C.2    82  TYR82       0.2619
    162  O        -33.0380    0.6880    8.2820 O.2    82  TYR82      -0.2715
    163  CB       -35.9210    0.6650    7.1690 C.3    82  TYR82       0.0574
    164  CG       -37.3780    0.2860    7.2620 C.ar   82  TYR82      -0.0198
    165  CD1      -38.0000    0.1330    8.4930 C.ar   82  TYR82      -0.0009
    166  CD2      -38.1520    0.1010    6.1170 C.ar   82  TYR82      -0.0009
    167  CE1      -39.3350   -0.2060    8.5880 C.ar   82  TYR82       0.0417
    168  CE2      -39.4960   -0.2350    6.2010 C.ar   82  TYR82       0.0417
    169  CZ       -40.0820   -0.3860    7.4400 C.ar   82  TYR82       0.1957
    170  OH       -41.4230   -0.7140    7.5450 O.3    82  TYR82      -0.2866
    171  N        -32.8400   -0.2240    6.2190 N.am   83  PHE83      -0.1974
    172  CA       -31.5060    0.2890    5.9200 C.3    83  PHE83       0.1639
    173  C        -31.5830    1.1170    4.6460 C.2    83  PHE83       0.2290
    174  O        -31.8710    0.5750    3.5730 O.2    83  PHE83      -0.2864
    175  CB       -30.4930   -0.8360    5.7010 C.3    83  PHE83       0.0560
    176  CG       -30.1080   -1.5840    6.9290 C.ar   83  PHE83      -0.0200
    177  CD1      -30.9560   -2.5230    7.4770 C.ar   83  PHE83      -0.0042
    178  CD2      -28.8590   -1.3940    7.5020 C.ar   83  PHE83      -0.0042
    179  CE1      -30.5780   -3.2440    8.6040 C.ar   83  PHE83      -0.0003
    180  CE2      -28.4740   -2.1110    8.6270 C.ar   83  PHE83      -0.0003
    181  CZ       -29.3300   -3.0370    9.1760 C.ar   83  PHE83      -0.0000
@<TRIPOS>BOND
     1   112   111    1
     2   111   109   ar
     3   111   110   ar
     4   109   107   ar
     5   110   108   ar
     6   107   106   ar
     7   108   106   ar
     8   106   105    1
     9    93    94    1
    10   105   102    1
    11   123   122   ar
    12   123   121   ar
    13   122   120   ar
    14   174   173    2
    15   101   102    1
    16   101    95   am
    17    94    95    1
    18    94    97    1
    19   102   103    1
    20   121   119   ar
    21    95    96    2
    22   120   118   ar
    23   173   172    1
    24    29    28    1
    25    97    98    1
    26   119   118   ar
    27   175   172    1
    28   175   176    1
    29   103   113   am
    30   103   104    2
    31   118   117    1
    32    28    27    1
    33   172   171    1
    34   113   114    1
    35    99    98    1
    36   166   168   ar
    37   166   164   ar
    38   168   169   ar
    39   171   161   am
    40    98   100    1
    41   141   139   ar
    42   141   140   ar
    43    27    26    1
    44   116   115    2
    45   139   137   ar
    46   176   177   ar
    47   176   178   ar
    48   117   114    1
    49   163   164    1
    50   163   160    1
    51   114   115    1
    52   164   165   ar
    53   161   160    1
    54   161   162    2
    55   160   159    1
    56   169   170    1
    57   169   167   ar
    58   177   179   ar
    59   178   180   ar
    60    26    25    1
    61   115   124   am
    62   140   138   ar
    63    25    22    1
    64   154   153    2
    65    11     9    1
    66    87    88    1
    67   137   136   ar
    68    90    89    2
    69    88    89    1
    70    88    91    1
    71   165   167   ar
    72   179   181   ar
    73   180   181   ar
    74   159   153   am
    75   124   125    1
    76   153   152    1
    77   138   136   ar
    78    22    23    1
    79    22    21    1
    80   136   135    1
    81   130   128    1
    82   125   126    1
    83   125   128    1
    84     9     8    2
    85     9    10    1
    86    23    24    2
    87    91    92    1
    88    79    78    2
    89     8     7    1
    90   126   131   am
    91   126   127    2
    92   128   129    1
    93    21    14   am
    94   131   132    1
    95    76    77    1
    96   151   152    1
    97   152   155    1
    98    77    78    1
    99    77    80    1
   100     4     3    2
   101   135   132    1
   102   134   133    2
   103   155   156    1
   104   132   133    1
   105    14    15    2
   106    14    13    1
   107    46    44    1
   108   133   142   am
   109     7     6    1
   110    80    81    1
   111    44    43    1
   112    81    82    1
   113    68    66    1
   114    65    64    2
   115     3     2    1
   116     3    12   am
   117    67    66    1
   118     5     6    1
   119     5     2    1
   120    30    31    1
   121    63    66    1
   122    63    64    1
   123    63    62    1
   124   142   143    1
   125   156   157    1
   126   156   158    1
   127    13    12    1
   128    13    16    1
   129     1     2    1
   130   143   144    1
   131   143   146    1
   132    64    69   am
   133    39    40    1
   134    82    83    1
   135   144   145    2
   136    43    40    1
   137    43    45    1
   138    40    41    1
   139    17    16    1
   140    17    18    1
   141    31    32    1
   142    31    34    1
   143    72    71    2
   144   146   147    1
   145    71    70    1
   146    32    33    2
   147    69    70    1
   148    83    84    2
   149    19    18    1
   150    19    20    1
   151    35    34    1
   152    35    36    1
   153    70    73    1
   154    41    42    2
   155    41    47   am
   156    85    84    1
   157    84    86    1
   158   147   148    1
   159    37    36    1
   160    37    38    1
   161    47    48    1
   162    73    75    1
   163    73    74    1
   164    58    57    2
   165   148   149    2
   166   148   150   am
   167    55    56    1
   168    56    57    1
   169    56    59    1
   170    48    49    1
   171    48    51    1
   172    49    50    2
   173    52    51    1
   174    52    54    1
   175    51    53    1
   176    61    59    1
   177    59    60    1
