@<TRIPOS>MOLECULE
tmp/5lvqA00.pdb
 126 126 0 0 0
SMALL
GASTEIGER

@<TRIPOS>ATOM
      1  N         25.1680    4.9990   47.8330 N.3    23  TRP23      -0.1228
      2  CA        24.1690    3.8800   47.6490 C.3    23  TRP23       0.1722
      3  C         23.4600    3.4150   48.9370 C.2    23  TRP23       0.2437
      4  O         22.2830    3.0940   48.8770 O.2    23  TRP23      -0.2733
      5  CB        24.7820    2.6890   46.9560 C.3    23  TRP23       0.0563
      6  CG        25.9570    2.1120   47.6270 C.ar   23  TRP23       0.0003
      7  CD1       27.2440    2.4550   47.4260 C.ar   23  TRP23       0.0946
      8  CD2       25.9680    1.0740   48.6100 C.ar   23  TRP23       0.0152
      9  NE1       28.0600    1.6920   48.2030 N.ar   23  TRP23      -0.2442
     10  CE2       27.3020    0.8330   48.9450 C.ar   23  TRP23       0.0810
     11  CE3       24.9750    0.3360   49.2480 C.ar   23  TRP23       0.0012
     12  CZ2       27.6820   -0.1420   49.8800 C.ar   23  TRP23       0.0191
     13  CZ3       25.3410   -0.6250   50.1660 C.ar   23  TRP23       0.0001
     14  CH2       26.6770   -0.8730   50.4640 C.ar   23  TRP23       0.0015
     15  N         24.1290    3.4650   50.1060 N.am   24  PRO24      -0.2718
     16  CA        23.3990    3.0820   51.2970 C.3    24  PRO24       0.1535
     17  C         22.2930    4.0470   51.7110 C.2    24  PRO24       0.2598
     18  O         21.4570    3.7140   52.5770 O.2    24  PRO24      -0.2715
     19  CB        24.4840    3.0980   52.3930 C.3    24  PRO24       0.0310
     20  CG        25.7580    2.9860   51.6550 C.3    24  PRO24       0.0237
     21  CD        25.5300    3.7870   50.4340 C.3    24  PRO24       0.0939
     22  N         22.3070    5.2590   51.1510 N.am   25  PHE25      -0.1974
     23  CA        21.4750    6.3370   51.6740 C.3    25  PHE25       0.1639
     24  C         20.3350    6.7640   50.7340 C.2    25  PHE25       0.2290
     25  O         19.6850    7.7750   50.9500 O.2    25  PHE25      -0.2864
     26  CB        22.3900    7.5490   52.0030 C.3    25  PHE25       0.0560
     27  CG        23.6190    7.1740   52.7930 C.ar   25  PHE25      -0.0200
     28  CD1       23.5090    6.7520   54.0830 C.ar   25  PHE25      -0.0042
     29  CD2       24.8730    7.1780   52.2130 C.ar   25  PHE25      -0.0042
     30  CE1       24.6210    6.3800   54.8170 C.ar   25  PHE25      -0.0003
     31  CE2       26.0150    6.8530   52.9470 C.ar   25  PHE25      -0.0003
     32  CZ        25.8890    6.4070   54.2320 C.ar   25  PHE25      -0.0000
     33  N         17.5400    5.4230   49.8600 N.3    27  GLU27      -0.1231
     34  CA        16.1540    5.2030   50.2620 C.3    27  GLU27       0.1684
     35  C         16.0000    4.8360   51.7240 C.2    27  GLU27       0.2434
     36  O         16.9250    4.3320   52.3100 O.2    27  GLU27      -0.2733
     37  CB        15.5520    4.0370   49.4200 C.3    27  GLU27       0.0402
     38  CG        14.6500    4.5710   48.3140 C.3    27  GLU27       0.1161
     39  CD        14.4970    3.6420   47.1340 C.2    27  GLU27       0.3649
     40  OE1       14.3980    2.4040   47.3300 O.co2  27  GLU27      -0.2457
     41  OE2       14.4750    4.1720   45.9980 O.co2  27  GLU27      -0.2457
     42  N         14.8090    5.0570   52.2920 N.am   28  PRO28      -0.2718
     43  CA        14.5320    4.7270   53.6770 C.3    28  PRO28       0.1535
     44  C         14.9550    3.3060   54.0700 C.2    28  PRO28       0.2598
     45  O         14.7130    2.3400   53.3470 O.2    28  PRO28      -0.2715
     46  CB        12.9890    4.8740   53.7730 C.3    28  PRO28       0.0310
     47  CG        12.6150    5.8760   52.7190 C.3    28  PRO28       0.0237
     48  CD        13.6260    5.6650   51.6170 C.3    28  PRO28       0.0939
     49  N         15.6210    3.2030   55.2040 N.am   29  VAL29      -0.1978
     50  CA        15.9450    1.9170   55.7750 C.3    29  VAL29       0.1596
     51  C         14.6340    1.1940   56.0900 C.2    29  VAL29       0.2287
     52  O         13.7490    1.7870   56.6990 O.2    29  VAL29      -0.2864
     53  CB        16.6980    2.0710   57.1010 C.3    29  VAL29       0.0276
     54  CG1       16.9430    0.6890   57.7150 C.3    29  VAL29       0.0022
     55  CG2       17.9880    2.8480   56.8790 C.3    29  VAL29       0.0022
     56  N         14.6760   -4.9360   57.1290 N.3    33  GLU33      -0.1231
     57  CA        16.1190   -5.0940   56.9510 C.3    33  GLU33       0.1699
     58  C         16.9190   -4.8650   58.2430 C.2    33  GLU33       0.2592
     59  O         18.0550   -5.3050   58.3180 O.2    33  GLU33      -0.2718
     60  CB        16.6790   -4.0940   55.9250 C.3    33  GLU33       0.0402
     61  CG        16.0820   -4.0860   54.5280 C.3    33  GLU33       0.1161
     62  CD        16.6630   -2.9440   53.6630 C.2    33  GLU33       0.3649
     63  OE1       16.6080   -1.7370   54.0550 O.co2  33  GLU33      -0.2457
     64  OE2       17.1820   -3.2640   52.5670 O.co2  33  GLU33      -0.2457
     65  N         16.4020   -4.1020   59.2120 N.am   34  ALA34      -0.1980
     66  CA        17.2670   -3.5910   60.3040 C.3    34  ALA34       0.1597
     67  C         16.6530   -3.6430   61.6980 C.2    34  ALA34       0.2287
     68  O         15.9920   -2.6820   62.1270 O.2    34  ALA34      -0.2864
     69  CB        17.7200   -2.1740   59.9980 C.3    34  ALA34       0.0319
     70  N         15.9190   -0.6940   64.2590 N.3    37  TYR37      -0.1241
     71  CA        16.4560    0.5630   63.7360 C.3    37  TYR37       0.1605
     72  C         15.5850    1.7270   64.1880 C.2    37  TYR37       0.2264
     73  O         16.0800    2.6970   64.7700 O.2    37  TYR37      -0.2867
     74  CB        16.5010    0.5580   62.2140 C.3    37  TYR37       0.0534
     75  CG        17.1300    1.8120   61.5960 C.ar   37  TYR37      -0.0201
     76  CD1       16.3530    2.9250   61.2360 C.ar   37  TYR37      -0.0009
     77  CD2       18.4920    1.8470   61.3280 C.ar   37  TYR37      -0.0009
     78  CE1       16.9200    4.0380   60.6280 C.ar   37  TYR37       0.0417
     79  CE2       19.0690    2.9460   60.7130 C.ar   37  TYR37       0.0417
     80  CZ        18.2960    4.0480   60.3770 C.ar   37  TYR37       0.1957
     81  OH        18.9380    5.1410   59.7940 O.3    37  TYR37      -0.2866
     82  N         21.4810   12.2350   57.9020 N.3    72  VAL72      -0.1245
     83  CA        21.6770   10.9920   57.1890 C.3    72  VAL72       0.1561
     84  C         22.9630   10.3300   57.7190 C.2    72  VAL72       0.2260
     85  O         23.0190    9.0880   57.9900 O.2    72  VAL72      -0.2867
     86  CB        21.7820   11.2230   55.6750 C.3    72  VAL72       0.0252
     87  CG1       22.1990    9.9710   54.9340 C.3    72  VAL72       0.0019
     88  CG2       20.4830   11.7540   55.0920 C.3    72  VAL72       0.0019
     89  N         23.4470    6.8630   60.3420 N.3    76  CYS76      -0.1235
     90  CA        24.1940    5.6910   59.8950 C.3    76  CYS76       0.1677
     91  C         25.3170    5.3570   60.9440 C.2    76  CYS76       0.2270
     92  O         25.5420    4.1620   61.3030 O.2    76  CYS76      -0.2867
     93  CB        24.7690    5.9750   58.5410 C.3    76  CYS76       0.0956
     94  SG        25.8180    4.6970   57.9700 S.3    76  CYS76      -0.0801
     95  N         24.1230    3.8320   64.1980 N.3    79  TYR79      -0.1227
     96  CA        23.5060    2.5080   64.1150 C.3    79  TYR79       0.1736
     97  C         24.4800    1.4170   63.6960 C.2    79  TYR79       0.2595
     98  O         24.5010    0.3740   64.2890 O.2    79  TYR79      -0.2718
     99  CB        22.3390    2.5050   63.1700 C.3    79  TYR79       0.0548
    100  CG        21.5640    1.2170   63.2340 C.ar   79  TYR79      -0.0200
    101  CD1       20.6740    0.9550   64.3060 C.ar   79  TYR79      -0.0009
    102  CD2       21.7330    0.2440   62.2520 C.ar   79  TYR79      -0.0009
    103  CE1       19.9690   -0.2460   64.3590 C.ar   79  TYR79       0.0417
    104  CE2       21.0240   -0.9410   62.2910 C.ar   79  TYR79       0.0417
    105  CZ        20.1570   -1.1920   63.3410 C.ar   79  TYR79       0.1957
    106  OH        19.4850   -2.3840   63.2860 O.3    79  TYR79      -0.2866
    107  N         25.3210    1.6540   62.7160 N.am   80  ASN80      -0.1974
    108  CA        26.2290    0.6070   62.2660 C.3    80  ASN80       0.1688
    109  C         27.6290    0.5130   62.9960 C.2    80  ASN80       0.2292
    110  O         28.1150    1.4870   63.4960 O.2    80  ASN80      -0.2864
    111  CB        26.4350    0.8050   60.7720 C.3    80  ASN80       0.1181
    112  CG        25.1200    0.7080   59.9990 C.2    80  ASN80       0.2629
    113  OD1       24.6320   -0.3870   59.7790 O.2    80  ASN80      -0.2716
    114  ND2       24.5260    1.8460   59.6350 N.am   80  ASN80      -0.0877
    115  N         28.8310    0.5110   55.6960 N.3    86  TYR86      -0.1241
    116  CA        27.9230    1.6780   55.7120 C.3    86  TYR86       0.1605
    117  C         28.6160    2.8550   56.4110 C.2    86  TYR86       0.2264
    118  O         28.5130    3.9780   55.9520 O.2    86  TYR86      -0.2867
    119  CB        26.5560    1.3820   56.3620 C.3    86  TYR86       0.0534
    120  CG        25.7090    0.2420   55.7090 C.ar   86  TYR86      -0.0201
    121  CD1       25.7110    0.0180   54.3840 C.ar   86  TYR86      -0.0009
    122  CD2       24.9900   -0.6410   56.5180 C.ar   86  TYR86      -0.0009
    123  CE1       24.9720   -1.0540   53.8430 C.ar   86  TYR86       0.0417
    124  CE2       24.2640   -1.7160   56.0230 C.ar   86  TYR86       0.0417
    125  CZ        24.2390   -1.9230   54.6930 C.ar   86  TYR86       0.1957
    126  OH        23.4890   -3.0230   54.3130 O.3    86  TYR86      -0.2866
@<TRIPOS>BOND
     1    41    39   ar
     2     5     6    1
     3     5     2    1
     4    39    40   ar
     5    39    38    1
     6     7     6   ar
     7     7     9   ar
     8     6     8   ar
     9     2     1    1
    10     2     3    1
    11     9    10   ar
    12    38    37    1
    13     8    10   ar
    14     8    11   ar
    15     4     3    2
    16     3    15   am
    17    10    12   ar
    18    11    13   ar
    19    37    34    1
    20    33    34    1
    21    12    14   ar
    22    15    21    1
    23    15    16    1
    24    13    14   ar
    25    34    35    1
    26    21    20    1
    27    24    25    2
    28    24    23    1
    29    22    23    1
    30    22    17   am
    31    16    17    1
    32    16    19    1
    33    48    42    1
    34    48    47    1
    35    20    19    1
    36    23    26    1
    37    17    18    2
    38    35    42   am
    39    35    36    2
    40    26    27    1
    41    29    27   ar
    42    29    31   ar
    43    42    43    1
    44    64    62   ar
    45    47    46    1
    46    27    28   ar
    47    31    32   ar
    48    45    44    2
    49    62    63   ar
    50    62    61    1
    51    43    46    1
    52    43    44    1
    53   123   121   ar
    54   123   125   ar
    55    44    49   am
    56    28    30   ar
    57    32    30   ar
    58   126   125    1
    59   121   120   ar
    60    61    60    1
    61   125   124   ar
    62    87    86    1
    63    88    86    1
    64    49    50    1
    65    86    83    1
    66   115   116    1
    67   120   119    1
    68   120   122   ar
    69   116   119    1
    70   116   117    1
    71    50    51    1
    72    50    53    1
    73    60    57    1
    74   118   117    2
    75   124   122   ar
    76    51    52    2
    77    55    53    1
    78    57    56    1
    79    57    58    1
    80    53    54    1
    81    83    84    1
    82    83    82    1
    83    84    85    2
    84    94    93    1
    85    58    59    2
    86    58    65   am
    87    93    90    1
    88    65    66    1
    89   114   112   am
    90   113   112    2
    91    81    80    1
    92    90    89    1
    93    90    91    1
    94    69    66    1
    95   112   111    1
    96    66    67    1
    97    80    78   ar
    98    80    79   ar
    99    78    76   ar
   100    79    77   ar
   101   111   108    1
   102    91    92    2
   103    76    75   ar
   104    77    75   ar
   105    75    74    1
   106    67    68    2
   107    74    71    1
   108   102   104   ar
   109   102   100   ar
   110   108   107    1
   111   108   109    1
   112   104   105   ar
   113   107    97   am
   114   109   110    2
   115    99   100    1
   116    99    96    1
   117   100   101   ar
   118   106   105    1
   119   105   103   ar
   120    97    96    1
   121    97    98    2
   122    71    72    1
   123    71    70    1
   124    96    95    1
   125    72    73    2
   126   101   103   ar
