@<TRIPOS>MOLECULE
tmp/5lvrA00.pdb
 112 111 0 0 0
SMALL
GASTEIGER

@<TRIPOS>ATOM
      1  N         -8.1380   24.4230   85.5650 N.3    23  TRP23      -0.1228
      2  CA        -8.5850   23.0140   85.7750 C.3    23  TRP23       0.1722
      3  C         -8.6590   22.1880   84.4880 C.2    23  TRP23       0.2437
      4  O         -8.4080   21.0370   84.5300 O.2    23  TRP23      -0.2733
      5  CB        -9.9210   22.9810   86.5380 C.3    23  TRP23       0.0563
      6  CG       -11.0690   23.6730   85.8740 C.ar   23  TRP23       0.0003
      7  CD1      -11.4570   24.9630   86.0500 C.ar   23  TRP23       0.0946
      8  CD2      -11.9750   23.1150   84.9210 C.ar   23  TRP23       0.0152
      9  NE1      -12.5250   25.2520   85.2590 N.ar   23  TRP23      -0.2442
     10  CE2      -12.8850   24.1350   84.5630 C.ar   23  TRP23       0.0810
     11  CE3      -12.0950   21.8710   84.3110 C.ar   23  TRP23       0.0012
     12  CZ2      -13.9130   23.9340   83.6330 C.ar   23  TRP23       0.0191
     13  CZ3      -13.0940   21.6810   83.3810 C.ar   23  TRP23       0.0001
     14  CH2      -14.0130   22.6770   83.0830 C.ar   23  TRP23       0.0015
     15  N         -8.9420   22.8040   83.3050 N.am   24  PRO24      -0.2718
     16  CA        -8.9620   21.9490   82.1200 C.3    24  PRO24       0.1535
     17  C         -7.5940   21.4460   81.6750 C.2    24  PRO24       0.2598
     18  O         -7.4990   20.5690   80.7780 O.2    24  PRO24      -0.2715
     19  CB        -9.4910   22.8890   81.0330 C.3    24  PRO24       0.0310
     20  CG       -10.2230   23.9680   81.7600 C.3    24  PRO24       0.0237
     21  CD        -9.4200   24.1620   83.0090 C.3    24  PRO24       0.0939
     22  N         -6.5530   22.0700   82.1970 N.am   25  PHE25      -0.1974
     23  CA        -5.1950   21.9150   81.6830 C.3    25  PHE25       0.1639
     24  C         -4.2660   21.1330   82.6500 C.2    25  PHE25       0.2290
     25  O         -3.0440   21.0760   82.4340 O.2    25  PHE25      -0.2864
     26  CB        -4.5890   23.3350   81.3660 C.3    25  PHE25       0.0560
     27  CG        -5.5400   24.2130   80.5930 C.ar   25  PHE25      -0.0200
     28  CD1       -5.9160   23.8510   79.3350 C.ar   25  PHE25      -0.0042
     29  CD2       -6.1620   25.3050   81.1810 C.ar   25  PHE25      -0.0042
     30  CE1       -6.8560   24.5800   78.6530 C.ar   25  PHE25      -0.0003
     31  CE2       -7.0740   26.0870   80.4840 C.ar   25  PHE25      -0.0003
     32  CZ        -7.4300   25.7220   79.2080 C.ar   25  PHE25      -0.0000
     33  N         -3.9510   18.0250   83.5720 N.3    27  GLU27      -0.1245
     34  CA        -3.4100   16.7380   83.1940 C.3    27  GLU27       0.1567
     35  C         -3.6110   16.4470   81.7430 C.2    27  GLU27       0.2260
     36  O         -4.4590   17.0610   81.1520 O.2    27  GLU27      -0.2867
     37  CB        -4.1660   15.6330   84.0000 C.3    27  GLU27       0.0388
     38  CG        -3.7740   15.6270   85.4600 C.3    27  GLU27       0.1160
     39  CD        -4.4630   14.5220   86.2480 C.2    27  GLU27       0.3649
     40  OE1       -4.9060   13.5040   85.6450 O.co2  27  GLU27      -0.2457
     41  OE2       -4.5770   14.6980   87.4820 O.co2  27  GLU27      -0.2457
     42  N         -4.9040   15.2550   78.2630 N.3    29  VAL29      -0.1245
     43  CA        -6.2200   14.9640   77.7230 C.3    29  VAL29       0.1561
     44  C         -6.3440   13.4490   77.4960 C.2    29  VAL29       0.2260
     45  O         -5.4280   12.8410   76.9240 O.2    29  VAL29      -0.2867
     46  CB        -6.4100   15.6880   76.3700 C.3    29  VAL29       0.0252
     47  CG1       -7.7330   15.2780   75.7070 C.3    29  VAL29       0.0019
     48  CG2       -6.3600   17.1890   76.5900 C.3    29  VAL29       0.0019
     49  N        -12.1420   10.7420   76.4630 N.3    33  GLU33      -0.1231
     50  CA       -12.9400   11.9610   76.5750 C.3    33  GLU33       0.1699
     51  C        -12.8400   12.8790   75.3730 C.2    33  GLU33       0.2592
     52  O        -13.5390   13.8850   75.3180 O.2    33  GLU33      -0.2718
     53  CB       -12.5190   12.7620   77.7950 C.3    33  GLU33       0.0402
     54  CG       -12.5190   11.9740   79.0860 C.3    33  GLU33       0.1161
     55  CD       -12.0850   12.8450   80.2510 C.2    33  GLU33       0.3649
     56  OE1      -11.2010   13.7190   80.0710 O.co2  33  GLU33      -0.2457
     57  OE2      -12.6410   12.6770   81.3520 O.co2  33  GLU33      -0.2457
     58  N        -11.9410   12.6290   74.4330 N.am   34  ALA34      -0.1980
     59  CA       -11.8510   13.5920   73.3460 C.3    34  ALA34       0.1597
     60  C        -11.6000   13.0390   71.9850 C.2    34  ALA34       0.2287
     61  O        -10.4350   12.9400   71.5620 O.2    34  ALA34      -0.2864
     62  CB       -10.8380   14.6790   73.6670 C.3    34  ALA34       0.0319
     63  N         -8.7250   13.6150   69.3710 N.3    37  TYR37      -0.1241
     64  CA        -7.8740   14.6840   69.8890 C.3    37  TYR37       0.1605
     65  C         -6.4520   14.5420   69.3490 C.2    37  TYR37       0.2264
     66  O         -5.9100   15.4840   68.7620 O.2    37  TYR37      -0.2867
     67  CB        -7.8200   14.6890   71.4140 C.3    37  TYR37       0.0534
     68  CG        -7.0660   15.8830   71.9900 C.ar   37  TYR37      -0.0201
     69  CD1       -5.7210   15.7890   72.3560 C.ar   37  TYR37      -0.0009
     70  CD2       -7.7210   17.0980   72.1920 C.ar   37  TYR37      -0.0009
     71  CE1       -5.0430   16.8820   72.8950 C.ar   37  TYR37       0.0417
     72  CE2       -7.0580   18.1940   72.7330 C.ar   37  TYR37       0.0417
     73  CZ        -5.7250   18.0950   73.0850 C.ar   37  TYR37       0.1957
     74  OH        -5.0860   19.1890   73.6310 O.3    37  TYR37      -0.2866
     75  N         -5.8290   23.9120   73.1670 N.3    76  CYS76      -0.1235
     76  CA        -7.2120   24.0310   73.6170 C.3    76  CYS76       0.1677
     77  C         -8.0710   24.8270   72.5850 C.2    76  CYS76       0.2270
     78  O         -9.2040   24.4290   72.2350 O.2    76  CYS76      -0.2867
     79  CB        -7.2190   24.7210   74.9450 C.3    76  CYS76       0.0956
     80  SG        -8.8590   24.8720   75.5580 S.3    76  CYS76      -0.0801
     81  N         -8.9100   23.0040   69.3400 N.3    79  TYR79      -0.1227
     82  CA        -9.7130   21.8090   69.3930 C.3    79  TYR79       0.1736
     83  C        -11.1250   22.1310   69.8090 C.2    79  TYR79       0.2595
     84  O        -12.0540   21.6160   69.2270 O.2    79  TYR79      -0.2718
     85  CB        -9.1300   20.8100   70.3590 C.3    79  TYR79       0.0548
     86  CG        -9.9050   19.5210   70.3870 C.ar   79  TYR79      -0.0200
     87  CD1       -9.7860   18.5990   69.3290 C.ar   79  TYR79      -0.0009
     88  CD2      -10.7610   19.2030   71.4660 C.ar   79  TYR79      -0.0009
     89  CE1      -10.5010   17.3970   69.3410 C.ar   79  TYR79       0.0417
     90  CE2      -11.4680   18.0050   71.4830 C.ar   79  TYR79       0.0417
     91  CZ       -11.3460   17.1200   70.4090 C.ar   79  TYR79       0.1957
     92  OH       -12.0400   15.9310   70.4420 O.3    79  TYR79      -0.2866
     93  N        -11.3000   22.9940   70.8020 N.am   80  ASN80      -0.1974
     94  CA       -12.6430   23.2650   71.3350 C.3    80  ASN80       0.1688
     95  C        -13.4300   24.4090   70.6070 C.2    80  ASN80       0.2292
     96  O        -12.8090   25.3140   70.0820 O.2    80  ASN80      -0.2864
     97  CB       -12.4750   23.5980   72.7910 C.3    80  ASN80       0.1181
     98  CG       -11.8750   22.4160   73.5620 C.2    80  ASN80       0.2629
     99  OD1      -12.5290   21.4510   73.7420 O.2    80  ASN80      -0.2716
    100  ND2      -10.6010   22.4790   73.9050 N.am   80  ASN80      -0.0877
    101  N        -14.0290   25.5770   77.9340 N.3    86  TYR86      -0.1241
    102  CA       -12.5880   25.3180   77.8490 C.3    86  TYR86       0.1605
    103  C        -11.8940   26.4580   77.1340 C.2    86  TYR86       0.2264
    104  O        -10.8670   26.9330   77.5910 O.2    86  TYR86      -0.2867
    105  CB       -12.3020   24.0300   77.1020 C.3    86  TYR86       0.0534
    106  CG       -12.8070   22.7570   77.7420 C.ar   86  TYR86      -0.0201
    107  CD1      -12.6230   22.5080   79.0740 C.ar   86  TYR86      -0.0009
    108  CD2      -13.4430   21.7880   76.9680 C.ar   86  TYR86      -0.0009
    109  CE1      -13.1080   21.3270   79.6630 C.ar   86  TYR86       0.0417
    110  CE2      -13.9090   20.5960   77.5190 C.ar   86  TYR86       0.0417
    111  CZ       -13.7400   20.3720   78.8570 C.ar   86  TYR86       0.1957
    112  OH       -14.2130   19.1780   79.3270 O.3    86  TYR86      -0.2866
@<TRIPOS>BOND
     1    66    65    2
     2    84    83    2
     3    87    89   ar
     4    87    86   ar
     5    81    82    1
     6    89    91   ar
     7    65    64    1
     8    63    64    1
     9    82    83    1
    10    82    85    1
    11    83    93   am
    12    64    67    1
    13    96    95    2
    14    85    86    1
    15    86    88   ar
    16    91    92    1
    17    91    90   ar
    18    95    94    1
    19    93    94    1
    20    94    97    1
    21    67    68    1
    22    88    90   ar
    23    61    60    2
    24    60    59    1
    25    68    70   ar
    26    68    69   ar
    27    70    72   ar
    28    78    77    2
    29    69    71   ar
    30    77    76    1
    31    72    73   ar
    32    97    98    1
    33    71    73   ar
    34    73    74    1
    35    75    76    1
    36    59    62    1
    37    59    58    1
    38    98    99    2
    39    98   100   am
    40    76    79    1
    41    58    51   am
    42    79    80    1
    43    52    51    2
    44    51    50    1
    45    47    46    1
    46    46    48    1
    47    46    43    1
    48    49    50    1
    49    50    53    1
    50    45    44    2
    51   108   110   ar
    52   108   106   ar
    53   105   106    1
    54   105   102    1
    55   103   104    2
    56   103   102    1
    57    44    43    1
    58   110   111   ar
    59    43    42    1
    60   106   107   ar
    61    53    54    1
    62   102   101    1
    63    30    32   ar
    64    30    28   ar
    65   111   112    1
    66   111   109   ar
    67   107   109   ar
    68    54    55    1
    69    32    31   ar
    70    28    27   ar
    71    56    55   ar
    72    55    57   ar
    73    31    29   ar
    74    27    29   ar
    75    27    26    1
    76    18    17    2
    77    19    20    1
    78    19    16    1
    79    36    35    2
    80    26    23    1
    81    17    16    1
    82    17    22   am
    83    23    22    1
    84    23    24    1
    85    35    34    1
    86    20    21    1
    87    16    15    1
    88    25    24    2
    89    21    15    1
    90    14    13   ar
    91    14    12   ar
    92    34    33    1
    93    34    37    1
    94    15     3   am
    95    13    11   ar
    96    12    10   ar
    97    37    38    1
    98    11     8   ar
    99     3     4    2
   100     3     2    1
   101    10     8   ar
   102    10     9   ar
   103     8     6   ar
   104     9     7   ar
   105    38    39    1
   106     1     2    1
   107    40    39   ar
   108     2     5    1
   109     6     7   ar
   110     6     5    1
   111    39    41   ar
