@<TRIPOS>MOLECULE
tmp/5lvsB01.pdb
 140 137 0 0 0
SMALL
GASTEIGER

@<TRIPOS>ATOM
      1  N        -27.2440   -9.2870  -11.3230 N.3    19  PHE19      -0.1241
      2  CA       -26.9640   -9.6440  -12.7020 C.3    19  PHE19       0.1605
      3  C        -26.3050  -11.0250  -12.7470 C.2    19  PHE19       0.2264
      4  O        -25.0880  -11.1480  -12.8880 O.2    19  PHE19      -0.2867
      5  CB       -26.0600   -8.5870  -13.3700 C.3    19  PHE19       0.0534
      6  CG       -26.6320   -7.2120  -13.3250 C.ar   19  PHE19      -0.0203
      7  CD1      -27.5930   -6.8020  -14.2630 C.ar   19  PHE19      -0.0042
      8  CD2      -26.2930   -6.3420  -12.2900 C.ar   19  PHE19      -0.0042
      9  CE1      -28.1460   -5.5240  -14.1860 C.ar   19  PHE19      -0.0003
     10  CE2      -26.8670   -5.0860  -12.1940 C.ar   19  PHE19      -0.0003
     11  CZ       -27.7830   -4.6720  -13.1370 C.ar   19  PHE19      -0.0000
     12  N        -20.7340    5.0980  -29.5470 N.3    91  GLN91      -0.1245
     13  CA       -20.0710    5.8860  -28.4840 C.3    91  GLN91       0.1566
     14  C        -18.6870    5.3070  -28.2350 C.2    91  GLN91       0.2260
     15  O        -18.4230    4.1550  -28.5780 O.2    91  GLN91      -0.2867
     16  CB       -20.8620    5.8740  -27.1620 C.3    91  GLN91       0.0367
     17  CG       -21.1860    4.4820  -26.6420 C.3    91  GLN91       0.0905
     18  CD       -20.4040    4.0420  -25.4060 C.2    91  GLN91       0.2608
     19  OE1      -19.2520    4.3900  -25.2200 O.2    91  GLN91      -0.2717
     20  NE2      -21.0550    3.2030  -24.6100 N.am   91  GLN91      -0.0878
     21  N        -15.7160    5.2650  -24.8310 N.3    93  HIS93      -0.1241
     22  CA       -15.4310    5.6180  -23.4070 C.3    93  HIS93       0.1621
     23  C        -14.1430    4.9080  -23.0730 C.2    93  HIS93       0.2264
     24  O        -13.5950    4.1030  -23.8380 O.2    93  HIS93      -0.2867
     25  CB       -16.5610    5.1630  -22.4470 C.3    93  HIS93       0.0745
     26  CG       -16.7700    3.7060  -22.4900 C.ar   93  HIS93       0.0817
     27  ND1      -17.5830    3.1210  -23.4460 N.ar   93  HIS93      -0.2268
     28  CD2      -16.1830    2.6710  -21.8340 C.ar   93  HIS93       0.1154
     29  CE1      -17.5330    1.8170  -23.3260 C.ar   93  HIS93       0.1986
     30  NE2      -16.7110    1.5280  -22.3210 N.ar   93  HIS93      -0.2212
     31  N        -11.7890    3.0540  -19.6100 N.3    95  HIS95      -0.1241
     32  CA       -11.6270    2.5730  -18.2210 C.3    95  HIS95       0.1621
     33  C        -10.1940    2.9000  -17.8770 C.2    95  HIS95       0.2264
     34  O         -9.2550    2.7600  -18.6620 O.2    95  HIS95      -0.2867
     35  CB       -11.8730    1.0640  -18.1770 C.3    95  HIS95       0.0745
     36  CG       -13.2070    0.6530  -18.7170 C.ar   95  HIS95       0.0817
     37  ND1      -14.3050    0.4640  -17.9440 N.ar   95  HIS95      -0.2268
     38  CD2      -13.6400    0.4500  -20.0040 C.ar   95  HIS95       0.1154
     39  CE1      -15.3510    0.1310  -18.6490 C.ar   95  HIS95       0.1986
     40  NE2      -14.9570    0.1080  -19.9530 N.ar   95  HIS95      -0.2212
     41  N        -12.7000    1.8940  -25.3650 N.3   118  HIS118     -0.1241
     42  CA       -13.7080    1.0470  -25.9550 C.3   118  HIS118      0.1621
     43  C        -14.5400    1.8670  -26.9230 C.2   118  HIS118      0.2264
     44  O        -15.2650    2.7600  -26.5610 O.2   118  HIS118     -0.2867
     45  CB       -14.6370    0.4420  -24.8890 C.3   118  HIS118      0.0745
     46  CG       -13.9400   -0.5710  -24.0620 C.ar  118  HIS118      0.0817
     47  ND1      -14.4010   -0.9630  -22.8270 N.ar  118  HIS118     -0.2268
     48  CD2      -12.8000   -1.2520  -24.2560 C.ar  118  HIS118      0.1154
     49  CE1      -13.5790   -1.8570  -22.3130 C.ar  118  HIS118      0.1986
     50  NE2      -12.6010   -2.0740  -23.1690 N.ar  118  HIS118     -0.2212
     51  N        -17.5920    1.4790  -29.2650 N.3   120  VAL120     -0.1245
     52  CA       -18.7330    0.5760  -29.2000 C.3   120  VAL120      0.1561
     53  C        -19.5650    0.7050  -30.4660 C.2   120  VAL120      0.2260
     54  O        -19.9710    1.8200  -30.8080 O.2   120  VAL120     -0.2867
     55  CB       -19.5990    0.9140  -27.9570 C.3   120  VAL120      0.0252
     56  CG1      -20.8080   -0.0210  -27.8430 C.3   120  VAL120      0.0019
     57  CG2      -18.7690    0.8620  -26.6600 C.3   120  VAL120      0.0019
     58  N        -29.5580    0.0250  -31.4750 N.3   129  PHE129     -0.1241
     59  CA       -28.7400   -0.4920  -30.4100 C.3   129  PHE129      0.1605
     60  C        -29.5410   -1.3440  -29.4160 C.2   129  PHE129      0.2264
     61  O        -29.0720   -2.3930  -28.9920 O.2   129  PHE129     -0.2867
     62  CB       -28.0910    0.6680  -29.6700 C.3   129  PHE129      0.0534
     63  CG       -27.1450    0.2550  -28.5730 C.ar  129  PHE129     -0.0203
     64  CD1      -25.8330   -0.0290  -28.8500 C.ar  129  PHE129     -0.0042
     65  CD2      -27.5690    0.1530  -27.2800 C.ar  129  PHE129     -0.0042
     66  CE1      -24.9490   -0.3930  -27.8750 C.ar  129  PHE129     -0.0003
     67  CE2      -26.6950   -0.2320  -26.2640 C.ar  129  PHE129     -0.0003
     68  CZ       -25.3740   -0.4930  -26.5740 C.ar  129  PHE129     -0.0000
     69  N        -28.2870   -5.2670  -28.6650 N.3   133  VAL133     -0.1245
     70  CA       -27.7590   -5.7810  -27.4050 C.3   133  VAL133      0.1561
     71  C        -28.4020   -7.0820  -26.9280 C.2   133  VAL133      0.2260
     72  O        -27.8710   -7.7190  -26.0280 O.2   133  VAL133     -0.2867
     73  CB       -27.8300   -4.8020  -26.2060 C.3   133  VAL133      0.0252
     74  CG1      -26.9860   -3.6150  -26.4460 C.3   133  VAL133      0.0019
     75  CG2      -29.2430   -4.3940  -25.8330 C.3   133  VAL133      0.0019
     76  N        -17.0580   -4.3530  -30.0410 N.3   141  VAL141     -0.1245
     77  CA       -16.2890   -3.3840  -29.2770 C.3   141  VAL141      0.1561
     78  C        -14.8190   -3.4920  -29.6850 C.2   141  VAL141      0.2260
     79  O        -14.2300   -4.5570  -29.6050 O.2   141  VAL141     -0.2867
     80  CB       -16.4810   -3.4340  -27.7530 C.3   141  VAL141      0.0252
     81  CG1      -15.7260   -2.2970  -27.1040 C.3   141  VAL141      0.0019
     82  CG2      -17.9680   -3.3590  -27.4320 C.3   141  VAL141      0.0019
     83  N        -20.6160   -7.2820  -22.4930 N.3   196  LEU196     -0.1231
     84  CA       -20.4390   -5.9790  -21.8580 C.3   196  LEU196      0.1693
     85  C        -19.5970   -6.1690  -20.5990 C.2   196  LEU196      0.2593
     86  O        -19.8160   -7.1370  -19.8540 O.2   196  LEU196     -0.2718
     87  CB       -21.7710   -5.3400  -21.4940 C.3   196  LEU196      0.0284
     88  CG       -22.8260   -5.2260  -22.6110 C.3   196  LEU196      0.0019
     89  CD1      -24.0680   -4.5440  -22.0530 C.3   196  LEU196      0.0001
     90  CD2      -22.2880   -4.4270  -23.7760 C.3   196  LEU196      0.0001
     91  N        -18.7010   -5.2430  -20.3040 N.am  197  THR197     -0.1939
     92  CA       -17.8870   -5.3420  -19.0670 C.3   197  THR197      0.2028
     93  C        -18.5070   -4.5940  -17.9070 C.2   197  THR197      0.2643
     94  O        -17.9020   -4.5690  -16.8120 O.2   197  THR197     -0.2714
     95  CB       -16.4510   -4.8210  -19.2790 C.3   197  THR197      0.1808
     96  OG1      -16.4870   -3.4110  -19.4720 O.3   197  THR197     -0.2208
     97  CG2      -15.7590   -5.5560  -20.4140 C.3   197  THR197      0.0379
     98  N        -19.6900   -4.0400  -18.0670 N.am  198  THR198     -0.1937
     99  CA       -20.4570   -3.4260  -16.9960 C.3   198  THR198      0.2013
    100  C        -21.8600   -4.0260  -16.9910 C.2   198  THR198      0.2484
    101  O        -22.3510   -4.5000  -18.0360 O.2   198  THR198     -0.2729
    102  CB       -20.5910   -1.9140  -17.1470 C.3   198  THR198      0.1807
    103  OG1      -21.2260   -1.6290  -18.3930 O.3   198  THR198     -0.2208
    104  CG2      -19.2250   -1.2670  -17.1650 C.3   198  THR198      0.0379
    105  N        -22.5260   -3.9820  -15.8370 N.am  199  PRO199     -0.2715
    106  CA       -23.9230   -4.3730  -15.8240 C.3   199  PRO199      0.1521
    107  C        -24.6880   -3.6830  -16.9550 C.2   199  PRO199      0.2440
    108  O        -24.4960   -2.4670  -17.1450 O.2   199  PRO199     -0.2731
    109  CB       -24.3740   -3.9040  -14.4380 C.3   199  PRO199      0.0310
    110  CG       -23.1380   -4.1340  -13.5700 C.3   199  PRO199      0.0237
    111  CD       -22.0470   -3.6050  -14.4850 C.3   199  PRO199      0.0939
    112  N        -25.5520   -4.3900  -17.6630 N.am  200  PRO200     -0.2727
    113  CA       -26.0650   -5.7290  -17.3630 C.3   200  PRO200      0.1402
    114  C        -25.2460   -6.9270  -17.9050 C.2   200  PRO200      0.2269
    115  O        -25.7460   -8.0570  -17.8710 O.2   200  PRO200     -0.2865
    116  CB       -27.4550   -5.6970  -18.0140 C.3   200  PRO200      0.0296
    117  CG       -27.2690   -4.7770  -19.1760 C.3   200  PRO200      0.0237
    118  CD       -26.3140   -3.7200  -18.7470 C.3   200  PRO200      0.0939
    119  N        -24.3490   -8.2180  -20.6670 N.3   202  LEU202     -0.1245
    120  CA       -24.9610   -9.0360  -21.6990 C.3   202  LEU202      0.1561
    121  C        -23.9140   -9.6440  -22.6330 C.2   202  LEU202      0.2260
    122  O        -22.9400   -8.9670  -23.0110 O.2   202  LEU202     -0.2867
    123  CB       -25.9570   -8.2130  -22.5050 C.3   202  LEU202      0.0270
    124  CG       -27.1760   -7.6940  -21.7350 C.3   202  LEU202      0.0019
    125  CD1      -27.9590   -6.6470  -22.5190 C.3   202  LEU202      0.0001
    126  CD2      -28.0750   -8.8570  -21.2990 C.3   202  LEU202      0.0001
    127  N        -15.5380   -9.0520  -29.3710 N.3   207  TRP207     -0.1241
    128  CA       -14.4370   -8.2290  -28.9270 C.3   207  TRP207      0.1605
    129  C        -13.3370   -8.2440  -29.9470 C.2   207  TRP207      0.2264
    130  O        -12.9940   -9.3140  -30.4750 O.2   207  TRP207     -0.2867
    131  CB       -13.8960   -8.6920  -27.5590 C.3   207  TRP207      0.0550
    132  CG       -14.6750   -8.1150  -26.4770 C.ar  207  TRP207      0.0003
    133  CD1      -15.7310   -8.6890  -25.7950 C.ar  207  TRP207      0.0946
    134  CD2      -14.5450   -6.7980  -25.9700 C.ar  207  TRP207      0.0152
    135  NE1      -16.2520   -7.8010  -24.9170 N.ar  207  TRP207     -0.2442
    136  CE2      -15.5400   -6.6340  -24.9810 C.ar  207  TRP207      0.0810
    137  CE3      -13.6910   -5.7350  -26.2430 C.ar  207  TRP207      0.0012
    138  CZ2      -15.6860   -5.4540  -24.2700 C.ar  207  TRP207      0.0191
    139  CZ3      -13.8220   -4.5750  -25.5110 C.ar  207  TRP207      0.0001
    140  CH2      -14.8320   -4.4380  -24.5680 C.ar  207  TRP207      0.0015
@<TRIPOS>BOND
     1    58    59    1
     2    54    53    2
     3   130   129    2
     4    53    52    1
     5    59    62    1
     6    59    60    1
     7    76    77    1
     8   129   128    1
     9    78    79    2
    10    78    77    1
    11    62    63    1
    12    12    13    1
    13    60    61    2
    14   127   128    1
    15    77    80    1
    16    51    52    1
    17    52    55    1
    18   128   131    1
    19    64    63   ar
    20    64    66   ar
    21    69    70    1
    22    15    14    2
    23    63    65   ar
    24    13    14    1
    25    13    16    1
    26    55    56    1
    27    55    57    1
    28    66    68   ar
    29    80    82    1
    30    80    81    1
    31   131   132    1
    32    70    71    1
    33    70    73    1
    34    65    67   ar
    35    16    17    1
    36    71    72    2
    37    43    44    2
    38    43    42    1
    39    17    18    1
    40    68    67   ar
    41   132   134   ar
    42   132   133   ar
    43    74    73    1
    44   137   134   ar
    45   137   139   ar
    46    73    75    1
    47   134   136   ar
    48    42    41    1
    49    42    45    1
    50   133   135   ar
    51   139   140   ar
    52    18    19    2
    53    18    20   am
    54   136   135   ar
    55   136   138   ar
    56    45    46    1
    57    21    22    1
    58   140   138   ar
    59    48    46   ar
    60    48    50   ar
    61    46    47   ar
    62    24    23    2
    63    90    88    1
    64    27    29   ar
    65    27    26   ar
    66    22    23    1
    67    22    25    1
    68    29    30   ar
    69    50    49   ar
    70   122   121    2
    71    47    49   ar
    72   121   120    1
    73    88    89    1
    74    88    87    1
    75   125   124    1
    76   123   124    1
    77   123   120    1
    78    83    84    1
    79    26    25    1
    80    26    28   ar
    81    30    28   ar
    82    84    87    1
    83    84    85    1
    84   124   126    1
    85   120   119    1
    86    85    91   am
    87    85    86    2
    88    97    95    1
    89    91    92    1
    90    38    40   ar
    91    38    36   ar
    92    40    39   ar
    93    31    32    1
    94    96    95    1
    95    95    92    1
    96   117   118    1
    97   117   116    1
    98    92    93    1
    99   118   112    1
   100    36    35    1
   101    36    37   ar
   102    34    33    2
   103    39    37   ar
   104   103   102    1
   105    32    35    1
   106    32    33    1
   107    98    93   am
   108    98    99    1
   109   101   100    2
   110   116   113    1
   111    93    94    2
   112   114   115    2
   113   114   113    1
   114   112   113    1
   115   112   107   am
   116   104   102    1
   117   102    99    1
   118   108   107    2
   119    99   100    1
   120   100   105   am
   121   107   106    1
   122   105   106    1
   123   105   111    1
   124   106   109    1
   125   111   110    1
   126   109   110    1
   127     7     9   ar
   128     7     6   ar
   129     9    11   ar
   130     5     6    1
   131     5     2    1
   132     6     8   ar
   133    11    10   ar
   134     4     3    2
   135     3     2    1
   136     2     1    1
   137     8    10   ar
