@<TRIPOS>MOLECULE
tmp/5lvvA03.pdb
 81 74 0 0 0
SMALL
GASTEIGER

@<TRIPOS>ATOM
      1  N         -6.3580   41.1260  -28.9780 N.3     9  GLN9       -0.1231
      2  CA        -5.8550   41.5510  -30.2630 C.3     9  GLN9        0.1698
      3  C         -6.5830   42.7540  -30.8220 C.2     9  GLN9        0.2593
      4  O         -7.7480   42.9040  -30.5950 O.2     9  GLN9       -0.2718
      5  CB        -5.9530   40.4020  -31.2290 C.3     9  GLN9        0.0381
      6  CG        -5.2740   39.1730  -30.7040 C.3     9  GLN9        0.0905
      7  CD        -5.3860   38.0120  -31.6410 C.2     9  GLN9        0.2608
      8  OE1       -6.4510   37.4740  -31.8320 O.2     9  GLN9       -0.2717
      9  NE2       -4.2870   37.6320  -32.2340 N.am    9  GLN9       -0.0878
     10  N         -5.8950   43.6040  -31.5710 N.am   10  SER10      -0.1938
     11  CA        -6.5240   44.7780  -32.1600 C.3    10  SER10       0.2055
     12  C         -7.4850   44.3100  -33.2310 C.2    10  SER10       0.2643
     13  O         -7.3130   43.2530  -33.7850 O.2    10  SER10      -0.2714
     14  CB        -5.5130   45.8160  -32.6830 C.3    10  SER10       0.2130
     15  OG        -4.5570   45.3290  -33.6020 O.3    10  SER10      -0.2179
     16  N         -8.5180   45.0780  -33.4900 N.am   11  THR11      -0.1950
     17  CA        -9.4790   44.6780  -34.4760 C.3    11  THR11       0.1897
     18  C         -9.8910   45.8530  -35.3360 C.2    11  THR11       0.2313
     19  O         -9.8390   46.9720  -34.9120 O.2    11  THR11      -0.2863
     20  CB       -10.6930   44.0850  -33.7760 C.3    11  THR11       0.1794
     21  OG1      -11.5660   43.4960  -34.7390 O.3    11  THR11      -0.2208
     22  CG2      -11.4120   45.1540  -33.0220 C.3    11  THR11       0.0378
     23  N         -2.3460   49.8620  -40.0820 N.3   105  LYS105     -0.1231
     24  CA        -2.4180   49.6220  -38.6710 C.3   105  LYS105      0.1693
     25  C         -1.8460   48.2530  -38.4510 C.2   105  LYS105      0.2591
     26  O         -1.1240   48.0150  -37.5220 O.2   105  LYS105     -0.2718
     27  CB        -3.8740   49.6730  -38.2600 C.3   105  LYS105      0.0285
     28  CG        -4.1540   49.6540  -36.7800 C.3   105  LYS105      0.0035
     29  CD        -5.3270   48.7390  -36.5200 C.3   105  LYS105      0.0206
     30  CE        -5.8730   48.8760  -35.1220 C.3   105  LYS105      0.1093
     31  NZ        -7.3200   49.1470  -35.1680 N.3   105  LYS105     -0.1314
     32  N         -2.1770   47.3460  -39.3360 N.am  106  GLU106     -0.1979
     33  CA        -1.6830   45.9990  -39.2680 C.3   106  GLU106      0.1602
     34  C         -0.1840   45.9780  -39.4570 C.2   106  GLU106      0.2287
     35  O          0.4920   45.1040  -38.9720 O.2   106  GLU106     -0.2864
     36  CB        -2.3570   45.1410  -40.3050 C.3   106  GLU106      0.0415
     37  CG        -2.6100   43.7420  -39.8280 C.3   106  GLU106      0.1163
     38  CD        -3.7940   43.1070  -40.5000 C.2   106  GLU106      0.3649
     39  OE1       -4.8430   43.7580  -40.5850 O.co2 106  GLU106     -0.2457
     40  OE2       -3.6800   41.9510  -40.9340 O.co2 106  GLU106     -0.2457
     41  N          1.6170   48.2580  -38.3700 N.3   108  GLN108     -0.1245
     42  CA         2.1390   49.0120  -37.2680 C.3   108  GLN108      0.1566
     43  C          2.3250   50.4830  -37.5270 C.2   108  GLN108      0.2260
     44  O          2.9050   51.1700  -36.7160 O.2   108  GLN108     -0.2867
     45  CB         3.4610   48.4200  -36.8510 C.3   108  GLN108      0.0367
     46  CG         3.4840   46.9130  -36.9010 C.3   108  GLN108      0.0905
     47  CD         3.0350   46.3080  -35.6070 C.2   108  GLN108      0.2608
     48  OE1        2.3180   45.3220  -35.5890 O.2   108  GLN108     -0.2717
     49  NE2        3.4420   46.9080  -34.5110 N.am  108  GLN108     -0.0878
     50  N          0.7850   53.3390  -37.1310 N.3   110  VAL110     -0.1245
     51  CA        -0.3130   53.9970  -36.4750 C.3   110  VAL110      0.1561
     52  C         -0.5290   55.3970  -36.9830 C.2   110  VAL110      0.2260
     53  O         -1.6380   55.7910  -37.1940 O.2   110  VAL110     -0.2867
     54  CB        -0.1640   53.8940  -34.9400 C.3   110  VAL110      0.0252
     55  CG1       -0.7930   55.0450  -34.1790 C.3   110  VAL110      0.0019
     56  CG2       -0.7650   52.5950  -34.4690 C.3   110  VAL110      0.0019
     57  N         -8.3490   52.8330  -32.8840 N.3   137  ILE137     -0.1245
     58  CA        -7.0350   53.3530  -32.6840 C.3   137  ILE137      0.1561
     59  C         -6.9900   54.0490  -31.3520 C.2   137  ILE137      0.2260
     60  O         -6.0650   53.8840  -30.6090 O.2   137  ILE137     -0.2867
     61  CB        -6.6790   54.3140  -33.8190 C.3   137  ILE137      0.0252
     62  CG1       -6.3530   53.5350  -35.0730 C.3   137  ILE137      0.0019
     63  CG2       -5.4900   55.1830  -33.4800 C.3   137  ILE137      0.0019
     64  CD1       -5.0390   52.8170  -35.0080 C.3   137  ILE137      0.0001
     65  N         -6.9890   51.5130  -28.5620 N.3   140  ASP140     -0.1239
     66  CA        -5.7110   50.8680  -28.4110 C.3   140  ASP140      0.1674
     67  C         -4.7160   51.7950  -27.7660 C.2   140  ASP140      0.2266
     68  O         -3.8750   51.3810  -27.0210 O.2   140  ASP140     -0.2867
     69  CB        -5.2070   50.3780  -29.7460 C.3   140  ASP140      0.1410
     70  CG        -6.0890   49.3350  -30.3320 C.2   140  ASP140      0.3668
     71  OD1       -6.7770   48.6710  -29.5650 O.co2 140  ASP140     -0.2456
     72  OD2       -6.1160   49.1700  -31.5520 O.co2 140  ASP140     -0.2456
     73  N         -2.4790   39.9780  -27.6230 N.3   343  LYS343     -0.1245
     74  CA        -1.6820   40.8070  -28.4570 C.3   343  LYS343      0.1561
     75  C         -0.3980   40.1130  -28.7630 C.2   343  LYS343      0.2260
     76  O          0.2130   39.5380  -27.9020 O.2   343  LYS343     -0.2867
     77  CB        -1.3640   42.0920  -27.7250 C.3   343  LYS343      0.0271
     78  CG        -2.0590   43.2960  -28.2830 C.3   343  LYS343      0.0035
     79  CD        -1.6470   44.5390  -27.5400 C.3   343  LYS343      0.0206
     80  CE        -0.9080   45.5060  -28.4500 C.3   343  LYS343      0.1093
     81  NZ        -1.3440   45.4040  -29.8680 N.3   343  LYS343     -0.1314
@<TRIPOS>BOND
     1    40    38   ar
     2    39    38   ar
     3    38    37    1
     4    36    37    1
     5    36    33    1
     6    23    24    1
     7    34    33    1
     8    34    35    2
     9    32    33    1
    10    32    25   am
    11    24    25    1
    12    24    27    1
    13    25    26    2
    14    41    42    1
    15    27    28    1
    16    43    42    1
    17    43    44    2
    18    42    45    1
    19    53    52    2
    20    50    51    1
    21    52    51    1
    22    46    45    1
    23    46    47    1
    24    28    29    1
    25    29    30    1
    26    51    54    1
    27    47    48    2
    28    47    49   am
    29    18    19    2
    30    18    17    1
    31    31    30    1
    32    62    64    1
    33    62    61    1
    34    54    56    1
    35    54    55    1
    36    21    20    1
    37    17    20    1
    38    17    16    1
    39    61    63    1
    40    61    58    1
    41    13    12    2
    42    20    22    1
    43    15    14    1
    44    16    12   am
    45    12    11    1
    46    57    58    1
    47    58    59    1
    48    14    11    1
    49     9     7   am
    50    11    10    1
    51     8     7    2
    52     7     6    1
    53    10     3   am
    54    72    70   ar
    55    59    60    2
    56     5     6    1
    57     5     2    1
    58     3     4    2
    59     3     2    1
    60    70    69    1
    61    70    71   ar
    62     2     1    1
    63    81    80    1
    64    69    66    1
    65    75    74    1
    66    75    76    2
    67    65    66    1
    68    74    77    1
    69    74    73    1
    70    80    79    1
    71    66    67    1
    72    78    77    1
    73    78    79    1
    74    67    68    2
