@<TRIPOS>MOLECULE
tmp/5lvvA01.pdb
 145 139 0 0 0
SMALL
GASTEIGER

@<TRIPOS>ATOM
      1  N         -2.0170   41.5960  -19.9640 N.3     6  SER6       -0.1217
      2  CA        -2.6360   40.7850  -20.9710 C.3     6  SER6        0.1889
      3  C         -3.7140   41.6380  -21.6200 C.2     6  SER6        0.2288
      4  O         -4.5380   42.1890  -20.9330 O.2     6  SER6       -0.2866
      5  CB        -3.2440   39.5350  -20.3370 C.3     6  SER6        0.2089
      6  OG        -2.3030   38.6740  -19.7170 O.3     6  SER6       -0.2183
      7  N        -11.1620   36.9940  -26.0530 N.3   207  HIS207     -0.1241
      8  CA       -10.6880   37.4090  -24.7640 C.3   207  HIS207      0.1621
      9  C        -11.8300   38.0510  -24.0150 C.2   207  HIS207      0.2264
     10  O        -12.0160   37.8170  -22.8510 O.2   207  HIS207     -0.2867
     11  CB        -9.5760   38.4170  -24.9550 C.3   207  HIS207      0.0745
     12  CG        -8.8090   38.7270  -23.7170 C.ar  207  HIS207      0.0817
     13  ND1       -8.0120   37.8070  -23.0860 N.ar  207  HIS207     -0.2268
     14  CD2       -8.6970   39.8670  -23.0070 C.ar  207  HIS207      0.1154
     15  CE1       -7.4550   38.3610  -22.0320 C.ar  207  HIS207      0.1986
     16  NE2       -7.8540   39.6110  -21.9630 N.ar  207  HIS207     -0.2212
     17  N        -15.1980   36.3020  -21.8590 N.3   210  MET210     -0.1245
     18  CA       -15.1740   35.9300  -20.4760 C.3   210  MET210      0.1570
     19  C        -15.9020   36.9040  -19.5900 C.2   210  MET210      0.2261
     20  O        -16.2780   36.5610  -18.5030 O.2   210  MET210     -0.2867
     21  CB       -13.7430   35.7740  -20.0160 C.3   210  MET210      0.0387
     22  CG       -13.0570   37.0860  -19.7370 C.3   210  MET210      0.0595
     23  SD       -11.3010   36.9250  -19.4610 S.3   210  MET210     -0.1393
     24  CE       -10.8850   35.7180  -20.6940 C.3   210  MET210      0.0692
     25  N          5.6690   37.6270  -25.5680 N.3   263  ASP263     -0.1239
     26  CA         5.8920   38.1880  -24.2700 C.3   263  ASP263      0.1674
     27  C          7.2160   37.9770  -23.5730 C.2   263  ASP263      0.2266
     28  O          7.2830   38.1430  -22.3850 O.2   263  ASP263     -0.2867
     29  CB         4.7350   37.8030  -23.3720 C.3   263  ASP263      0.1410
     30  CG         3.4090   38.2370  -23.9310 C.2   263  ASP263      0.3668
     31  OD1        3.3330   39.3110  -24.5200 O.co2 263  ASP263     -0.2456
     32  OD2        2.4320   37.5060  -23.7970 O.co2 263  ASP263     -0.2456
     33  N          6.7350   41.7130  -19.6310 N.3   267  HIS267     -0.1227
     34  CA         5.3520   41.3990  -19.7110 C.3   267  HIS267      0.1737
     35  C          5.0780   40.4260  -18.6130 C.2   267  HIS267      0.2438
     36  O          5.9560   39.7340  -18.1840 O.2   267  HIS267     -0.2733
     37  CB         5.0070   40.8060  -21.0590 C.3   267  HIS267      0.0758
     38  CG         3.5490   40.5740  -21.2570 C.ar  267  HIS267      0.0818
     39  ND1        2.9340   39.3970  -20.9190 N.ar  267  HIS267     -0.2268
     40  CD2        2.5820   41.3710  -21.7510 C.ar  267  HIS267      0.1154
     41  CE1        1.6540   39.4740  -21.2070 C.ar  267  HIS267      0.1986
     42  NE2        1.4150   40.6620  -21.7130 N.ar  267  HIS267     -0.2212
     43  N          3.8400   40.3030  -18.1930 N.am  268  PRO268     -0.2718
     44  CA         3.4920   39.4140  -17.1040 C.3   268  PRO268      0.1535
     45  C          3.8950   37.9890  -17.3540 C.2   268  PRO268      0.2599
     46  O          4.1710   37.2960  -16.4140 O.2   268  PRO268     -0.2715
     47  CB         1.9890   39.5190  -17.0690 C.3   268  PRO268      0.0310
     48  CG         1.6930   40.8610  -17.5760 C.3   268  PRO268      0.0237
     49  CD         2.8910   41.4070  -18.2730 C.3   268  PRO268      0.0939
     50  N          3.9450   37.5620  -18.5910 N.am  269  THR269     -0.1951
     51  CA         4.3190   36.2090  -18.8690 C.3   269  THR269      0.1897
     52  C          5.7160   35.9180  -18.3920 C.2   269  THR269      0.2313
     53  O          5.9690   34.8950  -17.8190 O.2   269  THR269     -0.2863
     54  CB         4.2480   35.9630  -20.3630 C.3   269  THR269      0.1794
     55  OG1        2.9030   36.1210  -20.7830 O.3   269  THR269     -0.2208
     56  CG2        4.6800   34.5930  -20.6900 C.3   269  THR269      0.0378
     57  N          6.1390   35.6260  -14.7870 N.3   272  LEU272     -0.1245
     58  CA         5.7240   34.3680  -14.2420 C.3   272  LEU272      0.1561
     59  C          6.6390   33.1970  -14.5180 C.2   272  LEU272      0.2260
     60  O          6.9040   32.4300  -13.6450 O.2   272  LEU272     -0.2867
     61  CB         4.3300   34.0290  -14.7200 C.3   272  LEU272      0.0270
     62  CG         3.2340   35.0240  -14.4230 C.3   272  LEU272      0.0019
     63  CD1        2.0120   34.6670  -15.2180 C.3   272  LEU272      0.0001
     64  CD2        2.9040   35.0670  -12.9580 C.3   272  LEU272      0.0001
     65  N         -4.1680   36.8430  -27.8310 N.3   342  THR342     -0.1218
     66  CA        -3.6590   37.9670  -27.1050 C.3   342  THR342      0.1862
     67  C         -2.7700   38.7640  -28.0090 C.2   342  THR342      0.2287
     68  O         -2.3450   38.2820  -29.0230 O.2   342  THR342     -0.2866
     69  CB        -2.9000   37.5080  -25.8690 C.3   342  THR342      0.1770
     70  OG1       -2.6550   36.1030  -25.9630 O.3   342  THR342     -0.2211
     71  CG2       -3.7350   37.7380  -24.6760 C.3   342  THR342      0.0375
     72  N         -0.6390   28.7350  -19.9550 N.3   362  LEU362     -0.1231
     73  CA        -0.3960   29.9390  -19.1880 C.3   362  LEU362      0.1693
     74  C         -0.8510   31.3040  -19.6350 C.2   362  LEU362      0.2592
     75  O         -1.4940   32.0010  -18.8930 O.2   362  LEU362     -0.2718
     76  CB         1.0770   29.9890  -18.8410 C.3   362  LEU362      0.0284
     77  CG         1.4920   30.7580  -17.6000 C.3   362  LEU362      0.0019
     78  CD1        1.0700   30.0660  -16.3300 C.3   362  LEU362      0.0001
     79  CD2        2.9840   30.9320  -17.6110 C.3   362  LEU362      0.0001
     80  N         -0.4690   31.6920  -20.8340 N.am  363  GLY363     -0.1957
     81  CA        -0.7760   32.9930  -21.3830 C.3   363  GLY363      0.1869
     82  C         -2.1980   33.4170  -21.6270 C.2   363  GLY363      0.2309
     83  O         -2.5300   34.5590  -21.4300 O.2   363  GLY363     -0.2863
     84  N         -6.1480   32.6740  -20.7270 N.3   365  PRO365     -0.2116
     85  CA        -7.0640   31.9190  -19.8850 C.3   365  PRO365      0.1372
     86  C         -8.3640   31.5880  -20.5820 C.2   365  PRO365      0.2244
     87  O         -9.4070   32.0670  -20.2150 O.2   365  PRO365     -0.2868
     88  CB        -7.3040   32.8660  -18.7340 C.3   365  PRO365      0.0268
     89  CG        -7.1830   34.2060  -19.3290 C.3   365  PRO365      0.0207
     90  CD        -6.2370   34.1110  -20.4740 C.3   365  PRO365      0.0892
     91  N         -0.6870   27.3310  -12.8330 N.3   403  PHE403     -0.1241
     92  CA        -0.0820   28.6230  -12.5830 C.3   403  PHE403      0.1605
     93  C          1.2290   28.6140  -11.8190 C.2   403  PHE403      0.2264
     94  O          1.4740   27.7630  -10.9970 O.2   403  PHE403     -0.2867
     95  CB        -1.0740   29.5130  -11.8640 C.3   403  PHE403      0.0534
     96  CG        -1.2600   30.8360  -12.5050 C.ar  403  PHE403     -0.0203
     97  CD1       -2.1150   30.9850  -13.5510 C.ar  403  PHE403     -0.0042
     98  CD2       -0.5730   31.9210  -12.0680 C.ar  403  PHE403     -0.0042
     99  CE1       -2.2880   32.1970  -14.1480 C.ar  403  PHE403     -0.0003
    100  CE2       -0.7410   33.1340  -12.6610 C.ar  403  PHE403     -0.0003
    101  CZ        -1.6000   33.2750  -13.7030 C.ar  403  PHE403     -0.0000
    102  N        -11.6240   46.6650  -15.4540 N.3   533  TYR533     -0.1227
    103  CA       -12.5140   45.9510  -16.3230 C.3   533  TYR533      0.1736
    104  C        -12.9670   44.6340  -15.7540 C.2   533  TYR533      0.2595
    105  O        -13.9470   44.0900  -16.1670 O.2   533  TYR533     -0.2718
    106  CB       -11.8790   45.7820  -17.6870 C.3   533  TYR533      0.0548
    107  CG       -10.9250   44.6450  -17.8350 C.ar  533  TYR533     -0.0200
    108  CD1       -9.5940   44.8330  -17.6930 C.ar  533  TYR533     -0.0009
    109  CD2      -11.3630   43.4020  -18.1710 C.ar  533  TYR533     -0.0009
    110  CE1       -8.7200   43.8000  -17.8500 C.ar  533  TYR533      0.0417
    111  CE2      -10.4960   42.3650  -18.3300 C.ar  533  TYR533      0.0417
    112  CZ        -9.1760   42.5800  -18.1710 C.ar  533  TYR533      0.1957
    113  OH        -8.3060   41.5640  -18.3240 O.3   533  TYR533     -0.2866
    114  N        -12.2660   44.1420  -14.7620 N.am  534  LYS534     -0.1980
    115  CA       -12.6270   42.8920  -14.1500 C.3   534  LYS534      0.1596
    116  C        -13.7810   43.0240  -13.1730 C.2   534  LYS534      0.2287
    117  O        -14.2980   42.0470  -12.6890 O.2   534  LYS534     -0.2864
    118  CB       -11.4260   42.2750  -13.4960 C.3   534  LYS534      0.0298
    119  CG       -10.4430   41.6760  -14.4620 C.3   534  LYS534      0.0038
    120  CD        -9.1980   41.2690  -13.7220 C.3   534  LYS534      0.0206
    121  CE        -8.2630   40.4790  -14.5910 C.3   534  LYS534      0.1093
    122  NZ        -6.9550   40.2860  -13.9410 N.3   534  LYS534     -0.1314
    123  N        -13.5960   37.9190  -13.4910 N.3   609  CYS609     -0.1235
    124  CA       -12.3100   37.5260  -13.9820 C.3   609  CYS609      0.1677
    125  C        -11.4660   37.6570  -12.7550 C.2   609  CYS609      0.2270
    126  O        -11.4490   38.6940  -12.1450 O.2   609  CYS609     -0.2867
    127  CB       -11.7970   38.4040  -15.1040 C.3   609  CYS609      0.0956
    128  SG       -10.3740   37.6980  -15.9290 S.3   609  CYS609     -0.0801
    129  N         -4.9420   36.9760  -11.9310 N.3   612  HIS612     -0.1226
    130  CA        -4.1720   35.8050  -12.2190 C.3   612  HIS612      0.1752
    131  C         -2.7740   36.1140  -11.7990 C.2   612  HIS612      0.2596
    132  O         -2.3080   35.5780  -10.8310 O.2   612  HIS612     -0.2718
    133  CB        -4.2710   35.4890  -13.6810 C.3   612  HIS612      0.0759
    134  CG        -5.6620   35.2010  -14.1240 C.ar  612  HIS612      0.0818
    135  ND1       -6.0310   35.1760  -15.4400 N.ar  612  HIS612     -0.2268
    136  CD2       -6.7720   34.9050  -13.4200 C.ar  612  HIS612      0.1154
    137  CE1       -7.3110   34.8870  -15.5290 C.ar  612  HIS612      0.1986
    138  NE2       -7.7850   34.7250  -14.3160 N.ar  612  HIS612     -0.2212
    139  N         -2.0940   36.9580  -12.5420 N.am  613  THR613     -0.1953
    140  CA        -0.7770   37.3560  -12.1660 C.3   613  THR613      0.1897
    141  C         -0.9440   38.0950  -10.8850 C.2   613  THR613      0.2313
    142  O         -0.1910   37.9390   -9.9660 O.2   613  THR613     -0.2863
    143  CB        -0.1990   38.3430  -13.1650 C.3   613  THR613      0.1794
    144  OG1       -0.1990   37.7460  -14.4490 O.3   613  THR613     -0.2208
    145  CG2        1.1780   38.6750  -12.8010 C.3   613  THR613      0.0378
@<TRIPOS>BOND
     1    68    67    2
     2    67    66    1
     3    65    66    1
     4    66    69    1
     5     7     8    1
     6    70    69    1
     7    69    71    1
     8    25    26    1
     9    11     8    1
    10    11    12    1
    11     8     9    1
    12    31    30   ar
    13    26    27    1
    14    26    29    1
    15     9    10    2
    16    30    32   ar
    17    30    29    1
    18    12    13   ar
    19    12    14   ar
    20    27    28    2
    21    13    15   ar
    22    14    16   ar
    23    15    16   ar
    24    17    18    1
    25    40    42   ar
    26    40    38   ar
    27    42    41   ar
    28    82    83    2
    29    82    81    1
    30     3     2    1
    31     3     4    2
    32    81    80    1
    33    38    37    1
    34    38    39   ar
    35    41    39   ar
    36    37    34    1
    37     2     5    1
    38     2     1    1
    39    80    74   am
    40    55    54    1
    41    84    90    1
    42    84    85    1
    43    24    23    1
    44    56    54    1
    45    86    87    2
    46    86    85    1
    47    18    21    1
    48    18    19    1
    49    90    89    1
    50    54    51    1
    51     5     6    1
    52    21    22    1
    53    72    73    1
    54    85    88    1
    55    22    23    1
    56    34    33    1
    57    34    35    1
    58    74    73    1
    59    74    75    2
    60    19    20    2
    61    89    88    1
    62    73    76    1
    63    51    50    1
    64    51    52    1
    65    76    77    1
    66    35    43   am
    67    35    36    2
    68    50    45   am
    69    52    53    2
    70   111   109   ar
    71   111   112   ar
    72   113   112    1
    73    49    43    1
    74    49    48    1
    75    43    44    1
    76   109   107   ar
    77   112   110   ar
    78   110   108   ar
    79   107   108   ar
    80   107   106    1
    81   106   103    1
    82    79    77    1
    83    77    78    1
    84    48    47    1
    85    45    44    1
    86    45    46    2
    87    44    47    1
    88   103   104    1
    89   103   102    1
    90   105   104    2
    91   128   127    1
    92   104   114   am
    93   137   135   ar
    94   137   138   ar
    95   135   134   ar
    96    63    62    1
    97   127   124    1
    98    57    58    1
    99   114   115    1
   100    61    62    1
   101    61    58    1
   102   121   122    1
   103   121   120    1
   104    59    58    1
   105    59    60    2
   106   119   120    1
   107   119   118    1
   108   144   143    1
   109    62    64    1
   110   138   136   ar
   111   115   118    1
   112   115   116    1
   113    99   101   ar
   114    99    97   ar
   115   134   133    1
   116   134   136   ar
   117   124   123    1
   118   124   125    1
   119   101   100   ar
   120   133   130    1
   121    97    96   ar
   122   116   117    2
   123   143   145    1
   124   143   140    1
   125    91    92    1
   126   125   126    2
   127   100    98   ar
   128    92    95    1
   129    92    93    1
   130   139   140    1
   131   139   131   am
   132    96    98   ar
   133    96    95    1
   134   130   129    1
   135   130   131    1
   136   140   141    1
   137    93    94    2
   138   131   132    2
   139   141   142    2
