@<TRIPOS>MOLECULE
tmp/5lvvA00.pdb
 208 203 0 0 0
SMALL
GASTEIGER

@<TRIPOS>ATOM
      1  N          3.2090   50.1280  -18.2050 N.3     3  VAL3       -0.1231
      2  CA         2.9940   48.7680  -17.7500 C.3     3  VAL3        0.1678
      3  C          2.3880   47.8560  -18.7950 C.2     3  VAL3        0.2434
      4  O          1.4690   48.2360  -19.4800 O.2     3  VAL3       -0.2733
      5  CB         2.0650   48.7450  -16.5370 C.3     3  VAL3        0.0265
      6  CG1        2.8490   49.0150  -15.2770 C.3     3  VAL3        0.0020
      7  CG2        0.9590   49.7620  -16.7090 C.3     3  VAL3        0.0020
      8  N          2.8720   46.6390  -18.8990 N.am    4  PRO4       -0.2718
      9  CA         2.3440   45.6800  -19.8540 C.3     4  PRO4        0.1535
     10  C          1.3670   44.7880  -19.1510 C.2     4  PRO4        0.2599
     11  O          1.5030   44.6100  -17.9730 O.2     4  PRO4       -0.2715
     12  CB         3.5650   44.8900  -20.2220 C.3     4  PRO4        0.0310
     13  CG         4.3570   44.8790  -18.9790 C.3     4  PRO4        0.0237
     14  CD         4.1430   46.2010  -18.3330 C.3     4  PRO4        0.0939
     15  N          0.3910   44.2590  -19.8600 N.am    5  TYR5       -0.1960
     16  CA        -0.6090   43.4130  -19.2580 C.3     5  TYR5        0.1771
     17  C         -1.2320   42.5840  -20.3300 C.2     5  TYR5        0.2620
     18  O         -1.0040   42.8340  -21.4800 O.2     5  TYR5       -0.2715
     19  CB        -1.6520   44.2570  -18.5690 C.3     5  TYR5        0.0574
     20  CG        -2.0330   45.4710  -19.3290 C.ar    5  TYR5       -0.0198
     21  CD1       -2.9680   45.4050  -20.3200 C.ar    5  TYR5       -0.0009
     22  CD2       -1.4710   46.6870  -19.0530 C.ar    5  TYR5       -0.0009
     23  CE1       -3.3360   46.5130  -21.0170 C.ar    5  TYR5        0.0417
     24  CE2       -1.8350   47.8010  -19.7490 C.ar    5  TYR5        0.0417
     25  CZ        -2.7670   47.6980  -20.7300 C.ar    5  TYR5        0.1957
     26  OH        -3.1370   48.7930  -21.4350 O.3     5  TYR5       -0.2866
     27  N         -2.0170   41.5960  -19.9640 N.am    6  SER6       -0.1950
     28  CA        -2.6360   40.7850  -20.9710 C.3     6  SER6        0.1924
     29  C         -3.7140   41.6380  -21.6200 C.2     6  SER6        0.2314
     30  O         -4.5380   42.1890  -20.9330 O.2     6  SER6       -0.2863
     31  CB        -3.2440   39.5350  -20.3370 C.3     6  SER6        0.2116
     32  OG        -2.3030   38.6740  -19.7170 O.3     6  SER6       -0.2180
     33  N          3.8400   40.3030  -18.1930 N.3   268  PRO268     -0.2116
     34  CA         3.4920   39.4140  -17.1040 C.3   268  PRO268      0.1372
     35  C          3.8950   37.9890  -17.3540 C.2   268  PRO268      0.2244
     36  O          4.1710   37.2960  -16.4140 O.2   268  PRO268     -0.2868
     37  CB         1.9890   39.5190  -17.0690 C.3   268  PRO268      0.0268
     38  CG         1.6930   40.8610  -17.5760 C.3   268  PRO268      0.0207
     39  CD         2.8910   41.4070  -18.2730 C.3   268  PRO268      0.0892
     40  N          7.3010   37.5460  -16.1450 N.3   271  HIS271     -0.1241
     41  CA         7.3020   37.7130  -14.7230 C.3   271  HIS271      0.1621
     42  C          6.9100   36.4200  -14.0880 C.2   271  HIS271      0.2264
     43  O          7.2730   36.1550  -12.9790 O.2   271  HIS271     -0.2867
     44  CB         6.3570   38.8160  -14.3090 C.3   271  HIS271      0.0745
     45  CG         6.6540   40.1330  -14.9380 C.ar  271  HIS271      0.0817
     46  ND1        5.7770   41.1860  -14.8930 N.ar  271  HIS271     -0.2268
     47  CD2        7.7230   40.5660  -15.6360 C.ar  271  HIS271      0.1154
     48  CE1        6.2930   42.2100  -15.5330 C.ar  271  HIS271      0.1986
     49  NE2        7.4720   41.8590  -15.9950 N.ar  271  HIS271     -0.2212
     50  N         -0.6870   27.3310  -12.8330 N.3   403  PHE403     -0.1241
     51  CA        -0.0820   28.6230  -12.5830 C.3   403  PHE403      0.1605
     52  C          1.2290   28.6140  -11.8190 C.2   403  PHE403      0.2264
     53  O          1.4740   27.7630  -10.9970 O.2   403  PHE403     -0.2867
     54  CB        -1.0740   29.5130  -11.8640 C.3   403  PHE403      0.0534
     55  CG        -1.2600   30.8360  -12.5050 C.ar  403  PHE403     -0.0203
     56  CD1       -2.1150   30.9850  -13.5510 C.ar  403  PHE403     -0.0042
     57  CD2       -0.5730   31.9210  -12.0680 C.ar  403  PHE403     -0.0042
     58  CE1       -2.2880   32.1970  -14.1480 C.ar  403  PHE403     -0.0003
     59  CE2       -0.7410   33.1340  -12.6610 C.ar  403  PHE403     -0.0003
     60  CZ        -1.6000   33.2750  -13.7030 C.ar  403  PHE403     -0.0000
     61  N         -6.0650   44.8060   -6.7680 N.3   529  PHE529     -0.1227
     62  CA        -5.1410   45.4940   -7.6520 C.3   529  PHE529      0.1736
     63  C         -5.3120   45.1970   -9.1400 C.2   529  PHE529      0.2595
     64  O         -4.4620   45.4920   -9.9290 O.2   529  PHE529     -0.2718
     65  CB        -3.7070   45.2220   -7.2160 C.3   529  PHE529      0.0547
     66  CG        -3.3930   45.6780   -5.8320 C.ar  529  PHE529     -0.0202
     67  CD1       -3.9830   46.7870   -5.3070 C.ar  529  PHE529     -0.0042
     68  CD2       -2.4910   45.0030   -5.0690 C.ar  529  PHE529     -0.0042
     69  CE1       -3.6830   47.2110   -4.0400 C.ar  529  PHE529     -0.0003
     70  CE2       -2.1920   45.4160   -3.8040 C.ar  529  PHE529     -0.0003
     71  CZ        -2.7850   46.5250   -3.2890 C.ar  529  PHE529     -0.0000
     72  N         -6.4240   44.6110   -9.5100 N.am  530  ASN530     -0.1960
     73  CA        -6.7070   44.2670  -10.8840 C.3   530  ASN530      0.1819
     74  C         -7.0860   45.4490  -11.7400 C.2   530  ASN530      0.2621
     75  O         -7.2870   46.5260  -11.2520 O.2   530  ASN530     -0.2715
     76  CB        -7.8590   43.2910  -10.9240 C.3   530  ASN530      0.1195
     77  CG        -7.4450   41.8840  -10.6430 C.2   530  ASN530      0.2630
     78  OD1       -6.5100   41.3810  -11.2130 O.2   530  ASN530     -0.2716
     79  ND2       -8.1690   41.2330   -9.7790 N.am  530  ASN530     -0.0877
     80  N         -7.1820   45.2320  -13.0360 N.am  531  GLN531     -0.1977
     81  CA        -7.5940   46.2770  -13.9360 C.3   531  GLN531      0.1601
     82  C         -9.0700   46.4290  -13.6660 C.2   531  GLN531      0.2287
     83  O         -9.7310   45.4670  -13.3880 O.2   531  GLN531     -0.2864
     84  CB        -7.3290   45.8870  -15.3740 C.3   531  GLN531      0.0394
     85  CG        -5.8700   45.8600  -15.7440 C.3   531  GLN531      0.0908
     86  CD        -5.6450   45.7290  -17.2160 C.2   531  GLN531      0.2608
     87  OE1       -5.9050   46.6360  -17.9560 O.2   531  GLN531     -0.2717
     88  NE2       -5.1530   44.6070  -17.6370 N.am  531  GLN531     -0.0878
     89  N        -11.6240   46.6650  -15.4540 N.3   533  TYR533     -0.1227
     90  CA       -12.5140   45.9510  -16.3230 C.3   533  TYR533      0.1736
     91  C        -12.9670   44.6340  -15.7540 C.2   533  TYR533      0.2595
     92  O        -13.9470   44.0900  -16.1670 O.2   533  TYR533     -0.2718
     93  CB       -11.8790   45.7820  -17.6870 C.3   533  TYR533      0.0548
     94  CG       -10.9250   44.6450  -17.8350 C.ar  533  TYR533     -0.0200
     95  CD1       -9.5940   44.8330  -17.6930 C.ar  533  TYR533     -0.0009
     96  CD2      -11.3630   43.4020  -18.1710 C.ar  533  TYR533     -0.0009
     97  CE1       -8.7200   43.8000  -17.8500 C.ar  533  TYR533      0.0417
     98  CE2      -10.4960   42.3650  -18.3300 C.ar  533  TYR533      0.0417
     99  CZ        -9.1760   42.5800  -18.1710 C.ar  533  TYR533      0.1957
    100  OH        -8.3060   41.5640  -18.3240 O.3   533  TYR533     -0.2866
    101  N        -12.2660   44.1420  -14.7620 N.am  534  LYS534     -0.1980
    102  CA       -12.6270   42.8920  -14.1500 C.3   534  LYS534      0.1596
    103  C        -13.7810   43.0240  -13.1730 C.2   534  LYS534      0.2287
    104  O        -14.2980   42.0470  -12.6890 O.2   534  LYS534     -0.2864
    105  CB       -11.4260   42.2750  -13.4960 C.3   534  LYS534      0.0298
    106  CG       -10.4430   41.6760  -14.4620 C.3   534  LYS534      0.0038
    107  CD        -9.1980   41.2690  -13.7220 C.3   534  LYS534      0.0206
    108  CE        -8.2630   40.4790  -14.5910 C.3   534  LYS534      0.1093
    109  NZ        -6.9550   40.2860  -13.9410 N.3   534  LYS534     -0.1314
    110  N         -7.1120   50.6390   -7.7900 N.3   558  LEU558     -0.1245
    111  CA        -6.1830   51.3490   -8.6600 C.3   558  LEU558      0.1561
    112  C         -6.7720   52.1360   -9.8130 C.2   558  LEU558      0.2260
    113  O         -7.7880   51.7970  -10.3460 O.2   558  LEU558     -0.2867
    114  CB        -5.1760   50.3720   -9.2370 C.3   558  LEU558      0.0270
    115  CG        -4.3700   49.5640   -8.2480 C.3   558  LEU558      0.0019
    116  CD1       -3.3810   48.7050   -8.9830 C.3   558  LEU558      0.0001
    117  CD2       -3.6670   50.5040   -7.3080 C.3   558  LEU558      0.0001
    118  N         -6.6610   52.2590  -12.8460 N.3   560  PHE560     -0.1241
    119  CA        -6.2930   51.3540  -13.8910 C.3   560  PHE560      0.1605
    120  C         -7.4710   51.0500  -14.8100 C.2   560  PHE560      0.2264
    121  O         -7.9730   49.9550  -14.7890 O.2   560  PHE560     -0.2867
    122  CB        -5.8400   50.0840  -13.1620 C.3   560  PHE560      0.0534
    123  CG        -4.8180   49.2760  -13.8710 C.ar  560  PHE560     -0.0203
    124  CD1       -4.4410   49.5570  -15.1430 C.ar  560  PHE560     -0.0042
    125  CD2       -4.2480   48.2120  -13.2420 C.ar  560  PHE560     -0.0042
    126  CE1       -3.5060   48.7930  -15.7760 C.ar  560  PHE560     -0.0003
    127  CE2       -3.3090   47.4480  -13.8660 C.ar  560  PHE560     -0.0003
    128  CZ        -2.9360   47.7420  -15.1380 C.ar  560  PHE560     -0.0000
    129  N         -1.2420   53.2690  -10.5210 N.3   587  VAL587     -0.1231
    130  CA        -0.5710   52.0550  -10.8860 C.3   587  VAL587      0.1692
    131  C          0.8780   52.3000  -10.5790 C.2   587  VAL587      0.2591
    132  O          1.3400   53.4010  -10.6720 O.2   587  VAL587     -0.2718
    133  CB        -0.7830   51.7520  -12.3590 C.3   587  VAL587      0.0266
    134  CG1        0.2280   50.7660  -12.8840 C.3   587  VAL587      0.0020
    135  CG2       -2.1600   51.2000  -12.5590 C.3   587  VAL587      0.0020
    136  N          1.5890   51.2680  -10.2010 N.am  588  ALA588     -0.1980
    137  CA         2.9550   51.4410   -9.8180 C.3   588  ALA588      0.1597
    138  C          3.9050   50.5060  -10.4750 C.2   588  ALA588      0.2287
    139  O          3.5190   49.5440  -11.0780 O.2   588  ALA588     -0.2864
    140  CB         3.0710   51.3070   -8.3240 C.3   588  ALA588      0.0319
    141  N          6.4430   47.5430  -10.9280 N.3   590  LYS590     -0.1245
    142  CA         6.1790   46.2110  -10.5140 C.3   590  LYS590      0.1561
    143  C          6.6110   45.8670   -9.1280 C.2   590  LYS590      0.2260
    144  O          5.8650   45.2500   -8.4190 O.2   590  LYS590     -0.2867
    145  CB         6.8790   45.3030  -11.4820 C.3   590  LYS590      0.0271
    146  CG         6.7090   43.8540  -11.1910 C.3   590  LYS590      0.0035
    147  CD         5.4700   43.3370  -11.8410 C.3   590  LYS590      0.0206
    148  CE         5.2760   41.9080  -11.4500 C.3   590  LYS590      0.1093
    149  NZ         4.4030   41.2430  -12.4170 N.3   590  LYS590     -0.1314
    150  N          4.4250   47.6020   -6.5310 N.3   593  HIS593     -0.1241
    151  CA         3.0970   47.0540   -6.5410 C.3   593  HIS593      0.1621
    152  C          3.0470   45.8020   -5.6930 C.2   593  HIS593      0.2264
    153  O          2.1230   45.6080   -4.9420 O.2   593  HIS593     -0.2867
    154  CB         2.6630   46.8090   -7.9960 C.3   593  HIS593      0.0745
    155  CG         1.7290   45.6570   -8.1980 C.ar  593  HIS593      0.0817
    156  ND1        0.4000   45.7090   -7.8630 N.ar  593  HIS593     -0.2268
    157  CD2        1.9390   44.4260   -8.6960 C.ar  593  HIS593      0.1154
    158  CE1       -0.1690   44.5630   -8.1620 C.ar  593  HIS593      0.1986
    159  NE2        0.7460   43.7660   -8.6580 N.ar  593  HIS593     -0.2212
    160  N          3.6160   46.8990   -1.8720 N.3   596  ARG596     -0.1245
    161  CA         2.5620   47.6000   -1.1700 C.3   596  ARG596      0.1563
    162  C          1.4200   46.6850   -0.7680 C.2   596  ARG596      0.2260
    163  O          0.5740   47.0440    0.0000 O.2   596  ARG596     -0.2867
    164  CB         2.1220   48.8720   -1.8840 C.3   596  ARG596      0.0307
    165  CG         1.3820   48.6910   -3.1830 C.3   596  ARG596      0.0489
    166  CD         1.3350   49.9630   -3.9850 C.3   596  ARG596      0.2205
    167  NE         0.6840   49.7590   -5.2600 N.pl3 596  ARG596     -0.0865
    168  CZ         0.2570   50.7310   -6.0400 C.cat 596  ARG596      0.5346
    169  NH1        0.4050   51.9750   -5.6800 N.pl3 596  ARG596      0.1354
    170  NH2       -0.3250   50.4540   -7.1750 N.pl3 596  ARG596      0.1354
    171  N        -13.5960   37.9190  -13.4910 N.3   609  CYS609     -0.1235
    172  CA       -12.3100   37.5260  -13.9820 C.3   609  CYS609      0.1677
    173  C        -11.4660   37.6570  -12.7550 C.2   609  CYS609      0.2270
    174  O        -11.4490   38.6940  -12.1450 O.2   609  CYS609     -0.2867
    175  CB       -11.7970   38.4040  -15.1040 C.3   609  CYS609      0.0956
    176  SG       -10.3740   37.6980  -15.9290 S.3   609  CYS609     -0.0801
    177  N         -4.9420   36.9760  -11.9310 N.3   612  HIS612     -0.1226
    178  CA        -4.1720   35.8050  -12.2190 C.3   612  HIS612      0.1752
    179  C         -2.7740   36.1140  -11.7990 C.2   612  HIS612      0.2597
    180  O         -2.3080   35.5780  -10.8310 O.2   612  HIS612     -0.2718
    181  CB        -4.2710   35.4890  -13.6810 C.3   612  HIS612      0.0759
    182  CG        -5.6620   35.2010  -14.1240 C.ar  612  HIS612      0.0818
    183  ND1       -6.0310   35.1760  -15.4400 N.ar  612  HIS612     -0.2268
    184  CD2       -6.7720   34.9050  -13.4200 C.ar  612  HIS612      0.1154
    185  CE1       -7.3110   34.8870  -15.5290 C.ar  612  HIS612      0.1986
    186  NE2       -7.7850   34.7250  -14.3160 N.ar  612  HIS612     -0.2212
    187  N         -2.0940   36.9580  -12.5420 N.am  613  THR613     -0.1939
    188  CA        -0.7770   37.3560  -12.1660 C.3   613  THR613      0.2028
    189  C         -0.9440   38.0950  -10.8850 C.2   613  THR613      0.2642
    190  O         -0.1910   37.9390   -9.9660 O.2   613  THR613     -0.2714
    191  CB        -0.1990   38.3430  -13.1650 C.3   613  THR613      0.1808
    192  OG1       -0.1990   37.7460  -14.4490 O.3   613  THR613     -0.2208
    193  CG2        1.1780   38.6750  -12.8010 C.3   613  THR613      0.0379
    194  N         -1.9740   38.9050  -10.8550 N.am  614  THR614     -0.1950
    195  CA        -2.2640   39.7460   -9.7340 C.3   614  THR614      0.1897
    196  C         -2.4920   38.9190   -8.5240 C.2   614  THR614      0.2313
    197  O         -2.1020   39.2960   -7.4580 O.2   614  THR614     -0.2863
    198  CB        -3.4590   40.6370  -10.0230 C.3   614  THR614      0.1794
    199  OG1       -3.2890   41.2030  -11.3080 O.3   614  THR614     -0.2208
    200  CG2       -3.5150   41.7500   -9.0690 C.3   614  THR614      0.0378
    201  N          0.7300   38.0240   -7.2020 N.3   617  ASP617     -0.1239
    202  CA         1.3830   39.1690   -6.6380 C.3   617  ASP617      0.1674
    203  C          0.9140   39.4160   -5.2480 C.2   617  ASP617      0.2266
    204  O          1.6840   39.7600   -4.3920 O.2   617  ASP617     -0.2867
    205  CB         1.0860   40.4290   -7.4470 C.3   617  ASP617      0.1410
    206  CG         1.7360   40.4400   -8.7820 C.2   617  ASP617      0.3668
    207  OD1        2.6250   39.6340   -9.0280 O.co2 617  ASP617     -0.2456
    208  OD2        1.3520   41.2740   -9.5990 O.co2 617  ASP617     -0.2456
@<TRIPOS>BOND
     1    29    28    1
     2    29    30    2
     3    18    17    2
     4    26    25    1
     5    23    25   ar
     6    23    21   ar
     7    28    31    1
     8    28    27    1
     9    25    24   ar
    10    31    32    1
    11    17    27   am
    12    17    16    1
    13    21    20   ar
    14    12     9    1
    15    12    13    1
    16    15    16    1
    17    15    10   am
    18     9    10    1
    19     9     8    1
    20    24    22   ar
    21     4     3    2
    22    20    22   ar
    23    20    19    1
    24    16    19    1
    25    10    11    2
    26    13    14    1
    27     8     3   am
    28     8    14    1
    29     3     2    1
    30    98    96   ar
    31    98    99   ar
    32   100    99    1
    33    39    33    1
    34    39    38    1
    35     1     2    1
    36    33    34    1
    37    96    94   ar
    38    99    97   ar
    39    87    86    2
    40    97    95   ar
    41    94    95   ar
    42    94    93    1
    43     2     5    1
    44    93    90    1
    45    88    86   am
    46    38    37    1
    47    35    34    1
    48    35    36    2
    49    86    85    1
    50    34    37    1
    51     7     5    1
    52     5     6    1
    53    90    91    1
    54    90    89    1
    55    92    91    2
    56    40    41    1
    57    49    47   ar
    58    49    48   ar
    59   176   175    1
    60   126   124   ar
    61   126   128   ar
    62    91   101   am
    63    85    84    1
    64    47    45   ar
    65    48    46   ar
    66   185   183   ar
    67   185   186   ar
    68   183   182   ar
    69    84    81    1
    70   124   123   ar
    71   128   127   ar
    72   175   172    1
    73    45    46   ar
    74    45    44    1
    75   120   121    2
    76   120   119    1
    77   101   102    1
    78    41    44    1
    79    41    42    1
    80   108   109    1
    81   108   107    1
    82   106   107    1
    83   106   105    1
    84   192   191    1
    85   186   184   ar
    86   102   105    1
    87   102   103    1
    88    58    60   ar
    89    58    56   ar
    90   182   181    1
    91   182   184   ar
    92    42    43    2
    93   172   171    1
    94   172   173    1
    95    81    82    1
    96    81    80    1
    97   119   122    1
    98   119   118    1
    99   123   125   ar
   100   123   122    1
   101   127   125   ar
   102    60    59   ar
   103   181   178    1
   104    82    83    2
   105    56    55   ar
   106   103   104    2
   107   191   193    1
   108   191   188    1
   109    80    74   am
   110   134   133    1
   111    50    51    1
   112   173   174    2
   113    59    57   ar
   114    51    54    1
   115    51    52    1
   116   135   133    1
   117   187   188    1
   118   187   179   am
   119    55    57   ar
   120    55    54    1
   121   149   148    1
   122   133   130    1
   123   178   177    1
   124   178   179    1
   125   188   189    1
   126   147   148    1
   127   147   146    1
   128    52    53    2
   129   179   180    2
   130    74    75    2
   131    74    73    1
   132   145   146    1
   133   145   142    1
   134   199   198    1
   135    78    77    2
   136   139   138    2
   137   141   142    1
   138    76    73    1
   139    76    77    1
   140   130   131    1
   141   130   129    1
   142   189   194   am
   143   189   190    2
   144    73    72    1
   145   194   195    1
   146   132   131    2
   147    77    79   am
   148   131   136   am
   149   142   143    1
   150   138   137    1
   151   113   112    2
   152   136   137    1
   153   198   195    1
   154   198   200    1
   155    64    63    2
   156   137   140    1
   157   112   111    1
   158   195   196    1
   159   208   206   ar
   160    72    63   am
   161   114   111    1
   162   114   115    1
   163    63    62    1
   164   143   144    2
   165   207   206   ar
   166   116   115    1
   167   206   205    1
   168   157   159   ar
   169   157   155   ar
   170   111   110    1
   171   159   158   ar
   172   196   197    2
   173   115   117    1
   174   155   154    1
   175   155   156   ar
   176   158   156   ar
   177   154   151    1
   178    62    65    1
   179    62    61    1
   180   205   202    1
   181    65    66    1
   182   201   202    1
   183   170   168    1
   184   202   203    1
   185   151   150    1
   186   151   152    1
   187   168   169    1
   188   168   167    2
   189    66    67   ar
   190    66    68   ar
   191   152   153    2
   192    67    69   ar
   193   167   166    1
   194   203   204    2
   195    68    70   ar
   196    69    71   ar
   197   166   165    1
   198    70    71   ar
   199   165   164    1
   200   164   161    1
   201   160   161    1
   202   161   162    1
   203   162   163    2
