@<TRIPOS>MOLECULE
tmp/5lvvA02.pdb
 159 155 0 0 0
SMALL
GASTEIGER

@<TRIPOS>ATOM
      1  N          0.3910   44.2590  -19.8600 N.3     5  TYR5       -0.1227
      2  CA        -0.6090   43.4130  -19.2580 C.3     5  TYR5        0.1736
      3  C         -1.2320   42.5840  -20.3300 C.2     5  TYR5        0.2596
      4  O         -1.0040   42.8340  -21.4800 O.2     5  TYR5       -0.2718
      5  CB        -1.6520   44.2570  -18.5690 C.3     5  TYR5        0.0548
      6  CG        -2.0330   45.4710  -19.3290 C.ar    5  TYR5       -0.0200
      7  CD1       -2.9680   45.4050  -20.3200 C.ar    5  TYR5       -0.0009
      8  CD2       -1.4710   46.6870  -19.0530 C.ar    5  TYR5       -0.0009
      9  CE1       -3.3360   46.5130  -21.0170 C.ar    5  TYR5        0.0417
     10  CE2       -1.8350   47.8010  -19.7490 C.ar    5  TYR5        0.0417
     11  CZ        -2.7670   47.6980  -20.7300 C.ar    5  TYR5        0.1957
     12  OH        -3.1370   48.7930  -21.4350 O.3     5  TYR5       -0.2866
     13  N         -2.0170   41.5960  -19.9640 N.am    6  SER6       -0.1938
     14  CA        -2.6360   40.7850  -20.9710 C.3     6  SER6        0.2055
     15  C         -3.7140   41.6380  -21.6200 C.2     6  SER6        0.2644
     16  O         -4.5380   42.1890  -20.9330 O.2     6  SER6       -0.2714
     17  CB        -3.2440   39.5350  -20.3370 C.3     6  SER6        0.2130
     18  OG        -2.3030   38.6740  -19.7170 O.3     6  SER6       -0.2179
     19  N         -3.6880   41.7690  -22.9400 N.am    7  SER7       -0.1935
     20  CA        -4.6850   42.5390  -23.6680 C.3     7  SER7        0.2055
     21  C         -5.0630   41.7500  -24.8830 C.2     7  SER7        0.2643
     22  O         -4.2950   40.9610  -25.3470 O.2     7  SER7       -0.2714
     23  CB        -4.1690   43.9100  -24.0930 C.3     7  SER7        0.2130
     24  OG        -5.2320   44.7840  -24.4320 O.3     7  SER7       -0.2179
     25  N         -6.2470   41.9740  -25.4150 N.am    8  ALA8       -0.1963
     26  CA        -6.7160   41.2760  -26.6020 C.3     8  ALA8        0.1728
     27  C         -6.1230   41.8120  -27.8810 C.2     8  ALA8        0.2616
     28  O         -5.4800   42.8180  -27.8810 O.2     8  ALA8       -0.2715
     29  CB        -8.2160   41.3400  -26.6800 C.3     8  ALA8        0.0334
     30  N         -6.3580   41.1260  -28.9780 N.am    9  GLN9       -0.1963
     31  CA        -5.8550   41.5510  -30.2630 C.3     9  GLN9        0.1733
     32  C         -6.5830   42.7540  -30.8220 C.2     9  GLN9        0.2617
     33  O         -7.7480   42.9040  -30.5950 O.2     9  GLN9       -0.2715
     34  CB        -5.9530   40.4020  -31.2290 C.3     9  GLN9        0.0408
     35  CG        -5.2740   39.1730  -30.7040 C.3     9  GLN9        0.0908
     36  CD        -5.3860   38.0120  -31.6410 C.2     9  GLN9        0.2608
     37  OE1       -6.4510   37.4740  -31.8320 O.2     9  GLN9       -0.2717
     38  NE2       -4.2870   37.6320  -32.2340 N.am    9  GLN9       -0.0878
     39  N         -5.8950   43.6040  -31.5710 N.am   10  SER10      -0.1950
     40  CA        -6.5240   44.7780  -32.1600 C.3    10  SER10       0.1924
     41  C         -7.4850   44.3100  -33.2310 C.2    10  SER10       0.2314
     42  O         -7.3130   43.2530  -33.7850 O.2    10  SER10      -0.2863
     43  CB        -5.5130   45.8160  -32.6830 C.3    10  SER10       0.2116
     44  OG        -4.5570   45.3290  -33.6020 O.3    10  SER10      -0.2180
     45  N         -8.8520   53.5470  -28.8270 N.3   139  LYS139     -0.1231
     46  CA        -9.0060   52.5590  -27.8060 C.3   139  LYS139      0.1693
     47  C         -7.7040   51.8770  -27.5230 C.2   139  LYS139      0.2592
     48  O         -7.3590   51.6530  -26.3970 O.2   139  LYS139     -0.2718
     49  CB       -10.0100   51.5330  -28.2700 C.3   139  LYS139      0.0285
     50  CG       -10.2020   50.3950  -27.3200 C.3   139  LYS139      0.0035
     51  CD       -11.5350   49.7490  -27.5630 C.3   139  LYS139      0.0206
     52  CE       -11.8060   48.6800  -26.5440 C.3   139  LYS139      0.1093
     53  NZ       -10.9960   47.4920  -26.8310 N.3   139  LYS139     -0.1314
     54  N         -6.9890   51.5130  -28.5620 N.am  140  ASP140     -0.1974
     55  CA        -5.7110   50.8680  -28.4110 C.3   140  ASP140      0.1709
     56  C         -4.7160   51.7950  -27.7660 C.2   140  ASP140      0.2293
     57  O         -3.8750   51.3810  -27.0210 O.2   140  ASP140     -0.2864
     58  CB        -5.2070   50.3780  -29.7460 C.3   140  ASP140      0.1436
     59  CG        -6.0890   49.3350  -30.3320 C.2   140  ASP140      0.3671
     60  OD1       -6.7770   48.6710  -29.5650 O.co2 140  ASP140     -0.2456
     61  OD2       -6.1160   49.1700  -31.5520 O.co2 140  ASP140     -0.2456
     62  N         -5.2840   53.9990  -25.6120 N.3   142  GLY142     -0.1225
     63  CA        -5.6360   54.3380  -24.2640 C.3   142  GLY142      0.1811
     64  C         -6.4940   55.5640  -24.1340 C.2   142  GLY142      0.2280
     65  O         -6.7460   56.0100  -23.0410 O.2   142  GLY142     -0.2866
     66  N         -9.6410   56.1580  -24.1280 N.3   144  ILE144     -0.1245
     67  CA       -10.9550   55.5790  -24.0880 C.3   144  ILE144      0.1561
     68  C        -12.0890   56.5380  -24.2770 C.2   144  ILE144      0.2260
     69  O        -13.0600   56.1820  -24.8960 O.2   144  ILE144     -0.2867
     70  CB       -11.1730   54.7690  -22.8310 C.3   144  ILE144      0.0252
     71  CG1       -9.9980   53.8430  -22.6250 C.3   144  ILE144      0.0019
     72  CG2      -12.4180   53.9430  -22.9850 C.3   144  ILE144      0.0019
     73  CD1       -9.9040   52.7660  -23.6680 C.3   144  ILE144      0.0001
     74  N        -16.8370   46.9630  -24.7480 N.3   170  HIS170     -0.1241
     75  CA       -15.5710   46.7210  -24.1330 C.3   170  HIS170      0.1621
     76  C        -15.0260   47.9720  -23.5320 C.2   170  HIS170      0.2264
     77  O        -14.4340   47.9420  -22.4940 O.2   170  HIS170     -0.2867
     78  CB       -14.5790   46.1720  -25.1200 C.3   170  HIS170      0.0745
     79  CG       -13.4590   45.4400  -24.4730 C.ar  170  HIS170      0.0817
     80  ND1      -12.1490   45.8340  -24.5790 N.ar  170  HIS170     -0.2268
     81  CD2      -13.4580   44.3440  -23.6900 C.ar  170  HIS170      0.1154
     82  CE1      -11.3890   45.0040  -23.9000 C.ar  170  HIS170      0.1986
     83  NE2      -12.1590   44.0870  -23.3560 N.ar  170  HIS170     -0.2212
     84  N        -13.9570   48.8720  -19.4730 N.3   174  ILE174     -0.1245
     85  CA       -12.6670   49.3220  -19.0480 C.3   174  ILE174      0.1561
     86  C        -12.7520   50.4810  -18.0920 C.2   174  ILE174      0.2260
     87  O        -12.0010   50.5440  -17.1580 O.2   174  ILE174     -0.2867
     88  CB       -11.8210   49.6500  -20.2830 C.3   174  ILE174      0.0252
     89  CG1      -11.4330   48.3500  -20.9590 C.3   174  ILE174      0.0019
     90  CG2      -10.5960   50.4690  -19.9480 C.3   174  ILE174      0.0019
     91  CD1      -10.7780   48.5260  -22.2960 C.3   174  ILE174      0.0001
     92  N        -11.1620   36.9940  -26.0530 N.3   207  HIS207     -0.1226
     93  CA       -10.6880   37.4090  -24.7640 C.3   207  HIS207      0.1752
     94  C        -11.8300   38.0510  -24.0150 C.2   207  HIS207      0.2596
     95  O        -12.0160   37.8170  -22.8510 O.2   207  HIS207     -0.2718
     96  CB        -9.5760   38.4170  -24.9550 C.3   207  HIS207      0.0759
     97  CG        -8.8090   38.7270  -23.7170 C.ar  207  HIS207      0.0818
     98  ND1       -8.0120   37.8070  -23.0860 N.ar  207  HIS207     -0.2268
     99  CD2       -8.6970   39.8670  -23.0070 C.ar  207  HIS207      0.1154
    100  CE1       -7.4550   38.3610  -22.0320 C.ar  207  HIS207      0.1986
    101  NE2       -7.8540   39.6110  -21.9630 N.ar  207  HIS207     -0.2212
    102  N        -12.5960   38.8740  -24.6970 N.am  208  HIS208     -0.1975
    103  CA       -13.7120   39.5640  -24.0960 C.3   208  HIS208      0.1656
    104  C        -14.8790   38.7250  -23.6700 C.2   208  HIS208      0.2291
    105  O        -15.6290   39.1280  -22.8290 O.2   208  HIS208     -0.2864
    106  CB       -14.2440   40.6150  -25.0360 C.3   208  HIS208      0.0771
    107  CG       -13.2110   41.5650  -25.5240 C.ar  208  HIS208      0.0820
    108  ND1      -13.3330   42.2430  -26.7130 N.ar  208  HIS208     -0.2267
    109  CD2      -12.0360   41.9540  -24.9870 C.ar  208  HIS208      0.1154
    110  CE1      -12.2780   43.0080  -26.8880 C.ar  208  HIS208      0.1986
    111  NE2      -11.4780   42.8530  -25.8530 N.ar  208  HIS208     -0.2212
    112  N         -2.4790   39.9780  -27.6230 N.3   343  LYS343     -0.1245
    113  CA        -1.6820   40.8070  -28.4570 C.3   343  LYS343      0.1561
    114  C         -0.3980   40.1130  -28.7630 C.2   343  LYS343      0.2260
    115  O          0.2130   39.5380  -27.9020 O.2   343  LYS343     -0.2867
    116  CB        -1.3640   42.0920  -27.7250 C.3   343  LYS343      0.0271
    117  CG        -2.0590   43.2960  -28.2830 C.3   343  LYS343      0.0035
    118  CD        -1.6470   44.5390  -27.5400 C.3   343  LYS343      0.0206
    119  CE        -0.9080   45.5060  -28.4500 C.3   343  LYS343      0.1093
    120  NZ        -1.3440   45.4040  -29.8680 N.3   343  LYS343     -0.1314
    121  N         -7.1820   45.2320  -13.0360 N.3   531  GLN531     -0.1245
    122  CA        -7.5940   46.2770  -13.9360 C.3   531  GLN531      0.1566
    123  C         -9.0700   46.4290  -13.6660 C.2   531  GLN531      0.2260
    124  O         -9.7310   45.4670  -13.3880 O.2   531  GLN531     -0.2867
    125  CB        -7.3290   45.8870  -15.3740 C.3   531  GLN531      0.0367
    126  CG        -5.8700   45.8600  -15.7440 C.3   531  GLN531      0.0905
    127  CD        -5.6450   45.7290  -17.2160 C.2   531  GLN531      0.2608
    128  OE1       -5.9050   46.6360  -17.9560 O.2   531  GLN531     -0.2717
    129  NE2       -5.1530   44.6070  -17.6370 N.am  531  GLN531     -0.0878
    130  N        -11.6240   46.6650  -15.4540 N.3   533  TYR533     -0.1241
    131  CA       -12.5140   45.9510  -16.3230 C.3   533  TYR533      0.1605
    132  C        -12.9670   44.6340  -15.7540 C.2   533  TYR533      0.2264
    133  O        -13.9470   44.0900  -16.1670 O.2   533  TYR533     -0.2867
    134  CB       -11.8790   45.7820  -17.6870 C.3   533  TYR533      0.0534
    135  CG       -10.9250   44.6450  -17.8350 C.ar  533  TYR533     -0.0201
    136  CD1       -9.5940   44.8330  -17.6930 C.ar  533  TYR533     -0.0009
    137  CD2      -11.3630   43.4020  -18.1710 C.ar  533  TYR533     -0.0009
    138  CE1       -8.7200   43.8000  -17.8500 C.ar  533  TYR533      0.0417
    139  CE2      -10.4960   42.3650  -18.3300 C.ar  533  TYR533      0.0417
    140  CZ        -9.1760   42.5800  -18.1710 C.ar  533  TYR533      0.1957
    141  OH        -8.3060   41.5640  -18.3240 O.3   533  TYR533     -0.2866
    142  N         -6.6610   52.2590  -12.8460 N.3   560  PHE560     -0.1228
    143  CA        -6.2930   51.3540  -13.8910 C.3   560  PHE560      0.1721
    144  C         -7.4710   51.0500  -14.8100 C.2   560  PHE560      0.2437
    145  O         -7.9730   49.9550  -14.7890 O.2   560  PHE560     -0.2733
    146  CB        -5.8400   50.0840  -13.1620 C.3   560  PHE560      0.0547
    147  CG        -4.8180   49.2760  -13.8710 C.ar  560  PHE560     -0.0202
    148  CD1       -4.4410   49.5570  -15.1430 C.ar  560  PHE560     -0.0042
    149  CD2       -4.2480   48.2120  -13.2420 C.ar  560  PHE560     -0.0042
    150  CE1       -3.5060   48.7930  -15.7760 C.ar  560  PHE560     -0.0003
    151  CE2       -3.3090   47.4480  -13.8660 C.ar  560  PHE560     -0.0003
    152  CZ        -2.9360   47.7420  -15.1380 C.ar  560  PHE560     -0.0000
    153  N         -7.9240   51.9850  -15.6180 N.am  561  PRO561     -0.2729
    154  CA        -7.4320   53.3410  -15.7640 C.3   561  PRO561      0.1401
    155  C         -8.0650   54.3330  -14.8310 C.2   561  PRO561      0.2269
    156  O         -9.0580   54.0650  -14.2210 O.2   561  PRO561     -0.2865
    157  CB        -7.8600   53.6760  -17.1580 C.3   561  PRO561      0.0296
    158  CG        -9.1320   52.9620  -17.2950 C.3   561  PRO561      0.0237
    159  CD        -8.8820   51.6490  -16.6660 C.3   561  PRO561      0.0939
@<TRIPOS>BOND
     1    42    41    2
     2    44    43    1
     3    41    40    1
     4    43    40    1
     5    38    36   am
     6    40    39    1
     7    37    36    2
     8    36    35    1
     9    39    32   am
    10    61    59   ar
    11    34    35    1
    12    34    31    1
    13    32    33    2
    14    32    31    1
    15    59    58    1
    16    59    60   ar
    17    31    30    1
    18   120   119    1
    19    58    55    1
    20    30    27   am
    21    45    46    1
    22   114   113    1
    23   114   115    2
    24    54    55    1
    25    54    47   am
    26   113   116    1
    27   113   112    1
    28   119   118    1
    29    55    56    1
    30   117   116    1
    31   117   118    1
    32    49    46    1
    33    49    50    1
    34    27    28    2
    35    27    26    1
    36    46    47    1
    37    56    57    2
    38    51    50    1
    39    51    52    1
    40    47    48    2
    41   110   108   ar
    42   110   111   ar
    43    53    52    1
    44   108   107   ar
    45    29    26    1
    46    26    25    1
    47    92    93    1
    48   111   109   ar
    49    62    63    1
    50   107   106    1
    51   107   109   ar
    52    25    21   am
    53    22    21    2
    54    78    79    1
    55    78    75    1
    56   106   103    1
    57    96    93    1
    58    96    97    1
    59    69    68    2
    60    21    20    1
    61    93    94    1
    62    74    75    1
    63   102   103    1
    64   102    94   am
    65    80    79   ar
    66    80    82   ar
    67    79    81   ar
    68    24    23    1
    69    68    67    1
    70    63    64    1
    71    64    65    2
    72    75    76    1
    73    66    67    1
    74   103   104    1
    75    23    20    1
    76    67    70    1
    77    94    95    2
    78    82    83   ar
    79    97    98   ar
    80    97    99   ar
    81    81    83   ar
    82   104   105    2
    83    73    71    1
    84    20    19    1
    85    76    77    2
    86    98   100   ar
    87    99   101   ar
    88    72    70    1
    89    19    15   am
    90    70    71    1
    91    91    89    1
    92   100   101   ar
    93    15    14    1
    94    15    16    2
    95     4     3    2
    96    12    11    1
    97     9    11   ar
    98     9     7   ar
    99    14    17    1
   100    14    13    1
   101    89    88    1
   102    11    10   ar
   103    17    18    1
   104     3    13   am
   105     3     2    1
   106     7     6   ar
   107    88    90    1
   108    88    85    1
   109     1     2    1
   110    10     8   ar
   111    84    85    1
   112     6     8   ar
   113     6     5    1
   114     2     5    1
   115    85    86    1
   116   139   137   ar
   117   139   140   ar
   118   141   140    1
   119   137   135   ar
   120   140   138   ar
   121    86    87    2
   122   128   127    2
   123   138   136   ar
   124   135   136   ar
   125   135   134    1
   126   134   131    1
   127   129   127   am
   128   158   157    1
   129   158   159    1
   130   127   126    1
   131   157   154    1
   132   159   153    1
   133   131   132    1
   134   131   130    1
   135   133   132    2
   136   150   148   ar
   137   150   152   ar
   138   154   153    1
   139   154   155    1
   140   126   125    1
   141   153   144   am
   142   125   122    1
   143   148   147   ar
   144   152   151   ar
   145   155   156    2
   146   144   145    2
   147   144   143    1
   148   122   123    1
   149   122   121    1
   150   143   146    1
   151   143   142    1
   152   147   149   ar
   153   147   146    1
   154   151   149   ar
   155   123   124    2
