@<TRIPOS>MOLECULE
tmp/5lvwA01.pdb
 85 80 0 0 0
SMALL
GASTEIGER

@<TRIPOS>ATOM
      1  N         55.9150  -53.2140   -3.6020 N.3    87  ASN87      -0.1240
      2  CA        55.3980  -51.8670   -3.3480 C.3    87  ASN87       0.1653
      3  C         55.7070  -50.8990   -4.4910 C.2    87  ASN87       0.2266
      4  O         54.9070  -50.0110   -4.7880 O.2    87  ASN87      -0.2867
      5  CB        55.9250  -51.3010   -2.0220 C.3    87  ASN87       0.1155
      6  CG        55.0720  -51.7100   -0.8340 C.2    87  ASN87       0.2627
      7  OD1       54.3080  -50.9050   -0.2970 O.2    87  ASN87      -0.2716
      8  ND2       55.1880  -52.9690   -0.4240 N.am   87  ASN87      -0.0877
      9  N         49.5240  -47.3790   -9.5630 N.3    94  LEU94      -0.1245
     10  CA        48.6760  -46.2810   -9.0910 C.3    94  LEU94       0.1561
     11  C         48.9420  -44.9760   -9.8370 C.2    94  LEU94       0.2260
     12  O         48.0500  -44.1350   -9.9610 O.2    94  LEU94      -0.2867
     13  CB        48.8720  -46.0660   -7.5900 C.3    94  LEU94       0.0270
     14  CG        48.3860  -47.2240   -6.7140 C.3    94  LEU94       0.0019
     15  CD1       49.0550  -47.1850   -5.3510 C.3    94  LEU94       0.0001
     16  CD2       46.8710  -47.2110   -6.5760 C.3    94  LEU94       0.0001
     17  N         54.9260  -44.7040   -2.4730 N.3   117  SER117     -0.1202
     18  CA        53.5980  -44.1530   -2.2570 C.3   117  SER117      0.2020
     19  C         53.1640  -44.3800   -0.8230 C.2   117  SER117      0.2619
     20  O         53.3010  -45.4830   -0.2980 O.2   117  SER117     -0.2717
     21  CB        52.5810  -44.7810   -3.2150 C.3   117  SER117      0.2103
     22  OG        52.5680  -46.1900   -3.1020 O.3   117  SER117     -0.2182
     23  N         52.6710  -43.3240   -0.1840 N.am  118  VAL118     -0.1965
     24  CA        51.9900  -43.4580    1.0970 C.3   118  VAL118      0.1727
     25  C         50.6120  -42.8200    0.9670 C.2   118  VAL118      0.2616
     26  O         50.4800  -41.6960    0.4760 O.2   118  VAL118     -0.2715
     27  CB        52.7970  -42.8710    2.2770 C.3   118  VAL118      0.0290
     28  CG1       54.2870  -43.1510    2.1170 C.3   118  VAL118      0.0023
     29  CG2       52.5600  -41.3880    2.4080 C.3   118  VAL118      0.0023
     30  N         49.5870  -43.5720    1.3400 N.am  119  PHE119     -0.1974
     31  CA        48.2190  -43.1160    1.2020 C.3   119  PHE119      0.1639
     32  C         47.6010  -42.4390    2.3910 C.2   119  PHE119      0.2290
     33  O         46.5930  -41.7830    2.2760 O.2   119  PHE119     -0.2864
     34  CB        47.3510  -44.2180    0.6640 C.3   119  PHE119      0.0560
     35  CG        47.4070  -44.3150   -0.8080 C.ar  119  PHE119     -0.0200
     36  CD1       48.5840  -44.0820   -1.4600 C.ar  119  PHE119     -0.0042
     37  CD2       46.2920  -44.5880   -1.5420 C.ar  119  PHE119     -0.0042
     38  CE1       48.6580  -44.1420   -2.8250 C.ar  119  PHE119     -0.0003
     39  CE2       46.3550  -44.6510   -2.9130 C.ar  119  PHE119     -0.0003
     40  CZ        47.5420  -44.4300   -3.5540 C.ar  119  PHE119     -0.0000
     41  N         44.1740  -50.6400   -6.0970 N.3   233  ILE233     -0.1245
     42  CA        44.2670  -50.6970   -4.6350 C.3   233  ILE233      0.1561
     43  C         44.0990  -52.1300   -4.1390 C.2   233  ILE233      0.2260
     44  O         44.8590  -52.5920   -3.2870 O.2   233  ILE233     -0.2867
     45  CB        43.2300  -49.7730   -3.9570 C.3   233  ILE233      0.0252
     46  CG1       43.5600  -48.3080   -4.2750 C.3   233  ILE233      0.0019
     47  CG2       43.2010  -50.0170   -2.4500 C.3   233  ILE233      0.0019
     48  CD1       42.6320  -47.2920   -3.6410 C.3   233  ILE233      0.0001
     49  N         47.1520  -54.1560   -5.1640 N.3   236  MET236     -0.1245
     50  CA        48.2830  -53.8940   -4.3070 C.3   236  MET236      0.1570
     51  C         48.2050  -54.7030   -3.0250 C.2   236  MET236      0.2261
     52  O         49.1660  -55.2610   -2.5830 O.2   236  MET236     -0.2867
     53  CB        48.3300  -52.4170   -4.0080 C.3   236  MET236      0.0387
     54  CG        49.2220  -52.0480   -2.8590 C.3   236  MET236      0.0595
     55  SD        50.5470  -51.0260   -3.4350 S.3   236  MET236     -0.1393
     56  CE        51.9110  -51.7190   -2.5520 C.3   236  MET236      0.0692
     57  N         50.1400  -54.2920    7.8710 N.3   367  HIS367     -0.1226
     58  CA        49.9440  -53.2160    6.9460 C.3   367  HIS367      0.1752
     59  C         48.4440  -52.9700    6.9090 C.2   367  HIS367      0.2596
     60  O         47.6890  -53.8870    6.9480 O.2   367  HIS367     -0.2718
     61  CB        50.4440  -53.6440    5.5950 C.3   367  HIS367      0.0759
     62  CG        50.4000  -52.5630    4.5850 C.ar  367  HIS367      0.0818
     63  ND1       49.2830  -51.8020    4.3740 N.ar  367  HIS367     -0.2268
     64  CD2       51.3340  -52.1030    3.7370 C.ar  367  HIS367      0.1154
     65  CE1       49.5270  -50.9210    3.4310 C.ar  367  HIS367      0.1986
     66  NE2       50.7660  -51.0820    3.0260 N.ar  367  HIS367     -0.2212
     67  N         48.0150  -51.7280    6.8240 N.am  368  ALA368     -0.1966
     68  CA        46.5970  -51.3430    6.8720 C.3   368  ALA368      0.1728
     69  C         45.7150  -52.1690    5.9350 C.2   368  ALA368      0.2616
     70  O         44.7000  -52.7260    6.3520 O.2   368  ALA368     -0.2715
     71  CB        46.4540  -49.8630    6.5470 C.3   368  ALA368      0.0334
     72  N         46.1620  -52.2920    4.7050 N.am  369  MET369     -0.1977
     73  CA        45.4600  -53.0310    3.6930 C.3   369  MET369      0.1605
     74  C         45.3750  -54.5120    3.9320 C.2   369  MET369      0.2287
     75  O         44.6540  -55.1930    3.2580 O.2   369  MET369     -0.2864
     76  CB        46.1180  -52.7830    2.3610 C.3   369  MET369      0.0413
     77  CG        46.0730  -51.3430    1.9360 C.3   369  MET369      0.0598
     78  SD        44.4510  -50.8990    1.3720 S.3   369  MET369     -0.1393
     79  CE        44.1530  -49.4340    2.3160 C.3   369  MET369      0.0692
     80  N         38.5380  -46.4440    0.9080 N.3   392  SER392     -0.1217
     81  CA        38.9830  -46.9280   -0.3740 C.3   392  SER392      0.1889
     82  C         38.8000  -48.4040   -0.6090 C.2   392  SER392      0.2288
     83  O         39.0370  -49.2160    0.2570 O.2   392  SER392     -0.2866
     84  CB        40.4610  -46.6360   -0.4870 C.3   392  SER392      0.2089
     85  OG        41.1240  -47.1180    0.6700 O.3   392  SER392     -0.2183
@<TRIPOS>BOND
     1    12    11    2
     2    11    10    1
     3     9    10    1
     4    10    13    1
     5    13    14    1
     6    14    16    1
     7    14    15    1
     8    41    42    1
     9    49    50    1
    10     4     3    2
    11    42    43    1
    12    42    45    1
    13     3     2    1
    14    50    53    1
    15    50    51    1
    16    46    45    1
    17    46    48    1
    18    43    44    2
    19    53    54    1
    20    45    47    1
    21     1     2    1
    22    40    39   ar
    23    40    38   ar
    24    55    54    1
    25    55    56    1
    26     2     5    1
    27    21    22    1
    28    21    18    1
    29    51    52    2
    30    39    37   ar
    31    38    36   ar
    32    17    18    1
    33    18    19    1
    34     5     6    1
    35    37    35   ar
    36    36    35   ar
    37     6     8   am
    38     6     7    2
    39    19    20    2
    40    19    23   am
    41    35    34    1
    42    82    81    1
    43    82    83    2
    44    84    81    1
    45    84    85    1
    46    81    80    1
    47    23    24    1
    48    26    25    2
    49    34    31    1
    50    25    24    1
    51    25    30   am
    52    24    27    1
    53    31    30    1
    54    31    32    1
    55    78    77    1
    56    78    79    1
    57    77    76    1
    58    28    27    1
    59    33    32    2
    60    27    29    1
    61    76    73    1
    62    66    65   ar
    63    66    64   ar
    64    75    74    2
    65    65    63   ar
    66    73    74    1
    67    73    72    1
    68    64    62   ar
    69    63    62   ar
    70    62    61    1
    71    72    69   am
    72    61    58    1
    73    69    70    2
    74    69    68    1
    75    71    68    1
    76    67    68    1
    77    67    59   am
    78    59    58    1
    79    59    60    2
    80    58    57    1
