@<TRIPOS>MOLECULE
tmp/5lvwA00.pdb
 150 147 0 0 0
SMALL
GASTEIGER

@<TRIPOS>ATOM
      1  N         59.1980  -57.1730   -0.5040 N.3    83  TRP83      -0.1241
      2  CA        58.2900  -56.1300   -0.0820 C.3    83  TRP83       0.1605
      3  C         58.5090  -54.8360   -0.7800 C.2    83  TRP83       0.2264
      4  O         57.5790  -54.1580   -1.1310 O.2    83  TRP83      -0.2867
      5  CB        58.4290  -55.9110    1.3880 C.3    83  TRP83       0.0550
      6  CG        57.4500  -54.9960    1.9570 C.ar   83  TRP83       0.0003
      7  CD1       57.6830  -53.7570    2.3830 C.ar   83  TRP83       0.0946
      8  CD2       56.0800  -55.2550    2.2110 C.ar   83  TRP83       0.0152
      9  NE1       56.5540  -53.2020    2.8720 N.ar   83  TRP83      -0.2442
     10  CE2       55.5470  -54.1120    2.7780 C.ar   83  TRP83       0.0810
     11  CE3       55.2500  -56.3440    2.0070 C.ar   83  TRP83       0.0012
     12  CZ2       54.2330  -54.0220    3.1440 C.ar   83  TRP83       0.0191
     13  CZ3       53.9640  -56.2480    2.3650 C.ar   83  TRP83       0.0001
     14  CH2       53.4600  -55.1040    2.9260 C.ar   83  TRP83       0.0015
     15  N         55.9150  -53.2140   -3.6020 N.3    87  ASN87      -0.1240
     16  CA        55.3980  -51.8670   -3.3480 C.3    87  ASN87       0.1653
     17  C         55.7070  -50.8990   -4.4910 C.2    87  ASN87       0.2266
     18  O         54.9070  -50.0110   -4.7880 O.2    87  ASN87      -0.2867
     19  CB        55.9250  -51.3010   -2.0220 C.3    87  ASN87       0.1155
     20  CG        55.0720  -51.7100   -0.8340 C.2    87  ASN87       0.2627
     21  OD1       54.3080  -50.9050   -0.2970 O.2    87  ASN87      -0.2716
     22  ND2       55.1880  -52.9690   -0.4240 N.am   87  ASN87      -0.0877
     23  N         54.9260  -44.7040   -2.4730 N.3   117  SER117     -0.1202
     24  CA        53.5980  -44.1530   -2.2570 C.3   117  SER117      0.2020
     25  C         53.1640  -44.3800   -0.8230 C.2   117  SER117      0.2619
     26  O         53.3010  -45.4830   -0.2980 O.2   117  SER117     -0.2717
     27  CB        52.5810  -44.7810   -3.2150 C.3   117  SER117      0.2103
     28  OG        52.5680  -46.1900   -3.1020 O.3   117  SER117     -0.2182
     29  N         52.6710  -43.3240   -0.1840 N.am  118  VAL118     -0.1965
     30  CA        51.9900  -43.4580    1.0970 C.3   118  VAL118      0.1727
     31  C         50.6120  -42.8200    0.9670 C.2   118  VAL118      0.2616
     32  O         50.4800  -41.6960    0.4760 O.2   118  VAL118     -0.2715
     33  CB        52.7970  -42.8710    2.2770 C.3   118  VAL118      0.0290
     34  CG1       54.2870  -43.1510    2.1170 C.3   118  VAL118      0.0023
     35  CG2       52.5600  -41.3880    2.4080 C.3   118  VAL118      0.0023
     36  N         49.5870  -43.5720    1.3400 N.am  119  PHE119     -0.1960
     37  CA        48.2190  -43.1160    1.2020 C.3   119  PHE119      0.1771
     38  C         47.6010  -42.4390    2.3910 C.2   119  PHE119      0.2619
     39  O         46.5930  -41.7830    2.2760 O.2   119  PHE119     -0.2715
     40  CB        47.3510  -44.2180    0.6640 C.3   119  PHE119      0.0574
     41  CG        47.4070  -44.3150   -0.8080 C.ar  119  PHE119     -0.0200
     42  CD1       48.5840  -44.0820   -1.4600 C.ar  119  PHE119     -0.0042
     43  CD2       46.2920  -44.5880   -1.5420 C.ar  119  PHE119     -0.0042
     44  CE1       48.6580  -44.1420   -2.8250 C.ar  119  PHE119     -0.0003
     45  CE2       46.3550  -44.6510   -2.9130 C.ar  119  PHE119     -0.0003
     46  CZ        47.5420  -44.4300   -3.5540 C.ar  119  PHE119     -0.0000
     47  N         48.2140  -42.5930    3.5360 N.am  120  ALA120     -0.1977
     48  CA        47.7610  -41.8750    4.7220 C.3   120  ALA120      0.1597
     49  C         47.8920  -40.3730    4.4700 C.2   120  ALA120      0.2287
     50  O         48.9820  -39.8860    4.1620 O.2   120  ALA120     -0.2864
     51  CB        48.5810  -42.2810    5.9360 C.3   120  ALA120      0.0319
     52  N         54.8770  -40.9700    7.2270 N.3   139  PRO139     -0.2102
     53  CA        55.6150  -42.1460    7.6970 C.3   139  PRO139      0.1504
     54  C         55.4000  -43.3790    6.8160 C.2   139  PRO139      0.2575
     55  O         54.5340  -43.3720    5.9380 O.2   139  PRO139     -0.2718
     56  CB        55.0390  -42.3800    9.0950 C.3   139  PRO139      0.0282
     57  CG        53.6440  -41.8700    9.0080 C.3   139  PRO139      0.0208
     58  CD        53.6700  -40.7200    8.0390 C.3   139  PRO139      0.0893
     59  N         56.1920  -44.4020    7.0610 N.am  140  TYR140     -0.1977
     60  CA        56.0920  -45.6460    6.3410 C.3   140  TYR140      0.1639
     61  C         56.3120  -45.5580    4.8390 C.2   140  TYR140      0.2290
     62  O         55.6000  -46.1590    4.0730 O.2   140  TYR140     -0.2864
     63  CB        54.7460  -46.2800    6.6340 C.3   140  TYR140      0.0560
     64  CG        54.5310  -46.6940    8.0650 C.ar  140  TYR140     -0.0198
     65  CD1       55.1330  -47.8060    8.5790 C.ar  140  TYR140     -0.0009
     66  CD2       53.7010  -45.9840    8.8780 C.ar  140  TYR140     -0.0009
     67  CE1       54.9260  -48.1830    9.8810 C.ar  140  TYR140      0.0417
     68  CE2       53.4950  -46.3510   10.1740 C.ar  140  TYR140      0.0417
     69  CZ        54.1060  -47.4520   10.6600 C.ar  140  TYR140      0.1957
     70  OH        53.8820  -47.8010   11.9380 O.3   140  TYR140     -0.2866
     71  N         57.9980  -46.8830    2.2110 N.3   142  THR142     -0.1218
     72  CA        58.7680  -48.0240    1.7900 C.3   142  THR142      0.1862
     73  C         59.6860  -47.8090    0.6240 C.2   142  THR142      0.2287
     74  O         59.2930  -47.3280   -0.3980 O.2   142  THR142     -0.2866
     75  CB        57.8290  -49.1750    1.4410 C.3   142  THR142      0.1770
     76  OG1       56.8910  -49.3350    2.4900 O.3   142  THR142     -0.2211
     77  CG2       58.5710  -50.4440    1.2850 C.3   142  THR142      0.0375
     78  N         62.7980  -45.2950   10.7020 N.3   182  TRP182     -0.1241
     79  CA        62.5330  -46.7160   10.6030 C.3   182  TRP182      0.1605
     80  C         63.4180  -47.6180   11.4020 C.2   182  TRP182      0.2264
     81  O         64.3450  -48.1820   10.9010 O.2   182  TRP182     -0.2867
     82  CB        62.5770  -47.1330    9.1440 C.3   182  TRP182      0.0550
     83  CG        62.1480  -48.5240    8.8300 C.ar  182  TRP182      0.0003
     84  CD1       62.9100  -49.4890    8.3110 C.ar  182  TRP182      0.0946
     85  CD2       60.8460  -49.0770    8.9610 C.ar  182  TRP182      0.0152
     86  NE1       62.1920  -50.6170    8.1270 N.ar  182  TRP182     -0.2442
     87  CE2       60.9110  -50.3860    8.5190 C.ar  182  TRP182      0.0810
     88  CE3       59.6350  -48.5930    9.4230 C.ar  182  TRP182      0.0012
     89  CZ2       59.8290  -51.2130    8.5260 C.ar  182  TRP182      0.0191
     90  CZ3       58.5690  -49.4140    9.4190 C.ar  182  TRP182      0.0001
     91  CH2       58.6650  -50.7070    8.9770 C.ar  182  TRP182      0.0015
     92  N         61.2960  -56.5650    8.7270 N.3   187  MET187     -0.1196
     93  CA        61.2250  -55.7600    7.5030 C.3   187  MET187      0.1786
     94  C         62.1860  -54.5630    7.5810 C.2   187  MET187      0.2306
     95  O         61.8850  -53.4770    7.0890 O.2   187  MET187     -0.2863
     96  CB        59.7710  -55.3000    7.2560 C.2   187  MET187      0.0070
     97  CG        59.0040  -56.0180    6.1490 C.2   187  MET187      0.0282
     98  SD        59.7350  -57.5290    5.4920 S.3   187  MET187     -0.1125
     99  CE        58.3950  -58.1420    4.4770 C.3   187  MET187      0.0742
    100  N         63.6190  -52.6440    4.4490 N.3   190  THR190     -0.1218
    101  CA        62.6060  -51.9650    3.6520 C.3   190  THR190      0.1862
    102  C         62.7610  -50.4650    3.6520 C.2   190  THR190      0.2287
    103  O         62.3140  -49.7810    2.7560 O.2   190  THR190     -0.2866
    104  CB        61.1910  -52.3550    4.0730 C.3   190  THR190      0.1770
    105  OG1       61.0130  -52.0830    5.4500 O.3   190  THR190     -0.2211
    106  CG2       61.0140  -53.7880    3.8900 C.3   190  THR190      0.0375
    107  N         61.4380  -48.0330    5.4000 N.3   192  SER192     -0.1217
    108  CA        60.1950  -47.3040    5.3660 C.3   192  SER192      0.1889
    109  C         60.2900  -46.1090    6.2700 C.2   192  SER192      0.2288
    110  O         59.6950  -46.0540    7.3220 O.2   192  SER192     -0.2866
    111  CB        59.0650  -48.2160    5.7790 C.3   192  SER192      0.2089
    112  OG        59.0280  -49.3330    4.9280 O.3   192  SER192     -0.2183
    113  N         55.7210  -58.4430   10.8140 N.3   363  THR363     -0.1203
    114  CA        55.7740  -56.9880   10.7000 C.3   363  THR363      0.1994
    115  C         54.9570  -56.5150    9.4990 C.2   363  THR363      0.2617
    116  O         54.0830  -55.6570    9.6360 O.2   363  THR363     -0.2717
    117  CB        57.2250  -56.4860   10.5660 C.3   363  THR363      0.1784
    118  OG1       58.0280  -57.0740   11.5960 O.3   363  THR363     -0.2211
    119  CG2       57.2890  -54.9680   10.6880 C.3   363  THR363      0.0376
    120  N         55.2400  -57.0920    8.3330 N.am  364  ALA364     -0.1979
    121  CA        54.5620  -56.7210    7.0870 C.3   364  ALA364      0.1597
    122  C         53.0550  -56.9640    7.1390 C.2   364  ALA364      0.2287
    123  O         52.2810  -56.2060    6.5550 O.2   364  ALA364     -0.2864
    124  CB        55.1680  -57.4750    5.9130 C.3   364  ALA364      0.0319
    125  N         50.8810  -56.4690    9.3680 N.3   366  ARG366     -0.1231
    126  CA        50.0930  -55.4080   10.0160 C.3   366  ARG366      0.1694
    127  C         49.9690  -54.1410    9.1630 C.2   366  ARG366      0.2592
    128  O         49.6120  -53.0760    9.6710 O.2   366  ARG366     -0.2718
    129  CB        50.6610  -55.0780   11.4060 C.3   366  ARG366      0.0321
    130  CG        50.1530  -56.0010   12.5040 C.3   366  ARG366      0.0489
    131  CD        50.6280  -57.4300   12.2940 C.3   366  ARG366      0.2205
    132  NE        50.1070  -58.3560   13.2950 N.pl3 366  ARG366     -0.0865
    133  CZ        50.5780  -59.5840   13.5070 C.cat 366  ARG366      0.5346
    134  NH1       50.0260  -60.3500   14.4400 N.pl3 366  ARG366      0.1354
    135  NH2       51.6020  -60.0550   12.7990 N.pl3 366  ARG366      0.1354
    136  N         50.1400  -54.2920    7.8710 N.am  367  HIS367     -0.1962
    137  CA        49.9440  -53.2160    6.9460 C.3   367  HIS367      0.1787
    138  C         48.4440  -52.9700    6.9090 C.2   367  HIS367      0.2620
    139  O         47.6890  -53.8870    6.9480 O.2   367  HIS367     -0.2715
    140  CB        50.4440  -53.6440    5.5950 C.3   367  HIS367      0.0785
    141  CG        50.4000  -52.5630    4.5850 C.ar  367  HIS367      0.0821
    142  ND1       49.2830  -51.8020    4.3740 N.ar  367  HIS367     -0.2267
    143  CD2       51.3340  -52.1030    3.7370 C.ar  367  HIS367      0.1154
    144  CE1       49.5270  -50.9210    3.4310 C.ar  367  HIS367      0.1986
    145  NE2       50.7660  -51.0820    3.0260 N.ar  367  HIS367     -0.2212
    146  N         48.0150  -51.7280    6.8240 N.am  368  ALA368     -0.1977
    147  CA        46.5970  -51.3430    6.8720 C.3   368  ALA368      0.1597
    148  C         45.7150  -52.1690    5.9350 C.2   368  ALA368      0.2287
    149  O         44.7000  -52.7260    6.3520 O.2   368  ALA368     -0.2864
    150  CB        46.4540  -49.8630    6.5470 C.3   368  ALA368      0.0319
@<TRIPOS>BOND
     1    18    17    2
     2    17    16    1
     3    15    16    1
     4    46    45   ar
     5    46    44   ar
     6    16    19    1
     7    27    28    1
     8    27    24    1
     9    45    43   ar
    10    44    42   ar
    11    23    24    1
    12    24    25    1
    13    19    20    1
    14    43    41   ar
    15    42    41   ar
    16     4     3    2
    17    20    22   am
    18    20    21    2
    19    25    26    2
    20    25    29   am
    21    41    40    1
    22     3     2    1
    23     1     2    1
    24    74    73    2
    25    29    30    1
    26     2     5    1
    27    32    31    2
    28    73    72    1
    29    40    37    1
    30    31    30    1
    31    31    36   am
    32    30    33    1
    33    37    36    1
    34    37    38    1
    35    77    75    1
    36     5     6    1
    37    75    72    1
    38    75    76    1
    39    72    71    1
    40     6     8   ar
    41     6     7   ar
    42    11     8   ar
    43    11    13   ar
    44    34    33    1
    45     8    10   ar
    46    39    38    2
    47    33    35    1
    48    13    14   ar
    49     7     9   ar
    50    38    47   am
    51   103   102    2
    52    10     9   ar
    53    10    12   ar
    54    14    12   ar
    55   145   144   ar
    56   145   143   ar
    57   144   142   ar
    58    47    48    1
    59   101   102    1
    60   101   104    1
    61   101   100    1
    62   143   141   ar
    63   106   104    1
    64   104   105    1
    65    62    61    2
    66    50    49    2
    67   142   141   ar
    68    49    48    1
    69    99    98    1
    70   141   140    1
    71    48    51    1
    72    61    60    1
    73   112   111    1
    74   108   107    1
    75   108   111    1
    76   108   109    1
    77    98    97    1
    78   140   137    1
    79   124   121    1
    80   148   149    2
    81   148   147    1
    82    55    54    2
    83    97    96    2
    84   109   110    2
    85    60    63    1
    86    60    59    1
    87   150   147    1
    88   123   122    2
    89    63    64    1
    90    54    59   am
    91    54    53    1
    92   146   147    1
    93   146   138   am
    94   138   137    1
    95   138   139    2
    96   137   136    1
    97   121   122    1
    98   121   120    1
    99    95    94    2
   100    52    53    1
   101    52    58    1
   102    96    93    1
   103    93    94    1
   104    93    92    1
   105    53    56    1
   106   136   127   am
   107    58    57    1
   108    64    65   ar
   109    64    66   ar
   110    86    84   ar
   111    86    87   ar
   112    84    83   ar
   113   120   115   am
   114    87    89   ar
   115    87    85   ar
   116    89    91   ar
   117    65    67   ar
   118    83    85   ar
   119    83    82    1
   120    66    68   ar
   121    85    88   ar
   122    91    90   ar
   123    57    56    1
   124    82    79    1
   125   127   128    2
   126   127   126    1
   127   125   126    1
   128    90    88   ar
   129   115   116    2
   130   115   114    1
   131    67    69   ar
   132   126   129    1
   133    68    69   ar
   134   117   119    1
   135   117   114    1
   136   117   118    1
   137    79    78    1
   138    79    80    1
   139    69    70    1
   140   114   113    1
   141    81    80    2
   142   129   130    1
   143   131   130    1
   144   131   132    1
   145   135   133    1
   146   132   133    2
   147   133   134    1
