@<TRIPOS>MOLECULE
tmp/5lvxB01.pdb
 219 213 0 0 0
SMALL
GASTEIGER

@<TRIPOS>ATOM
      1  N        -10.6180  -39.6000   -7.3180 N.3   127  ASP127     -0.1225
      2  CA       -11.5600  -39.9580   -8.3700 C.3   127  ASP127      0.1805
      3  C        -12.3480  -41.2190   -8.0250 C.2   127  ASP127      0.2597
      4  O        -13.5220  -41.3120   -8.3780 O.2   127  ASP127     -0.2718
      5  CB       -10.9100  -40.0530   -9.7470 C.3   127  ASP127      0.1424
      6  CG        -9.7600  -41.0210   -9.8020 C.2   127  ASP127      0.3668
      7  OD1       -8.9780  -41.1060   -8.8210 O.co2 127  ASP127     -0.2456
      8  OD2       -9.6290  -41.6800  -10.8580 O.co2 127  ASP127     -0.2456
      9  N        -11.7400  -42.1370   -7.2770 N.am  128  PHE128     -0.1976
     10  CA       -12.4310  -43.3680   -6.8150 C.3   128  PHE128      0.1639
     11  C        -13.1980  -43.1270   -5.5200 C.2   128  PHE128      0.2290
     12  O        -13.0030  -43.7970   -4.5140 O.2   128  PHE128     -0.2864
     13  CB       -11.4590  -44.5480   -6.7570 C.3   128  PHE128      0.0560
     14  CG       -11.1110  -45.0430   -8.1160 C.ar  128  PHE128     -0.0200
     15  CD1      -10.0410  -44.4940   -8.8090 C.ar  128  PHE128     -0.0042
     16  CD2      -11.9290  -45.9680   -8.7650 C.ar  128  PHE128     -0.0042
     17  CE1       -9.7350  -44.9060  -10.0970 C.ar  128  PHE128     -0.0003
     18  CE2      -11.6290  -46.3820  -10.0610 C.ar  128  PHE128     -0.0003
     19  CZ       -10.5250  -45.8460  -10.7230 C.ar  128  PHE128     -0.0000
     20  N         -0.1520  -36.9430   -3.7960 N.3   234  ASN234     -0.1225
     21  CA        -0.3830  -37.8560   -4.9130 C.3   234  ASN234      0.1785
     22  C         -0.2010  -37.1140   -6.2260 C.2   234  ASN234      0.2597
     23  O         -0.8370  -36.0980   -6.4540 O.2   234  ASN234     -0.2718
     24  CB        -1.7820  -38.4640   -4.8970 C.3   234  ASN234      0.1169
     25  CG        -2.0160  -39.3710   -6.0910 C.2   234  ASN234      0.2627
     26  OD1       -1.5320  -40.4920   -6.1210 O.2   234  ASN234     -0.2716
     27  ND2       -2.7150  -38.8700   -7.0940 N.am  234  ASN234     -0.0877
     28  N          0.6720  -37.6330   -7.0740 N.am  235  GLU235     -0.1979
     29  CA         0.8980  -37.0990   -8.4250 C.3   235  GLU235      0.1602
     30  C          0.8750  -35.5650   -8.5130 C.2   235  GLU235      0.2287
     31  O          0.0050  -34.9970   -9.1900 O.2   235  GLU235     -0.2864
     32  CB        -0.1040  -37.7250   -9.4100 C.3   235  GLU235      0.0415
     33  CG         0.0240  -39.2420   -9.4690 C.3   235  GLU235      0.1163
     34  CD        -0.7000  -39.8770  -10.6350 C.2   235  GLU235      0.3649
     35  OE1       -1.6600  -39.2970  -11.1620 O.co2 235  GLU235     -0.2457
     36  OE2       -0.3000  -40.9850  -11.0170 O.co2 235  GLU235     -0.2457
     37  N          2.5100  -33.5350  -10.2740 N.3   237  SER237     -0.1202
     38  CA         2.5210  -33.0330  -11.6630 C.3   237  SER237      0.2020
     39  C          1.1130  -32.8290  -12.2230 C.2   237  SER237      0.2618
     40  O          0.9080  -31.9700  -13.0640 O.2   237  SER237     -0.2717
     41  CB         3.3520  -33.9320  -12.5870 C.3   237  SER237      0.2103
     42  OG         2.7510  -35.1970  -12.7440 O.3   237  SER237     -0.2182
     43  N          0.1460  -33.6080  -11.7450 N.am  238  ALA238     -0.1979
     44  CA        -1.2360  -33.5420  -12.2450 C.3   238  ALA238      0.1597
     45  C         -1.8650  -32.1710  -12.0490 C.2   238  ALA238      0.2287
     46  O         -2.5510  -31.6570  -12.9440 O.2   238  ALA238     -0.2864
     47  CB        -2.1050  -34.6000  -11.5780 C.3   238  ALA238      0.0319
     48  N         -1.4300  -29.3710  -14.6550 N.3   241  LEU241     -0.1245
     49  CA        -2.0700  -29.5780  -15.9580 C.3   241  LEU241      0.1561
     50  C         -3.4330  -28.9060  -16.0330 C.2   241  LEU241      0.2260
     51  O         -4.3040  -29.1550  -15.1900 O.2   241  LEU241     -0.2867
     52  CB        -2.2220  -31.0760  -16.2360 C.3   241  LEU241      0.0270
     53  CG        -0.9570  -31.9260  -16.1080 C.3   241  LEU241      0.0019
     54  CD1       -1.2950  -33.3980  -16.2820 C.3   241  LEU241      0.0001
     55  CD2        0.0860  -31.4980  -17.1210 C.3   241  LEU241      0.0001
     56  N         -7.1370  -30.7030  -15.5990 N.3   244  TYR244     -0.1241
     57  CA        -6.9990  -31.9940  -14.9640 C.3   244  TYR244      0.1605
     58  C         -8.3310  -32.3360  -14.2910 C.2   244  TYR244      0.2264
     59  O         -8.8280  -31.5520  -13.4840 O.2   244  TYR244     -0.2867
     60  CB        -5.8560  -32.0610  -13.9650 C.3   244  TYR244      0.0534
     61  CG        -5.4810  -33.4980  -13.6690 C.ar  244  TYR244     -0.0201
     62  CD1       -4.6820  -34.2330  -14.5630 C.ar  244  TYR244     -0.0009
     63  CD2       -5.9580  -34.1490  -12.5280 C.ar  244  TYR244     -0.0009
     64  CE1       -4.3440  -35.5590  -14.3130 C.ar  244  TYR244      0.0417
     65  CE2       -5.6250  -35.4780  -12.2670 C.ar  244  TYR244      0.0417
     66  CZ        -4.8240  -36.1760  -13.1610 C.ar  244  TYR244      0.1957
     67  OH        -4.4770  -37.4670  -12.9000 O.3   244  TYR244     -0.2866
     68  N         -9.7940  -34.5260  -12.1710 N.3   246  PHE246     -0.1241
     69  CA       -10.1330  -34.9020  -10.7910 C.3   246  PHE246      0.1605
     70  C         -9.1640  -34.3490   -9.7330 C.2   246  PHE246      0.2264
     71  O         -8.2490  -33.5930  -10.0610 O.2   246  PHE246     -0.2867
     72  CB       -10.3510  -36.4190  -10.6910 C.3   246  PHE246      0.0534
     73  CG        -9.1600  -37.2450  -11.0240 C.ar  246  PHE246     -0.0203
     74  CD1       -8.2250  -37.5510  -10.0510 C.ar  246  PHE246     -0.0042
     75  CD2       -9.0300  -37.8210  -12.2800 C.ar  246  PHE246     -0.0042
     76  CE1       -7.1420  -38.3630  -10.3420 C.ar  246  PHE246     -0.0003
     77  CE2       -7.9540  -38.6360  -12.5750 C.ar  246  PHE246     -0.0003
     78  CZ        -7.0070  -38.9050  -11.6060 C.ar  246  PHE246     -0.0000
     79  N          4.7880  -40.1210   -8.0760 N.3   283  ASP283     -0.1225
     80  CA         4.5000  -39.6520   -9.4210 C.3   283  ASP283      0.1805
     81  C          5.3440  -40.4660  -10.4010 C.2   283  ASP283      0.2597
     82  O          6.0320  -41.3950  -10.0050 O.2   283  ASP283     -0.2718
     83  CB         4.7880  -38.1500   -9.5340 C.3   283  ASP283      0.1424
     84  CG         3.8430  -37.4230  -10.5050 C.2   283  ASP283      0.3668
     85  OD1        3.3700  -38.0430  -11.4780 O.co2 283  ASP283     -0.2456
     86  OD2        3.5540  -36.2290  -10.2880 O.co2 283  ASP283     -0.2456
     87  N          5.2730  -40.1210  -11.6770 N.am  284  GLN284     -0.1979
     88  CA         5.8150  -40.9470  -12.7440 C.3   284  GLN284      0.1601
     89  C          7.3380  -40.9460  -12.6680 C.2   284  GLN284      0.2287
     90  O          7.9500  -39.9260  -12.3590 O.2   284  GLN284     -0.2864
     91  CB         5.3470  -40.4340  -14.1180 C.3   284  GLN284      0.0394
     92  CG         3.8720  -40.0420  -14.2190 C.3   284  GLN284      0.0908
     93  CD         2.9320  -41.0090  -13.5150 C.2   284  GLN284      0.2608
     94  OE1        3.0450  -42.2150  -13.6750 O.2   284  GLN284     -0.2717
     95  NE2        2.0160  -40.4760  -12.7090 N.am  284  GLN284     -0.0878
     96  N          2.5460  -45.0960  -14.6690 N.3   313  TYR313     -0.1227
     97  CA         1.6930  -44.7750  -15.8240 C.3   313  TYR313      0.1736
     98  C          2.4410  -44.3310  -17.0780 C.2   313  TYR313      0.2595
     99  O          1.9380  -44.5220  -18.1860 O.2   313  TYR313     -0.2718
    100  CB         0.6010  -43.7540  -15.4490 C.3   313  TYR313      0.0548
    101  CG        -0.2780  -44.2600  -14.3430 C.ar  313  TYR313     -0.0200
    102  CD1       -1.1410  -45.3450  -14.5500 C.ar  313  TYR313     -0.0009
    103  CD2       -0.2300  -43.6970  -13.0760 C.ar  313  TYR313     -0.0009
    104  CE1       -1.9420  -45.8360  -13.5140 C.ar  313  TYR313      0.0417
    105  CE2       -1.0150  -44.1860  -12.0400 C.ar  313  TYR313      0.0417
    106  CZ        -1.8620  -45.2560  -12.2600 C.ar  313  TYR313      0.1957
    107  OH        -2.6500  -45.7290  -11.2430 O.3   313  TYR313     -0.2866
    108  N          3.6150  -43.7170  -16.9110 N.am  314  LEU314     -0.1980
    109  CA         4.4550  -43.3230  -18.0610 C.3   314  LEU314      0.1596
    110  C          5.7480  -44.1350  -18.1830 C.2   314  LEU314      0.2287
    111  O          6.7320  -43.6730  -18.7700 O.2   314  LEU314     -0.2864
    112  CB         4.7530  -41.8160  -18.0180 C.3   314  LEU314      0.0297
    113  CG         3.5410  -40.8840  -17.9500 C.3   314  LEU314      0.0022
    114  CD1        4.0130  -39.4370  -17.9410 C.3   314  LEU314      0.0001
    115  CD2        2.5540  -41.0900  -19.0800 C.3   314  LEU314      0.0001
    116  N          6.5210  -46.5090  -20.1050 N.3   316  PHE316     -0.1241
    117  CA         6.8550  -46.6640  -21.5310 C.3   316  PHE316      0.1605
    118  C          7.7520  -45.5520  -22.1400 C.2   316  PHE316      0.2264
    119  O          8.3850  -45.7700  -23.1620 O.2   316  PHE316     -0.2867
    120  CB         5.5650  -46.8230  -22.3650 C.3   316  PHE316      0.0534
    121  CG         4.7650  -45.5460  -22.5320 C.ar  316  PHE316     -0.0203
    122  CD1        3.8230  -45.1560  -21.5790 C.ar  316  PHE316     -0.0042
    123  CD2        4.9260  -44.7550  -23.6600 C.ar  316  PHE316     -0.0042
    124  CE1        3.0800  -43.9990  -21.7480 C.ar  316  PHE316     -0.0003
    125  CE2        4.1800  -43.6000  -23.8350 C.ar  316  PHE316     -0.0003
    126  CZ         3.2580  -43.2190  -22.8780 C.ar  316  PHE316     -0.0000
    127  N          1.8130  -46.9220   -6.7150 N.3   340  GLU340     -0.1245
    128  CA         0.5250  -47.0250   -7.4400 C.3   340  GLU340      0.1567
    129  C          0.6800  -47.5380   -8.8610 C.2   340  GLU340      0.2260
    130  O          1.5440  -47.0960   -9.6210 O.2   340  GLU340     -0.2867
    131  CB        -0.2030  -45.6820   -7.4930 C.3   340  GLU340      0.0388
    132  CG        -1.6900  -45.7710   -7.8110 C.3   340  GLU340      0.1160
    133  CD        -2.3090  -44.4050   -8.0420 C.2   340  GLU340      0.3649
    134  OE1       -2.3910  -43.6040   -7.0800 O.co2 340  GLU340     -0.2457
    135  OE2       -2.7310  -44.1370   -9.1840 O.co2 340  GLU340     -0.2457
    136  N         -2.2580  -49.2860  -11.9720 N.3   342  CYS342     -0.1235
    137  CA        -3.4450  -49.9600  -12.4730 C.3   342  CYS342      0.1677
    138  C         -3.4410  -49.9430  -13.9820 C.2   342  CYS342      0.2270
    139  O         -2.8020  -49.0940  -14.6140 O.2   342  CYS342     -0.2867
    140  CB        -4.7350  -49.3290  -11.9550 C.3   342  CYS342      0.0956
    141  SG        -5.1040  -47.6790  -12.5530 S.3   342  CYS342     -0.0801
    142  N         -6.8150  -47.5690  -17.8730 N.3   345  SER345     -0.1202
    143  CA        -7.1290  -46.1350  -17.9940 C.3   345  SER345      0.2020
    144  C         -6.8800  -45.6080  -19.4130 C.2   345  SER345      0.2619
    145  O         -7.2410  -44.4890  -19.6980 O.2   345  SER345     -0.2717
    146  CB        -6.3480  -45.3150  -16.9640 C.3   345  SER345      0.2103
    147  OG        -4.9890  -45.2000  -17.3270 O.3   345  SER345     -0.2182
    148  N         -6.2510  -46.4050  -20.2860 N.am  346  LYS346     -0.1965
    149  CA        -5.9760  -45.9820  -21.6590 C.3   346  LYS346      0.1728
    150  C         -7.2780  -45.9650  -22.4700 C.2   346  LYS346      0.2616
    151  O         -8.0380  -46.9180  -22.4480 O.2   346  LYS346     -0.2715
    152  CB        -4.9160  -46.8580  -22.3210 C.3   346  LYS346      0.0311
    153  CG        -3.5810  -46.8780  -21.5840 C.3   346  LYS346      0.0038
    154  CD        -2.6040  -47.8670  -22.2030 C.3   346  LYS346      0.0206
    155  CE        -1.2260  -47.8300  -21.5620 C.3   346  LYS346      0.1093
    156  NZ        -0.2970  -48.4770  -22.4590 N.3   346  LYS346     -0.1314
    157  N         -7.5240  -44.8550  -23.1610 N.am  347  PHE347     -0.1960
    158  CA        -8.8230  -44.5710  -23.8180 C.3   347  PHE347      0.1771
    159  C         -9.2650  -45.6110  -24.8570 C.2   347  PHE347      0.2619
    160  O        -10.4490  -45.8090  -25.0600 O.2   347  PHE347     -0.2715
    161  CB        -8.8560  -43.1500  -24.4350 C.3   347  PHE347      0.0574
    162  CG        -7.8560  -42.9200  -25.5310 C.ar  347  PHE347     -0.0200
    163  CD1       -8.0970  -43.3780  -26.8300 C.ar  347  PHE347     -0.0042
    164  CD2       -6.6780  -42.2170  -25.2800 C.ar  347  PHE347     -0.0042
    165  CE1       -7.1720  -43.1610  -27.8430 C.ar  347  PHE347     -0.0003
    166  CE2       -5.7490  -41.9990  -26.2970 C.ar  347  PHE347     -0.0003
    167  CZ        -5.9990  -42.4680  -27.5810 C.ar  347  PHE347     -0.0000
    168  N         -8.2980  -46.2910  -25.4590 N.am  348  TRP348     -0.1974
    169  CA        -8.5470  -47.2970  -26.4920 C.3   348  TRP348      0.1640
    170  C         -8.7200  -48.7300  -25.9650 C.2   348  TRP348      0.2290
    171  O         -8.9120  -49.6340  -26.7560 O.2   348  TRP348     -0.2864
    172  CB        -7.4380  -47.2500  -27.5450 C.3   348  TRP348      0.0576
    173  CG        -6.1200  -47.7930  -27.1130 C.ar  348  TRP348      0.0006
    174  CD1       -5.6800  -49.0870  -27.2160 C.ar  348  TRP348      0.0946
    175  CD2       -5.0510  -47.0550  -26.5400 C.ar  348  TRP348      0.0152
    176  NE1       -4.4080  -49.1960  -26.7220 N.ar  348  TRP348     -0.2442
    177  CE2       -4.0040  -47.9640  -26.2840 C.ar  348  TRP348      0.0810
    178  CE3       -4.8790  -45.7100  -26.1980 C.ar  348  TRP348      0.0012
    179  CZ2       -2.8080  -47.5680  -25.7280 C.ar  348  TRP348      0.0191
    180  CZ3       -3.7020  -45.3270  -25.6310 C.ar  348  TRP348      0.0001
    181  CH2       -2.6740  -46.2440  -25.4040 C.ar  348  TRP348      0.0015
    182  N          1.5100  -57.7140  -17.2660 N.3   362  GLN362     -0.1245
    183  CA         1.9310  -56.3180  -17.0500 C.3   362  GLN362      0.1566
    184  C          2.3210  -56.0740  -15.5880 C.2   362  GLN362      0.2260
    185  O          3.2990  -55.3840  -15.3150 O.2   362  GLN362     -0.2867
    186  CB         0.8390  -55.3360  -17.4520 C.3   362  GLN362      0.0367
    187  CG         0.6470  -55.1930  -18.9480 C.3   362  GLN362      0.0905
    188  CD        -0.4420  -54.1730  -19.2630 C.2   362  GLN362      0.2608
    189  OE1       -0.3720  -53.0330  -18.8160 O.2   362  GLN362     -0.2717
    190  NE2       -1.4540  -54.5790  -20.0170 N.am  362  GLN362     -0.0878
    191  N         -3.2970  -50.2920   -7.0320 N.3   381  TRP381     -0.1241
    192  CA        -4.3080  -49.2650   -6.7660 C.3   381  TRP381      0.1605
    193  C         -5.5320  -49.9710   -6.1140 C.2   381  TRP381      0.2264
    194  O         -5.3350  -50.7790   -5.2040 O.2   381  TRP381     -0.2867
    195  CB        -4.5930  -48.4960   -8.0610 C.3   381  TRP381      0.0550
    196  CG        -5.4020  -47.2220   -7.9910 C.ar  381  TRP381      0.0003
    197  CD1       -6.1420  -46.7170   -9.0010 C.ar  381  TRP381      0.0946
    198  CD2       -5.5340  -46.2850   -6.8990 C.ar  381  TRP381      0.0152
    199  NE1       -6.7230  -45.5500   -8.6340 N.ar  381  TRP381     -0.2442
    200  CE2       -6.3810  -45.2590   -7.3460 C.ar  381  TRP381      0.0810
    201  CE3       -5.0290  -46.2130   -5.5960 C.ar  381  TRP381      0.0012
    202  CZ2       -6.7500  -44.1750   -6.5400 C.ar  381  TRP381      0.0191
    203  CZ3       -5.3960  -45.1250   -4.7930 C.ar  381  TRP381      0.0001
    204  CH2       -6.2430  -44.1240   -5.2770 C.ar  381  TRP381      0.0015
    205  N        -13.3080  -42.1930  -14.6420 N.3   396  ASN396     -0.1240
    206  CA       -11.9830  -42.7400  -14.9010 C.3   396  ASN396      0.1653
    207  C        -11.9570  -44.2030  -14.4310 C.2   396  ASN396      0.2266
    208  O        -11.2580  -44.5700  -13.4830 O.2   396  ASN396     -0.2867
    209  CB       -10.9210  -41.9060  -14.1890 C.3   396  ASN396      0.1155
    210  CG        -9.5100  -42.4000  -14.4570 C.2   396  ASN396      0.2627
    211  OD1       -9.2130  -42.8580  -15.5480 O.2   396  ASN396     -0.2716
    212  ND2       -8.6400  -42.3090  -13.4610 N.am  396  ASN396     -0.0877
    213  N        -11.2560  -48.1340  -14.2720 N.3   398  VAL398     -0.1245
    214  CA       -10.0470  -48.9290  -14.5000 C.3   398  VAL398      0.1561
    215  C        -10.2780  -50.3540  -14.0080 C.2   398  VAL398      0.2260
    216  O        -11.3270  -50.6540  -13.4600 O.2   398  VAL398     -0.2867
    217  CB        -8.8080  -48.3180  -13.7990 C.3   398  VAL398      0.0252
    218  CG1       -8.5730  -46.8740  -14.2420 C.3   398  VAL398      0.0019
    219  CG2       -8.9330  -48.4190  -12.2920 C.3   398  VAL398      0.0019
@<TRIPOS>BOND
     1   165   167   ar
     2   165   163   ar
     3   167   166   ar
     4   172   173    1
     5   172   169    1
     6   174   173   ar
     7   174   176   ar
     8   173   175   ar
     9   163   162   ar
    10   171   170    2
    11   176   177   ar
    12   175   177   ar
    13   175   178   ar
    14   169   170    1
    15   169   168    1
    16   166   164   ar
    17   177   179   ar
    18   178   180   ar
    19   179   181   ar
    20   180   181   ar
    21   162   164   ar
    22   162   161    1
    23   168   159   am
    24   160   159    2
    25   159   158    1
    26   161   158    1
    27   125   123   ar
    28   125   126   ar
    29   158   157    1
    30   123   121   ar
    31   119   118    2
    32   157   150   am
    33   126   124   ar
    34   121   120    1
    35   121   122   ar
    36   150   151    2
    37   150   149    1
    38   156   155    1
    39   120   117    1
    40   152   149    1
    41   152   153    1
    42   154   153    1
    43   154   155    1
    44   118   117    1
    45   124   122   ar
    46   149   148    1
    47   117   116    1
    48   148   144   am
    49   190   188   am
    50   145   144    2
    51   144   143    1
    52   188   187    1
    53   188   189    2
    54   115   113    1
    55   187   186    1
    56   111   110    2
    57    99    98    2
    58   110   109    1
    59   109   112    1
    60   109   108    1
    61   112   113    1
    62   143   142    1
    63   143   146    1
    64   113   114    1
    65   186   183    1
    66   147   146    1
    67   182   183    1
    68    55    53    1
    69    98   108   am
    70    98    97    1
    71   183   184    1
    72    54    53    1
    73    52    53    1
    74    52    49    1
    75    50    49    1
    76    50    51    2
    77    49    48    1
    78    97   100    1
    79    97    96    1
    80    56    57    1
    81   184   185    2
    82   211   210    2
    83   100   101    1
    84    57    58    1
    85    57    60    1
    86   206   205    1
    87   206   207    1
    88   206   209    1
    89   139   138    2
    90    62    64   ar
    91    62    61   ar
    92   102   101   ar
    93   102   104   ar
    94   214   213    1
    95   214   215    1
    96   214   217    1
    97   210   209    1
    98   210   212   am
    99   207   208    2
   100   101   103   ar
   101    64    66   ar
   102    58    59    2
   103   218   217    1
   104    92    91    1
   105    92    93    1
   106    91    88    1
   107   215   216    2
   108   138   137    1
   109    60    61    1
   110   217   219    1
   111    94    93    2
   112    61    63   ar
   113    93    95   am
   114   104   106   ar
   115    66    67    1
   116    66    65   ar
   117   103   105   ar
   118    40    39    2
   119    46    45    2
   120    42    41    1
   121    88    89    1
   122    88    87    1
   123    89    90    2
   124    41    38    1
   125    77    75   ar
   126    77    78   ar
   127   141   140    1
   128    63    65   ar
   129   137   136    1
   130   137   140    1
   131    75    73   ar
   132   106   105   ar
   133   106   107    1
   134    44    45    1
   135    44    43    1
   136    44    47    1
   137    39    43   am
   138    39    38    1
   139    68    69    1
   140    87    81   am
   141    38    37    1
   142    78    76   ar
   143    85    84   ar
   144    35    34   ar
   145    73    72    1
   146    73    74   ar
   147    36    34   ar
   148     8     6   ar
   149    69    72    1
   150    69    70    1
   151    19    17   ar
   152    19    18   ar
   153    34    33    1
   154    84    86   ar
   155    84    83    1
   156    81    82    2
   157    81    80    1
   158    76    74   ar
   159    17    15   ar
   160    71    70    2
   161    18    16   ar
   162     6     5    1
   163     6     7   ar
   164     5     2    1
   165   130   129    2
   166    83    80    1
   167    33    32    1
   168    80    79    1
   169    32    29    1
   170    31    30    2
   171   135   133   ar
   172   197   199   ar
   173   197   196   ar
   174   129   128    1
   175    15    14   ar
   176    16    14   ar
   177   199   200   ar
   178    30    29    1
   179    29    28    1
   180     4     3    2
   181     2     3    1
   182     2     1    1
   183    14    13    1
   184   195   196    1
   185   195   192    1
   186   133   132    1
   187   133   134   ar
   188     3     9   am
   189   196   198   ar
   190   132   131    1
   191   131   128    1
   192   128   127    1
   193   200   198   ar
   194   200   202   ar
   195     9    10    1
   196    27    25   am
   197    28    22   am
   198   191   192    1
   199   198   201   ar
   200    10    13    1
   201    10    11    1
   202   192   193    1
   203   202   204   ar
   204    23    22    2
   205    22    21    1
   206    26    25    2
   207   193   194    2
   208    25    24    1
   209   201   203   ar
   210    11    12    2
   211   204   203   ar
   212    21    24    1
   213    21    20    1
