@<TRIPOS>MOLECULE
tmp/5lw0B00.pdb
 178 171 0 0 0
SMALL
GASTEIGER

@<TRIPOS>ATOM
      1  N         86.9320  -26.4910   76.2550 N.3    14  PRO14      -0.2102
      2  CA        87.1150  -25.4480   77.2630 C.3    14  PRO14       0.1504
      3  C         87.8120  -24.2380   76.6760 C.2    14  PRO14       0.2576
      4  O         88.3540  -24.2930   75.5650 O.2    14  PRO14      -0.2718
      5  CB        88.0220  -26.1580   78.2660 C.3    14  PRO14       0.0282
      6  CG        88.9480  -26.9190   77.3750 C.3    14  PRO14       0.0208
      7  CD        88.1150  -27.3480   76.1680 C.3    14  PRO14       0.0893
      8  N         87.8310  -23.1490   77.4330 N.am   15  SER15      -0.1938
      9  CA        88.5500  -21.9820   77.0470 C.3    15  SER15       0.2055
     10  C         90.0740  -22.2530   77.1970 C.2    15  SER15       0.2643
     11  O         90.6160  -22.2430   78.2840 O.2    15  SER15      -0.2714
     12  CB        88.1360  -20.8030   77.9080 C.3    15  SER15       0.2130
     13  OG        88.8870  -19.6120   77.5360 O.3    15  SER15      -0.2179
     14  N         90.7470  -22.3030   76.0700 N.am   16  ILE16      -0.1963
     15  CA        92.1870  -22.5450   76.0480 C.3    16  ILE16       0.1727
     16  C         92.9520  -21.3320   76.5640 C.2    16  ILE16       0.2617
     17  O         92.6700  -20.1970   76.1900 O.2    16  ILE16      -0.2715
     18  CB        92.6140  -22.8650   74.6080 C.3    16  ILE16       0.0290
     19  CG1       91.8290  -24.0670   74.0230 C.3    16  ILE16       0.0022
     20  CG2       94.1060  -23.0930   74.5060 C.3    16  ILE16       0.0023
     21  CD1       91.9120  -25.3380   74.8330 C.3    16  ILE16       0.0001
     22  N         93.9360  -21.6080   77.4040 N.am   17  SER17      -0.1936
     23  CA        94.9480  -20.6000   77.8420 C.3    17  SER17       0.2055
     24  C         94.4590  -19.6350   78.9080 C.2    17  SER17       0.2644
     25  O         95.2540  -18.8640   79.4110 O.2    17  SER17      -0.2714
     26  CB        95.5390  -19.8370   76.6890 C.3    17  SER17       0.2130
     27  OG        96.4380  -20.6650   75.9070 O.3    17  SER17      -0.2179
     28  N         93.2090  -19.7230   79.3380 N.am   18  THR18      -0.1936
     29  CA        92.7040  -18.6490   80.2420 C.3    18  THR18       0.2028
     30  C         92.6950  -18.9550   81.6990 C.2    18  THR18       0.2642
     31  O         92.1800  -18.1720   82.4860 O.2    18  THR18      -0.2714
     32  CB        91.3120  -18.1840   79.8360 C.3    18  THR18       0.1808
     33  OG1       90.4270  -19.3150   79.8170 O.3    18  THR18      -0.2208
     34  CG2       91.3220  -17.5340   78.5430 C.3    18  THR18       0.0379
     35  N         93.2570  -20.0760   82.1280 N.am   19  ALA19      -0.1963
     36  CA        93.3840  -20.3010   83.5790 C.3    19  ALA19       0.1728
     37  C         94.8700  -20.3810   83.9580 C.2    19  ALA19       0.2616
     38  O         95.5010  -19.3570   84.1080 O.2    19  ALA19      -0.2715
     39  CB        92.5870  -21.5100   84.0450 C.3    19  ALA19       0.0334
     40  N         95.4510  -21.5760   83.9210 N.am   20  ASP20      -0.1957
     41  CA        96.9100  -21.7380   84.2170 C.3    20  ASP20       0.1840
     42  C         97.8280  -20.8420   83.3670 C.2    20  ASP20       0.2622
     43  O         98.8780  -20.3480   83.8510 O.2    20  ASP20      -0.2715
     44  CB        97.3400  -23.2240   84.0410 C.3    20  ASP20       0.1450
     45  CG        96.6790  -24.1930   85.0830 C.2    20  ASP20       0.3671
     46  OD1       96.1990  -23.7250   86.1210 O.co2  20  ASP20      -0.2456
     47  OD2       96.6740  -25.4400   84.8610 O.co2  20  ASP20      -0.2456
     48  N         97.4740  -20.6400   82.0800 N.am   21  PHE21      -0.1974
     49  CA        98.2840  -19.8960   81.1800 C.3    21  PHE21       0.1639
     50  C         98.0200  -18.3540   81.1880 C.2    21  PHE21       0.2290
     51  O         98.6180  -17.5980   80.4330 O.2    21  PHE21      -0.2864
     52  CB        98.1420  -20.4600   79.7220 C.3    21  PHE21       0.0560
     53  CG        99.0220  -21.6890   79.4280 C.ar   21  PHE21      -0.0200
     54  CD1       99.9070  -22.1980   80.3860 C.ar   21  PHE21      -0.0042
     55  CD2       98.9440  -22.3290   78.2100 C.ar   21  PHE21      -0.0042
     56  CE1      100.6850  -23.3330   80.1200 C.ar   21  PHE21      -0.0003
     57  CE2       99.7230  -23.4730   77.9450 C.ar   21  PHE21      -0.0003
     58  CZ       100.6020  -23.9630   78.9020 C.ar   21  PHE21      -0.0000
     59  N         82.5260  -25.0690   77.1280 N.3    51  VAL51      -0.1231
     60  CA        82.1590  -25.5350   78.4540 C.3    51  VAL51       0.1692
     61  C         83.0730  -24.9820   79.5160 C.2    51  VAL51       0.2592
     62  O         84.2520  -24.7630   79.2830 O.2    51  VAL51      -0.2718
     63  CB        82.1590  -27.0780   78.5830 C.3    51  VAL51       0.0266
     64  CG1       81.1640  -27.6590   77.6110 C.3    51  VAL51       0.0020
     65  CG2       83.5680  -27.6510   78.3580 C.3    51  VAL51       0.0020
     66  N         82.4820  -24.7070   80.6780 N.am   52  ASP52      -0.1960
     67  CA        83.2470  -24.3390   81.8710 C.3    52  ASP52       0.1840
     68  C         82.5010  -24.8530   83.0960 C.2    52  ASP52       0.2621
     69  O         81.2920  -25.0840   83.0410 O.2    52  ASP52      -0.2715
     70  CB        83.4790  -22.8250   81.9430 C.3    52  ASP52       0.1450
     71  CG        84.7000  -22.4260   82.8770 C.2    52  ASP52       0.3671
     72  OD1       85.4680  -23.3080   83.2960 O.co2  52  ASP52      -0.2456
     73  OD2       84.9060  -21.2030   83.0870 O.co2  52  ASP52      -0.2456
     74  N         83.2320  -25.0560   84.2040 N.am   53  LEU53      -0.1977
     75  CA        82.7020  -25.7710   85.3510 C.3    53  LEU53       0.1596
     76  C         81.6740  -24.9710   86.1500 C.2    53  LEU53       0.2287
     77  O         80.7620  -25.5550   86.7230 O.2    53  LEU53      -0.2864
     78  CB        83.8120  -26.1340   86.2950 C.3    53  LEU53       0.0297
     79  CG        84.6350  -27.3080   85.9910 C.3    53  LEU53       0.0022
     80  CD1       85.9120  -27.2280   86.8780 C.3    53  LEU53       0.0001
     81  CD2       83.8040  -28.5360   86.2890 C.3    53  LEU53       0.0001
     82  N         84.5210  -16.2790   81.5310 N.3    59  ILE59      -0.1245
     83  CA        84.6880  -16.5310   80.1310 C.3    59  ILE59       0.1561
     84  C         83.3390  -16.9020   79.4460 C.2    59  ILE59       0.2260
     85  O         83.0430  -16.4240   78.3430 O.2    59  ILE59      -0.2867
     86  CB        85.8250  -17.5700   79.8500 C.3    59  ILE59       0.0252
     87  CG1       86.1970  -17.5120   78.3510 C.3    59  ILE59       0.0019
     88  CG2       85.4250  -18.9780   80.2670 C.3    59  ILE59       0.0019
     89  CD1       86.8710  -16.2500   77.8880 C.3    59  ILE59       0.0001
     90  N         79.3240  -27.1240   82.8910 N.3    82  GLY82      -0.1210
     91  CA        79.4880  -28.5330   83.2360 C.3    82  GLY82       0.1956
     92  C         80.9300  -28.9390   83.3310 C.2    82  GLY82       0.2612
     93  O         81.8000  -28.1860   83.0040 O.2    82  GLY82      -0.2717
     94  N         81.1210  -30.1700   83.7690 N.am   83  ASP83      -0.1959
     95  CA        82.4100  -30.8230   83.7750 C.3    83  ASP83       0.1840
     96  C         82.5370  -31.5160   82.4380 C.2    83  ASP83       0.2621
     97  O         81.6450  -32.3190   82.0500 O.2    83  ASP83      -0.2715
     98  CB        82.4340  -31.8250   84.9200 C.3    83  ASP83       0.1450
     99  CG        83.7280  -32.5620   85.0570 C.2    83  ASP83       0.3671
    100  OD1       84.5560  -32.6000   84.1250 O.co2  83  ASP83      -0.2456
    101  OD2       83.8830  -33.2230   86.1600 O.co2  83  ASP83      -0.2456
    102  N         83.5790  -31.1580   81.7150 N.am   84  ILE84      -0.1977
    103  CA        83.7790  -31.6610   80.3280 C.3    84  ILE84       0.1596
    104  C         83.9220  -33.1680   80.2860 C.2    84  ILE84       0.2287
    105  O         83.7890  -33.7720   79.2280 O.2    84  ILE84      -0.2864
    106  CB        84.9340  -30.9230   79.6480 C.3    84  ILE84       0.0276
    107  CG1       84.8070  -30.9800   78.1200 C.3    84  ILE84       0.0022
    108  CG2       86.2680  -31.4670   80.1190 C.3    84  ILE84       0.0022
    109  CD1       85.7880  -30.0700   77.4000 C.3    84  ILE84       0.0001
    110  N         92.9330  -28.7380   77.1880 N.3   101  ALA101     -0.1231
    111  CA        93.9710  -27.7430   77.2910 C.3   101  ALA101      0.1694
    112  C         95.2380  -28.4240   77.8870 C.2   101  ALA101      0.2592
    113  O         95.4050  -28.5770   79.0790 O.2   101  ALA101     -0.2718
    114  CB        93.5240  -26.5990   78.1220 C.3   101  ALA101      0.0304
    115  N         96.0610  -28.8630   76.9960 N.am  102  ALA102     -0.1966
    116  CA        97.1190  -29.7660   77.2820 C.3   102  ALA102      0.1728
    117  C         98.3330  -28.9720   77.7330 C.2   102  ALA102      0.2616
    118  O         98.3910  -27.7370   77.6070 O.2   102  ALA102     -0.2715
    119  CB        97.4500  -30.5590   76.0360 C.3   102  ALA102      0.0334
    120  N         99.3280  -29.7260   78.2220 N.am  103  ASN103     -0.1972
    121  CA       100.6910  -29.2200   78.3570 C.3   103  ASN103      0.1688
    122  C        101.5770  -29.7490   77.2430 C.2   103  ASN103      0.2292
    123  O        101.1950  -30.6930   76.4720 O.2   103  ASN103     -0.2864
    124  CB       101.2610  -29.5910   79.7240 C.3   103  ASN103      0.1181
    125  CG       101.2610  -31.0900   79.9810 C.2   103  ASN103      0.2629
    126  OD1      101.9710  -31.8550   79.3190 O.2   103  ASN103     -0.2716
    127  ND2      100.5150  -31.5150   80.9790 N.am  103  ASN103     -0.0877
    128  N         98.2600  -34.7790   84.6390 N.3   109  GLY109     -0.1210
    129  CA        98.4710  -33.9570   85.8150 C.3   109  GLY109      0.1956
    130  C         98.4470  -32.4710   85.5650 C.2   109  GLY109      0.2612
    131  O         97.9160  -31.9920   84.5360 O.2   109  GLY109     -0.2717
    132  N         99.0010  -31.7140   86.5150 N.am  110  GLY110     -0.1942
    133  CA        99.1260  -30.2880   86.3710 C.3   110  GLY110      0.2014
    134  C         97.8610  -29.5270   86.7120 C.2   110  GLY110      0.2639
    135  O         97.7570  -28.3200   86.4560 O.2   110  GLY110     -0.2714
    136  N         96.8900  -30.2090   87.2960 N.am  111  GLY111     -0.1939
    137  CA        95.6150  -29.5800   87.5630 C.3   111  GLY111      0.2014
    138  C         94.8820  -29.2320   86.2660 C.2   111  GLY111      0.2639
    139  O         95.2180  -29.7300   85.1600 O.2   111  GLY111     -0.2714
    140  N         93.8530  -28.4350   86.4310 N.am  112  GLY112     -0.1939
    141  CA        93.0300  -27.9900   85.3320 C.3   112  GLY112      0.2014
    142  C         92.3230  -29.1100   84.5810 C.2   112  GLY112      0.2639
    143  O         92.0920  -30.2620   85.0830 O.2   112  GLY112     -0.2714
    144  N         91.8700  -28.7500   83.3930 N.am  113  VAL113     -0.1963
    145  CA        91.1080  -29.6400   82.6220 C.3   113  VAL113      0.1727
    146  C         91.9270  -30.8300   82.1850 C.2   113  VAL113      0.2616
    147  O         91.4070  -31.9190   82.0860 O.2   113  VAL113     -0.2715
    148  CB        90.4340  -28.9120   81.4260 C.3   113  VAL113      0.0290
    149  CG1       91.4010  -28.6010   80.3450 C.3   113  VAL113      0.0023
    150  CG2       89.3250  -29.8020   80.8820 C.3   113  VAL113      0.0023
    151  N         93.2110  -30.6550   81.9960 N.am  114  ASN114     -0.1972
    152  CA        94.0880  -31.8070   81.6040 C.3   114  ASN114      0.1688
    153  C         94.0500  -32.9120   82.6540 C.2   114  ASN114      0.2292
    154  O         93.8860  -34.1040   82.3390 O.2   114  ASN114     -0.2864
    155  CB        95.5000  -31.2960   81.3830 C.3   114  ASN114      0.1181
    156  CG        96.4410  -32.3820   80.9430 C.2   114  ASN114      0.2629
    157  OD1       96.4350  -32.8020   79.8070 O.2   114  ASN114     -0.2716
    158  ND2       97.2800  -32.8500   81.8800 N.am  114  ASN114     -0.0877
    159  N         91.6890  -33.4340   84.8550 N.3   116  ALA116     -0.1245
    160  CA        90.3700  -33.9940   84.8600 C.3   116  ALA116      0.1562
    161  C         90.1610  -34.9830   83.7570 C.2   116  ALA116      0.2260
    162  O         89.6100  -36.0610   83.9930 O.2   116  ALA116     -0.2867
    163  CB        89.3050  -32.8840   84.7600 C.3   116  ALA116      0.0290
    164  N         97.7320  -24.0250   73.9160 N.3   166  GLY166     -0.1225
    165  CA        97.5640  -22.6110   73.6780 C.3   166  GLY166      0.1811
    166  C         98.7960  -21.8410   74.0460 C.2   166  GLY166      0.2280
    167  O         99.7300  -22.4220   74.6490 O.2   166  GLY166     -0.2866
    168  N        105.6940  -20.2400   83.5600 N.3   173  ARG173     -0.1245
    169  CA       105.5990  -21.4000   82.7000 C.3   173  ARG173      0.1563
    170  C        106.5580  -21.1830   81.5520 C.2   173  ARG173      0.2260
    171  O        106.9360  -20.0310   81.2260 O.2   173  ARG173     -0.2867
    172  CB       104.1580  -21.6030   82.1870 C.3   173  ARG173      0.0307
    173  CG       103.1100  -21.7920   83.2650 C.3   173  ARG173      0.0489
    174  CD       103.2370  -23.1170   83.9590 C.3   173  ARG173      0.2205
    175  NE       102.0740  -23.3820   84.8190 N.pl3 173  ARG173     -0.0865
    176  CZ       101.0650  -24.2070   84.5230 C.cat 173  ARG173      0.5346
    177  NH1      101.0660  -24.8940   83.3920 N.pl3 173  ARG173      0.1354
    178  NH2      100.0490  -24.3610   85.3850 N.pl3 173  ARG173      0.1354
@<TRIPOS>BOND
     1   165   164    1
     2   165   166    1
     3    19    18    1
     4    19    21    1
     5   166   167    2
     6    20    18    1
     7    18    15    1
     8     4     3    2
     9    27    26    1
    10   119   116    1
    11    15    14    1
    12    15    16    1
    13    14    10   am
    14     7     1    1
    15     7     6    1
    16    17    16    2
    17     1     2    1
    18   123   122    2
    19    16    22   am
    20     3     2    1
    21     3     8   am
    22    26    23    1
    23   115   116    1
    24   115   112   am
    25     9    10    1
    26     9     8    1
    27     9    12    1
    28    59    60    1
    29   110   111    1
    30    10    11    2
    31   122   121    1
    32     2     5    1
    33   116   117    1
    34   111   112    1
    35   111   114    1
    36     6     5    1
    37   109   107    1
    38    22    23    1
    39    13    12    1
    40   118   117    2
    41    64    63    1
    42   117   120   am
    43    23    24    1
    44   112   113    2
    45    89    87    1
    46    57    55   ar
    47    57    58   ar
    48   107   106    1
    49    55    53   ar
    50   120   121    1
    51    85    84    2
    52    87    86    1
    53   121   124    1
    54    65    63    1
    55    60    63    1
    56    60    61    1
    57    34    32    1
    58    58    56   ar
    59    24    28   am
    60    24    25    2
    61   105   104    2
    62    62    61    2
    63   126   125    2
    64    28    29    1
    65    53    52    1
    66    53    54   ar
    67    84    83    1
    68    61    66   am
    69   106   108    1
    70   106   103    1
    71    52    49    1
    72   124   125    1
    73   157   156    2
    74    33    32    1
    75    32    29    1
    76    86    83    1
    77    86    88    1
    78   125   127   am
    79    56    54   ar
    80    83    82    1
    81    29    30    1
    82   104   103    1
    83   103   102    1
    84   149   148    1
    85    51    50    2
    86    66    67    1
    87   150   148    1
    88   156   155    1
    89   156   158   am
    90    49    50    1
    91    49    48    1
    92   171   170    2
    93   155   152    1
    94   148   145    1
    95   170   169    1
    96   152   151    1
    97   152   153    1
    98    30    35   am
    99    30    31    2
   100   102    96   am
   101    67    70    1
   102    67    68    1
   103    70    71    1
   104   151   146   am
   105    97    96    2
   106    48    42   am
   107   147   146    2
   108    35    36    1
   109   146   145    1
   110   172   169    1
   111   172   173    1
   112   154   153    2
   113    96    95    1
   114   145   144    1
   115   169   168    1
   116    71    73   ar
   117    71    72   ar
   118    90    91    1
   119    93    92    2
   120    69    68    2
   121    68    74   am
   122    91    92    1
   123   173   174    1
   124    92    94   am
   125    42    43    2
   126    42    41    1
   127   177   176    1
   128   144   142   am
   129    36    37    1
   130    36    39    1
   131   161   162    2
   132   161   160    1
   133    94    95    1
   134    95    98    1
   135    40    37   am
   136    40    41    1
   137    37    38    2
   138   174   175    1
   139    44    41    1
   140    44    45    1
   141   100    99   ar
   142    74    75    1
   143   176   175    2
   144   176   178    1
   145   131   130    2
   146   142   143    2
   147   142   141    1
   148   128   129    1
   149   163   160    1
   150   159   160    1
   151    47    45   ar
   152    98    99    1
   153    99   101   ar
   154    45    46   ar
   155   139   138    2
   156   141   140    1
   157    75    76    1
   158    75    78    1
   159   130   129    1
   160   130   132   am
   161    79    81    1
   162    79    78    1
   163    79    80    1
   164    76    77    2
   165   138   140   am
   166   138   137    1
   167   133   132    1
   168   133   134    1
   169   135   134    2
   170   134   136   am
   171   136   137    1
