@<TRIPOS>MOLECULE
tmp/5lw1H01.pdb
 99 95 0 0 0
SMALL
GASTEIGER

@<TRIPOS>ATOM
      1  N        253.5840  -22.6970  -11.4340 N.3   171  THR171     -0.1218
      2  CA       252.8460  -23.2440  -12.5680 C.3   171  THR171      0.1862
      3  C        251.5680  -22.4710  -12.8680 C.2   171  THR171      0.2287
      4  O        251.1410  -22.4200  -14.0280 O.2   171  THR171     -0.2866
      5  CB       252.4960  -24.7120  -12.3180 C.3   171  THR171      0.1770
      6  OG1      251.6200  -24.8060  -11.1890 O.3   171  THR171     -0.2211
      7  CG2      253.7550  -25.5230  -12.0490 C.3   171  THR171      0.0375
      8  N        257.2120  -26.8340  -18.8510 N.3   189  VAL189     -0.1231
      9  CA       256.7420  -26.4760  -17.5170 C.3   189  VAL189      0.1692
     10  C        256.1520  -27.6910  -16.8100 C.2   189  VAL189      0.2592
     11  O        256.3370  -27.8730  -15.6010 O.2   189  VAL189     -0.2718
     12  CB       255.7270  -25.3210  -17.6080 C.3   189  VAL189      0.0266
     13  CG1      255.3220  -24.8500  -16.2190 C.3   189  VAL189      0.0020
     14  CG2      256.2990  -24.1730  -18.4270 C.3   189  VAL189      0.0020
     15  N        255.4240  -28.5330  -17.5480 N.am  190  ILE190     -0.1966
     16  CA       254.7920  -29.7100  -16.9530 C.3   190  ILE190      0.1727
     17  C        255.8360  -30.6250  -16.3240 C.2   190  ILE190      0.2616
     18  O        255.7300  -31.0040  -15.1510 O.2   190  ILE190     -0.2715
     19  CB       253.9560  -30.4610  -18.0060 C.3   190  ILE190      0.0290
     20  CG1      252.8440  -29.5630  -18.5520 C.3   190  ILE190      0.0022
     21  CG2      253.3760  -31.7370  -17.4150 C.3   190  ILE190      0.0023
     22  CD1      252.0870  -30.1720  -19.7120 C.3   190  ILE190      0.0001
     23  N        256.8610  -30.9910  -17.0900 N.am  191  LEU191     -0.1963
     24  CA       257.8330  -31.9930  -16.6720 C.3   191  LEU191      0.1728
     25  C        258.9660  -31.4240  -15.8250 C.2   191  LEU191      0.2617
     26  O        259.9780  -32.1060  -15.6330 O.2   191  LEU191     -0.2715
     27  CB       258.4100  -32.7020  -17.8990 C.3   191  LEU191      0.0311
     28  CG       257.3840  -33.3810  -18.8080 C.3   191  LEU191      0.0022
     29  CD1      258.0710  -34.0660  -19.9790 C.3   191  LEU191      0.0001
     30  CD2      256.5410  -34.3720  -18.0190 C.3   191  LEU191      0.0001
     31  N        258.8220  -30.2070  -15.3090 N.am  192  GLY192     -0.1940
     32  CA       259.8300  -29.6570  -14.4240 C.3   192  GLY192      0.2014
     33  C        261.1550  -29.3370  -15.0740 C.2   192  GLY192      0.2639
     34  O        262.1590  -29.1920  -14.3720 O.2   192  GLY192     -0.2714
     35  N        261.1920  -29.2290  -16.3980 N.am  193  MET193     -0.1963
     36  CA       262.3820  -28.7680  -17.0920 C.3   193  MET193      0.1736
     37  C        262.4640  -27.2440  -17.0340 C.2   193  MET193      0.2617
     38  O        261.5120  -26.5560  -16.6540 O.2   193  MET193     -0.2715
     39  CB       262.3640  -29.2460  -18.5430 C.3   193  MET193      0.0427
     40  CG       262.1760  -30.7480  -18.7010 C.3   193  MET193      0.0599
     41  SD       261.5940  -31.2180  -20.3430 S.3   193  MET193     -0.1393
     42  CE       262.8530  -30.4820  -21.3820 C.3   193  MET193      0.0692
     43  N        263.6230  -26.7100  -17.4110 N.am  194  GLY194     -0.1955
     44  CA       263.7280  -25.2830  -17.6180 C.3   194  GLY194      0.1869
     45  C        262.9090  -24.8340  -18.8120 C.2   194  GLY194      0.2309
     46  O        262.5940  -25.6130  -19.7120 O.2   194  GLY194     -0.2863
     47  N        246.7510  -32.0480  -13.2300 N.3   223  TYR223     -0.1227
     48  CA       248.0620  -31.5550  -13.6460 C.3   223  TYR223      0.1736
     49  C        248.8400  -32.6330  -14.3920 C.2   223  TYR223      0.2595
     50  O        249.2620  -32.4360  -15.5370 O.2   223  TYR223     -0.2718
     51  CB       248.8620  -31.0520  -12.4390 C.3   223  TYR223      0.0548
     52  CG       250.2100  -30.4470  -12.8060 C.ar  223  TYR223     -0.0200
     53  CD1      251.2750  -31.2440  -13.2190 C.ar  223  TYR223     -0.0009
     54  CD2      250.4160  -29.0760  -12.7400 C.ar  223  TYR223     -0.0009
     55  CE1      252.4900  -30.6930  -13.5690 C.ar  223  TYR223      0.0417
     56  CE2      251.6370  -28.5170  -13.0770 C.ar  223  TYR223      0.0417
     57  CZ       252.6700  -29.3320  -13.4870 C.ar  223  TYR223      0.1957
     58  OH       253.8880  -28.7880  -13.8250 O.3   223  TYR223     -0.2866
     59  N        249.0460  -33.7860  -13.7500 N.am  224  ILE224     -0.1980
     60  CA       249.8840  -34.8170  -14.3480 C.3   224  ILE224      0.1595
     61  C        249.1740  -35.5010  -15.5080 C.2   224  ILE224      0.2287
     62  O        249.8310  -36.1000  -16.3680 O.2   224  ILE224     -0.2864
     63  CB       250.3220  -35.8350  -13.2730 C.3   224  ILE224      0.0276
     64  CG1      251.5610  -36.6080  -13.7290 C.3   224  ILE224      0.0022
     65  CG2      249.1950  -36.7960  -12.9360 C.3   224  ILE224      0.0022
     66  CD1      252.8080  -35.7560  -13.8340 C.3   224  ILE224      0.0001
     67  N        266.8680  -35.1820  -21.0550 N.3   244  LYS244     -0.1231
     68  CA       266.9620  -33.9500  -20.2840 C.3   244  LYS244      0.1693
     69  C        266.2270  -34.0240  -18.9520 C.2   244  LYS244      0.2592
     70  O        266.3790  -33.1120  -18.1320 O.2   244  LYS244     -0.2718
     71  CB       266.3830  -32.7870  -21.0930 C.3   244  LYS244      0.0285
     72  CG       267.0150  -32.5520  -22.4560 C.3   244  LYS244      0.0035
     73  CD       266.2810  -31.4290  -23.1830 C.3   244  LYS244      0.0206
     74  CE       266.7030  -31.3170  -24.6370 C.3   244  LYS244      0.1093
     75  NZ       268.1230  -30.9040  -24.7550 N.3   244  LYS244     -0.1314
     76  N        265.4390  -35.0660  -18.7120 N.am  245  LEU245     -0.1966
     77  CA       264.6200  -35.1100  -17.5100 C.3   245  LEU245      0.1728
     78  C        265.4150  -35.6370  -16.3210 C.2   245  LEU245      0.2616
     79  O        266.3640  -36.4150  -16.4720 O.2   245  LEU245     -0.2715
     80  CB       263.3750  -35.9760  -17.7290 C.3   245  LEU245      0.0311
     81  CG       262.1700  -35.4490  -18.5240 C.3   245  LEU245      0.0022
     82  CD1      262.5400  -34.9990  -19.9310 C.3   245  LEU245      0.0001
     83  CD2      261.0890  -36.5130  -18.5900 C.3   245  LEU245      0.0001
     84  N        265.0200  -35.1960  -15.1290 N.am  246  GLN246     -0.1977
     85  CA       265.5890  -35.7300  -13.9080 C.3   246  GLN246      0.1601
     86  C        265.1680  -37.1910  -13.7520 C.2   246  GLN246      0.2287
     87  O        264.1620  -37.6180  -14.3230 O.2   246  GLN246     -0.2864
     88  CB       265.1510  -34.8960  -12.7050 C.3   246  GLN246      0.0394
     89  CG       263.7270  -35.1340  -12.2520 C.3   246  GLN246      0.0908
     90  CD       263.6550  -35.6030  -10.8130 C.2   246  GLN246      0.2608
     91  OE1      264.5770  -36.2470  -10.3150 O.2   246  GLN246     -0.2717
     92  NE2      262.5610  -35.2730  -10.1340 N.am  246  GLN246     -0.0878
     93  N        261.3340  -38.1000  -12.8000 N.3   249  VAL249     -0.1245
     94  CA       260.4040  -37.6920  -13.8520 C.3   249  VAL249      0.1561
     95  C        260.6420  -38.4980  -15.1230 C.2   249  VAL249      0.2260
     96  O        259.6940  -38.8620  -15.8300 O.2   249  VAL249     -0.2867
     97  CB       260.5160  -36.1780  -14.1090 C.3   249  VAL249      0.0252
     98  CG1      259.5690  -35.7530  -15.2210 C.3   249  VAL249      0.0019
     99  CG2      260.2150  -35.4050  -12.8370 C.3   249  VAL249      0.0019
@<TRIPOS>BOND
     1    75    74    1
     2    74    73    1
     3    73    72    1
     4    72    71    1
     5    42    41    1
     6    71    68    1
     7    67    68    1
     8    41    40    1
     9    68    69    1
    10    29    28    1
    11    82    81    1
    12    46    45    2
    13    22    20    1
    14    69    76   am
    15    69    70    2
    16     8     9    1
    17    45    44    1
    18    28    30    1
    19    28    27    1
    20    76    77    1
    21    40    39    1
    22    83    81    1
    23    20    19    1
    24    39    36    1
    25    81    80    1
    26    14    12    1
    27    19    21    1
    28    19    16    1
    29    27    24    1
    30    80    77    1
    31    44    43    1
    32    12     9    1
    33    12    13    1
    34    15    16    1
    35    15    10   am
    36     9    10    1
    37    77    78    1
    38    43    37   am
    39    36    37    1
    40    36    35    1
    41    23    24    1
    42    23    17   am
    43    37    38    2
    44    16    17    1
    45    10    11    2
    46    24    25    1
    47    79    78    2
    48    35    33   am
    49    62    61    2
    50    17    18    2
    51    78    84   am
    52    96    95    2
    53    25    26    2
    54    25    31   am
    55    50    49    2
    56    61    60    1
    57    31    32    1
    58    98    97    1
    59    84    85    1
    60    95    94    1
    61    33    32    1
    62    33    34    2
    63    49    59   am
    64    49    48    1
    65    60    59    1
    66    60    63    1
    67    87    86    2
    68    97    94    1
    69    97    99    1
    70     4     3    2
    71    85    86    1
    72    85    88    1
    73    94    93    1
    74    66    64    1
    75    58    57    1
    76    64    63    1
    77    48    47    1
    78    48    51    1
    79    55    57   ar
    80    55    53   ar
    81    57    56   ar
    82    63    65    1
    83    53    52   ar
    84    56    54   ar
    85     3     2    1
    86    52    54   ar
    87    52    51    1
    88    88    89    1
    89     2     5    1
    90     2     1    1
    91     5     7    1
    92     5     6    1
    93    89    90    1
    94    90    91    2
    95    90    92   am
