@<TRIPOS>MOLECULE
tmp/5lw1E00.pdb
 125 117 0 0 0
SMALL
GASTEIGER

@<TRIPOS>ATOM
      1  N        297.9310  -33.0380    3.7850 N.3    25  ILE25      -0.1231
      2  CA       299.1480  -32.7700    4.5460 C.3    25  ILE25       0.1692
      3  C        298.8540  -32.5910    6.0310 C.2    25  ILE25       0.2593
      4  O        299.7760  -32.5890    6.8530 O.2    25  ILE25      -0.2718
      5  CB       299.8820  -31.5320    3.9980 C.3    25  ILE25       0.0266
      6  CG1      298.9330  -30.3340    3.9260 C.3    25  ILE25       0.0019
      7  CG2      300.4930  -31.8340    2.6400 C.3    25  ILE25       0.0020
      8  CD1      299.5960  -29.0550    3.4560 C.3    25  ILE25       0.0001
      9  N        297.5870  -32.4380    6.3940 N.am   26  GLY26      -0.1942
     10  CA       297.2580  -32.2320    7.7920 C.3    26  GLY26       0.2014
     11  C        295.7620  -32.1870    8.0180 C.2    26  GLY26       0.2640
     12  O        294.9720  -31.9840    7.0890 O.2    26  GLY26      -0.2714
     13  N        295.3910  -32.3840    9.2820 N.am   27  SER27      -0.1935
     14  CA       294.0130  -32.2930    9.7440 C.3    27  SER27       0.2055
     15  C        293.9240  -31.2240   10.8240 C.2    27  SER27       0.2643
     16  O        294.7350  -31.2100   11.7550 O.2    27  SER27      -0.2714
     17  CB       293.5210  -33.6380   10.2860 C.3    27  SER27       0.2130
     18  OG       292.3130  -33.4860   11.0110 O.3    27  SER27      -0.2179
     19  N        292.9430  -30.3340   10.6980 N.am   28  GLY28      -0.1954
     20  CA       292.7660  -29.2760   11.6740 C.3    28  GLY28       0.1869
     21  C        291.3640  -29.2090   12.2440 C.2    28  GLY28       0.2309
     22  O        290.5260  -30.0680   11.9530 O.2    28  GLY28      -0.2863
     23  N        293.5470  -29.9170    5.4250 N.3    33  VAL33      -0.1245
     24  CA       294.4680  -29.1150    4.6290 C.3    33  VAL33       0.1561
     25  C        295.2530  -30.0560    3.7270 C.2    33  VAL33       0.2260
     26  O        295.8130  -31.0530    4.1980 O.2    33  VAL33      -0.2867
     27  CB       295.4130  -28.2880    5.5180 C.3    33  VAL33       0.0252
     28  CG1      296.2720  -27.3690    4.6640 C.3    33  VAL33       0.0019
     29  CG2      294.6200  -27.4940    6.5430 C.3    33  VAL33       0.0019
     30  N        299.0890  -24.6080   -0.6640 N.3    46  ALA46      -0.1245
     31  CA       298.2900  -25.3330    0.3160 C.3    46  ALA46       0.1562
     32  C        296.8630  -24.8020    0.3040 C.2    46  ALA46       0.2260
     33  O        296.6470  -23.5880    0.2560 O.2    46  ALA46      -0.2867
     34  CB       298.8750  -25.2120    1.7300 C.3    46  ALA46       0.0290
     35  N        302.0320  -16.6170    7.6290 N.3    79  ILE79      -0.1245
     36  CA       301.6320  -17.2160    6.3630 C.3    79  ILE79       0.1561
     37  C        300.8070  -16.2340    5.5290 C.2    79  ILE79       0.2260
     38  O        300.0410  -15.4140    6.0540 O.2    79  ILE79      -0.2867
     39  CB       300.8700  -18.5300    6.6110 C.3    79  ILE79       0.0252
     40  CG1      300.8860  -19.4020    5.3550 C.3    79  ILE79       0.0019
     41  CG2      299.4430  -18.2630    7.0740 C.3    79  ILE79       0.0019
     42  CD1      300.5520  -20.8420    5.6320 C.3    79  ILE79       0.0001
     43  N        297.0170  -20.8150    0.3530 N.3   101  MET101     -0.1230
     44  CA       298.0800  -20.1330    1.0790 C.3   101  MET101      0.1702
     45  C        299.4370  -20.7380    0.7340 C.2   101  MET101      0.2592
     46  O        299.5350  -21.7630    0.0540 O.2   101  MET101     -0.2718
     47  CB       297.8430  -20.2000    2.5930 C.3   101  MET101      0.0401
     48  CG       298.0750  -21.5770    3.1820 C.3   101  MET101      0.0596
     49  SD       297.1350  -21.8430    4.6930 S.3   101  MET101     -0.1393
     50  CE       295.5120  -22.1470    4.0080 C.3   101  MET101      0.0692
     51  N        300.4920  -20.0760    1.2120 N.am  102  GLU102     -0.1966
     52  CA       301.8540  -20.5460    0.9870 C.3   102  GLU102      0.1733
     53  C        302.0670  -21.9110    1.6300 C.2   102  GLU102      0.2616
     54  O        301.6240  -22.1620    2.7540 O.2   102  GLU102     -0.2715
     55  CB       302.8640  -19.5460    1.5550 C.3   102  GLU102      0.0429
     56  CG       302.6230  -18.0990    1.1570 C.3   102  GLU102      0.1163
     57  CD       303.5420  -17.1340    1.8880 C.2   102  GLU102      0.3649
     58  OE1      303.6540  -17.2440    3.1280 O.co2 102  GLU102     -0.2457
     59  OE2      304.1550  -16.2710    1.2250 O.co2 102  GLU102     -0.2457
     60  N        302.7500  -22.7970    0.9090 N.am  103  LEU103     -0.1963
     61  CA       302.9530  -24.1690    1.3580 C.3   103  LEU103      0.1728
     62  C        304.2770  -24.2970    2.1040 C.2   103  LEU103      0.2616
     63  O        305.3470  -24.0770    1.5250 O.2   103  LEU103     -0.2715
     64  CB       302.9200  -25.1370    0.1770 C.3   103  LEU103      0.0311
     65  CG       303.2470  -26.5870    0.5410 C.3   103  LEU103      0.0022
     66  CD1      302.2240  -27.1290    1.5240 C.3   103  LEU103      0.0001
     67  CD2      303.3250  -27.4620   -0.6970 C.3   103  LEU103      0.0001
     68  N        304.2020  -24.6500    3.3830 N.am  104  MET104     -0.1963
     69  CA       305.3770  -24.9300    4.1950 C.3   104  MET104      0.1736
     70  C        305.6020  -26.4380    4.2820 C.2   104  MET104      0.2616
     71  O        304.7860  -27.2420    3.8240 O.2   104  MET104     -0.2715
     72  CB       305.2360  -24.3110    5.5880 C.3   104  MET104      0.0427
     73  CG       305.2410  -22.7900    5.5800 C.3   104  MET104      0.0599
     74  SD       306.8260  -22.1020    5.0610 S.3   104  MET104     -0.1393
     75  CE       307.6810  -22.0030    6.6310 C.3   104  MET104      0.0692
     76  N        306.7280  -26.8190    4.8870 N.am  105  ASP105     -0.1957
     77  CA       307.1590  -28.2130    4.8560 C.3   105  ASP105      0.1840
     78  C        306.5990  -29.0480    6.0040 C.2   105  ASP105      0.2622
     79  O        306.2290  -30.2080    5.7920 O.2   105  ASP105     -0.2715
     80  CB       308.6880  -28.2890    4.8580 C.3   105  ASP105      0.1450
     81  CG       309.2970  -27.8000    3.5580 C.2   105  ASP105      0.3671
     82  OD1      308.5420  -27.2870    2.7040 O.co2 105  ASP105     -0.2456
     83  OD2      310.5270  -27.9280    3.3900 O.co2 105  ASP105     -0.2456
     84  N        306.5200  -28.4940    7.2120 N.am  106  ALA106     -0.1963
     85  CA       306.0230  -29.2370    8.3650 C.3   106  ALA106      0.1728
     86  C        305.6780  -28.2530    9.4760 C.2   106  ALA106      0.2616
     87  O        305.9220  -27.0500    9.3650 O.2   106  ALA106     -0.2715
     88  CB       307.0450  -30.2750    8.8400 C.3   106  ALA106      0.0334
     89  N        305.1110  -28.7820   10.5560 N.am  107  ASN107     -0.1972
     90  CA       304.7710  -28.0080   11.7400 C.3   107  ASN107      0.1688
     91  C        305.8210  -28.2120   12.8300 C.2   107  ASN107      0.2292
     92  O        306.7330  -29.0330   12.7090 O.2   107  ASN107     -0.2864
     93  CB       303.3800  -28.3900   12.2600 C.3   107  ASN107      0.1181
     94  CG       303.3090  -29.8240   12.7420 C.2   107  ASN107      0.2629
     95  OD1      303.9330  -30.7160   12.1670 O.2   107  ASN107     -0.2716
     96  ND2      302.5520  -30.0520   13.8080 N.am  107  ASN107     -0.0877
     97  N        301.0140  -26.9250   16.5690 N.3   148  SER148     -0.1202
     98  CA       300.2290  -27.2880   15.3950 C.3   148  SER148      0.2020
     99  C        299.9860  -26.1090   14.4610 C.2   148  SER148      0.2618
    100  O        299.8810  -26.3040   13.2450 O.2   148  SER148     -0.2717
    101  CB       298.8940  -27.8920   15.8190 C.3   148  SER148      0.2103
    102  OG       298.0060  -26.8940   16.2910 O.3   148  SER148     -0.2182
    103  N        299.8910  -24.8890   14.9880 N.am  149  ASN149     -0.1974
    104  CA       299.6520  -23.7200   14.1540 C.3   149  ASN149      0.1688
    105  C        300.9150  -22.9000   13.9240 C.2   149  ASN149      0.2292
    106  O        300.8290  -21.7000   13.6400 O.2   149  ASN149     -0.2864
    107  CB       298.5500  -22.8450   14.7520 C.3   149  ASN149      0.1181
    108  CG       298.7970  -22.4960   16.2050 C.2   149  ASN149      0.2629
    109  OD1      299.8330  -21.9350   16.5600 O.2   149  ASN149     -0.2716
    110  ND2      297.8180  -22.7920   17.0510 N.am  149  ASN149     -0.0877
    111  N        304.4020  -23.3900   11.5450 N.3   151  VAL151     -0.1245
    112  CA       304.9910  -24.2350   10.5170 C.3   151  VAL151      0.1561
    113  C        306.3980  -23.7480   10.1980 C.2   151  VAL151      0.2260
    114  O        306.7430  -22.5790   10.3970 O.2   151  VAL151     -0.2867
    115  CB       304.1290  -24.2720    9.2390 C.3   151  VAL151      0.0252
    116  CG1      302.8910  -25.1250    9.4610 C.3   151  VAL151      0.0019
    117  CG2      303.7350  -22.8630    8.8290 C.3   151  VAL151      0.0019
    118  N        300.3870  -19.9910   11.5140 N.3   161  LEU161     -0.1245
    119  CA       299.3150  -20.4290   10.6240 C.3   161  LEU161      0.1561
    120  C        298.0600  -19.5720   10.7640 C.2   161  LEU161      0.2260
    121  O        297.5430  -19.0530    9.7680 O.2   161  LEU161     -0.2867
    122  CB       298.9800  -21.8970   10.8950 C.3   161  LEU161      0.0270
    123  CG       299.8370  -22.9520   10.1900 C.3   161  LEU161      0.0019
    124  CD1      299.2910  -24.3430   10.4630 C.3   161  LEU161      0.0001
    125  CD2      299.8970  -22.6820    8.6990 C.3   161  LEU161      0.0001
@<TRIPOS>BOND
     1    67    65    1
     2    30    31    1
     3    46    45    2
     4    64    65    1
     5    64    61    1
     6    33    32    2
     7    32    31    1
     8    31    34    1
     9    43    44    1
    10    65    66    1
    11    45    44    1
    12    45    51   am
    13    60    61    1
    14    60    53   am
    15    52    51    1
    16    52    55    1
    17    52    53    1
    18    44    47    1
    19    56    55    1
    20    56    57    1
    21    59    57   ar
    22    61    62    1
    23    63    62    2
    24    53    54    2
    25    57    58   ar
    26    62    68   am
    27    47    48    1
    28     7     5    1
    29    82    81   ar
    30    48    49    1
    31    68    69    1
    32    83    81   ar
    33     8     6    1
    34    81    80    1
    35    25    26    2
    36    25    24    1
    37     1     2    1
    38    71    70    2
    39     6     5    1
    40     5     2    1
    41    50    49    1
    42    69    70    1
    43    69    72    1
    44    70    76   am
    45     2     3    1
    46    24    23    1
    47    24    27    1
    48    28    27    1
    49    77    80    1
    50    77    76    1
    51    77    78    1
    52    74    73    1
    53    74    75    1
    54    40    42    1
    55    40    39    1
    56    27    29    1
    57    37    38    2
    58    37    36    1
    59    73    72    1
    60    79    78    2
    61    78    84   am
    62     3     9   am
    63     3     4    2
    64    36    39    1
    65    36    35    1
    66     9    10    1
    67    39    41    1
    68    12    11    2
    69    84    85    1
    70    10    11    1
    71    11    13   am
    72    85    88    1
    73    85    86    1
    74   125   123    1
    75   117   115    1
    76   115   116    1
    77   115   112    1
    78    13    14    1
    79    87    86    2
    80    86    89   am
    81    14    17    1
    82    14    15    1
    83   121   120    2
    84   123   124    1
    85   123   122    1
    86   113   114    2
    87   113   112    1
    88    17    18    1
    89   112   111    1
    90    89    90    1
    91   119   120    1
    92   119   122    1
    93   119   118    1
    94    19    15   am
    95    19    20    1
    96    15    16    2
    97    20    21    1
    98    90    93    1
    99    90    91    1
   100    22    21    2
   101    95    94    2
   102    93    94    1
   103    92    91    2
   104    94    96   am
   105   100    99    2
   106   106   105    2
   107   105   104    1
   108   104   107    1
   109   104   103    1
   110    99   103   am
   111    99    98    1
   112   107   108    1
   113    98   101    1
   114    98    97    1
   115   101   102    1
   116   108   109    2
   117   108   110   am
