@<TRIPOS>MOLECULE
tmp/5lw1G00.pdb
 123 116 0 0 0
SMALL
GASTEIGER

@<TRIPOS>ATOM
      1  N        256.8830  -39.1710   -5.5540 N.3    77  PHE77      -0.1227
      2  CA       256.7820  -38.1920   -6.6310 C.3    77  PHE77       0.1736
      3  C        255.3270  -37.9180   -6.9920 C.2    77  PHE77       0.2595
      4  O        254.9380  -36.7610   -7.1910 O.2    77  PHE77      -0.2718
      5  CB       257.5760  -38.6900   -7.8400 C.3    77  PHE77       0.0547
      6  CG       257.2030  -38.0400   -9.1410 C.ar   77  PHE77      -0.0202
      7  CD1      257.4250  -36.6900   -9.3510 C.ar   77  PHE77      -0.0042
      8  CD2      256.6610  -38.7920  -10.1700 C.ar   77  PHE77      -0.0042
      9  CE1      257.0900  -36.0980  -10.5550 C.ar   77  PHE77      -0.0003
     10  CE2      256.3260  -38.2050  -11.3760 C.ar   77  PHE77      -0.0003
     11  CZ       256.5400  -36.8570  -11.5690 C.ar   77  PHE77      -0.0000
     12  N        254.5080  -38.9660   -7.0760 N.am   78  LEU78      -0.1980
     13  CA       253.1100  -38.8270   -7.4630 C.3    78  LEU78       0.1596
     14  C        252.1730  -38.5980   -6.2820 C.2    78  LEU78       0.2287
     15  O        250.9980  -38.2850   -6.5020 O.2    78  LEU78      -0.2864
     16  CB       252.6600  -40.0650   -8.2440 C.3    78  LEU78       0.0297
     17  CG       253.4510  -40.3190   -9.5280 C.3    78  LEU78       0.0022
     18  CD1      253.2950  -41.7570   -9.9790 C.3    78  LEU78       0.0001
     19  CD2      253.0180  -39.3610  -10.6250 C.3    78  LEU78       0.0001
     20  N        271.0040  -39.2210   -9.2950 N.3   100  ASP100     -0.1239
     21  CA       271.4220  -37.8700   -8.9520 C.3   100  ASP100      0.1674
     22  C        271.3730  -37.5960   -7.4520 C.2   100  ASP100      0.2266
     23  O        271.3590  -36.4310   -7.0410 O.2   100  ASP100     -0.2867
     24  CB       270.5700  -36.8510   -9.7080 C.3   100  ASP100      0.1410
     25  CG       270.8700  -36.8330  -11.1960 C.2   100  ASP100      0.3668
     26  OD1      271.8040  -37.5430  -11.6230 O.co2 100  ASP100     -0.2456
     27  OD2      270.1720  -36.1100  -11.9380 O.co2 100  ASP100     -0.2456
     28  N        269.0140  -38.2680   -5.0740 N.3   102  LEU102     -0.1245
     29  CA       267.7540  -37.8560   -4.4670 C.3   102  LEU102      0.1561
     30  C        267.1290  -38.9990   -3.6760 C.2   102  LEU102      0.2260
     31  O        267.0000  -40.1190   -4.1810 O.2   102  LEU102     -0.2867
     32  CB       266.7730  -37.3670   -5.5320 C.3   102  LEU102      0.0270
     33  CG       267.1900  -36.1370   -6.3330 C.3   102  LEU102      0.0019
     34  CD1      266.3410  -36.0090   -7.5860 C.3   102  LEU102      0.0001
     35  CD2      267.0710  -34.8940   -5.4710 C.3   102  LEU102      0.0001
     36  N        260.0250  -31.5630   -2.7800 N.3   110  ILE110     -0.1231
     37  CA       259.9750  -30.8680   -4.0650 C.3   110  ILE110      0.1692
     38  C        258.5320  -30.6020   -4.4720 C.2   110  ILE110      0.2592
     39  O        258.1740  -29.4890   -4.8780 O.2   110  ILE110     -0.2718
     40  CB       260.7080  -31.6810   -5.1480 C.3   110  ILE110      0.0266
     41  CG1      262.2170  -31.6560   -4.9300 C.3   110  ILE110      0.0019
     42  CG2      260.3760  -31.1440   -6.5300 C.3   110  ILE110      0.0020
     43  CD1      262.9660  -32.5850   -5.8560 C.3   110  ILE110      0.0001
     44  N        257.6800  -31.6170   -4.3590 N.am  111  HIS111     -0.1976
     45  CA       256.3300  -31.5600   -4.8960 C.3   111  HIS111      0.1656
     46  C        255.2800  -31.2900   -3.8250 C.2   111  HIS111      0.2291
     47  O        254.0810  -31.3870   -4.1080 O.2   111  HIS111     -0.2864
     48  CB       256.0220  -32.8670   -5.6280 C.3   111  HIS111      0.0771
     49  CG       257.0740  -33.2650   -6.6180 C.ar  111  HIS111      0.0820
     50  ND1      258.2290  -33.9180   -6.2490 N.ar  111  HIS111     -0.2267
     51  CD2      257.1510  -33.0940   -7.9580 C.ar  111  HIS111      0.1154
     52  CE1      258.9700  -34.1390   -7.3210 C.ar  111  HIS111      0.1986
     53  NE2      258.3390  -33.6460   -8.3710 N.ar  111  HIS111     -0.2212
     54  N        254.2110  -32.7340   -0.8500 N.3   113  HIS113     -0.1241
     55  CA       253.3500  -33.7660   -0.2700 C.3   113  HIS113      0.1621
     56  C        253.7030  -33.8870    1.2080 C.2   113  HIS113      0.2264
     57  O        254.5140  -34.7220    1.6090 O.2   113  HIS113     -0.2867
     58  CB       253.5040  -35.0920   -1.0050 C.3   113  HIS113      0.0745
     59  CG       253.1430  -35.0250   -2.4560 C.ar  113  HIS113      0.0817
     60  ND1      254.0730  -34.7970   -3.4470 N.ar  113  HIS113     -0.2268
     61  CD2      251.9480  -35.1500   -3.0820 C.ar  113  HIS113      0.1154
     62  CE1      253.4680  -34.7930   -4.6220 C.ar  113  HIS113      0.1986
     63  NE2      252.1790  -35.0040   -4.4280 N.ar  113  HIS113     -0.2212
     64  N        272.1700  -34.1950   -2.0090 N.3   131  ASP131     -0.1239
     65  CA       272.1310  -34.8980   -3.2800 C.3   131  ASP131      0.1674
     66  C        273.3790  -34.5770   -4.1060 C.2   131  ASP131      0.2266
     67  O        274.4070  -34.1450   -3.5620 O.2   131  ASP131     -0.2867
     68  CB       270.8350  -34.5360   -4.0170 C.3   131  ASP131      0.1410
     69  CG       270.7890  -33.0780   -4.4360 C.2   131  ASP131      0.3668
     70  OD1      271.4540  -32.2490   -3.7810 O.co2 131  ASP131     -0.2456
     71  OD2      270.0830  -32.7580   -5.4170 O.co2 131  ASP131     -0.2456
     72  N        273.9270  -32.1560   -5.8390 N.3   133  PHE133     -0.1241
     73  CA       274.2180  -30.7320   -5.7840 C.3   133  PHE133      0.1605
     74  C        274.2480  -30.1950   -4.3600 C.2   133  PHE133      0.2264
     75  O        274.2440  -28.9730   -4.1680 O.2   133  PHE133     -0.2867
     76  CB       273.1990  -29.9580   -6.6220 C.3   133  PHE133      0.0534
     77  CG       272.9530  -30.5520   -7.9810 C.ar  133  PHE133     -0.0203
     78  CD1      271.9870  -31.5280   -8.1650 C.ar  133  PHE133     -0.0042
     79  CD2      273.6900  -30.1310   -9.0770 C.ar  133  PHE133     -0.0042
     80  CE1      271.7620  -32.0760   -9.4120 C.ar  133  PHE133     -0.0003
     81  CE2      273.4680  -30.6740  -10.3290 C.ar  133  PHE133     -0.0003
     82  CZ       272.5020  -31.6470  -10.4960 C.ar  133  PHE133     -0.0000
     83  N        271.9570  -30.2530   -2.0460 N.3   135  LYS135     -0.1245
     84  CA       270.7000  -29.6900   -1.5750 C.3   135  LYS135      0.1561
     85  C        269.9690  -30.6900   -0.6880 C.2   135  LYS135      0.2260
     86  O        269.7370  -31.8360   -1.0890 O.2   135  LYS135     -0.2867
     87  CB       269.8120  -29.2810   -2.7510 C.3   135  LYS135      0.0271
     88  CG       270.3050  -28.0590   -3.5090 C.3   135  LYS135      0.0035
     89  CD       269.2080  -27.4840   -4.3890 C.3   135  LYS135      0.0206
     90  CE       269.5470  -26.0800   -4.8560 C.3   135  LYS135      0.1093
     91  NZ       269.5510  -25.1100   -3.7270 N.3   135  LYS135     -0.1314
     92  N        265.0750  -27.8650   -0.9740 N.3   140  LEU140     -0.1245
     93  CA       264.1750  -28.0070   -2.1120 C.3   140  LEU140      0.1561
     94  C        262.7660  -27.5370   -1.7780 C.2   140  LEU140      0.2260
     95  O        262.0660  -27.0170   -2.6550 O.2   140  LEU140     -0.2867
     96  CB       264.1580  -29.4610   -2.5820 C.3   140  LEU140      0.0270
     97  CG       265.5140  -29.9930   -3.0490 C.3   140  LEU140      0.0019
     98  CD1      265.4390  -31.4740   -3.3670 C.3   140  LEU140      0.0001
     99  CD2      265.9960  -29.2100   -4.2590 C.3   140  LEU140      0.0001
    100  N        262.8800  -23.9510   -2.2960 N.3   143  ASP143     -0.1225
    101  CA       262.9210  -23.6370   -3.7190 C.3   143  ASP143      0.1805
    102  C        261.5610  -23.7820   -4.3880 C.2   143  ASP143      0.2597
    103  O        261.3200  -23.1480   -5.4220 O.2   143  ASP143     -0.2718
    104  CB       263.9380  -24.5350   -4.4280 C.3   143  ASP143      0.1424
    105  CG       265.3710  -24.2070   -4.0510 C.2   143  ASP143      0.3668
    106  OD1      265.5890  -23.1800   -3.3720 O.co2 143  ASP143     -0.2456
    107  OD2      266.2760  -24.9810   -4.4290 O.co2 143  ASP143     -0.2456
    108  N        260.6670  -24.5960   -3.8290 N.am  144  ASN144     -0.1974
    109  CA       259.3440  -24.8020   -4.4060 C.3   144  ASN144      0.1688
    110  C        258.2300  -24.1410   -3.6030 C.2   144  ASN144      0.2292
    111  O        257.0520  -24.3300   -3.9250 O.2   144  ASN144     -0.2864
    112  CB       259.0610  -26.2980   -4.5600 C.3   144  ASN144      0.1181
    113  CG       259.8580  -26.9290   -5.6850 C.2   144  ASN144      0.2629
    114  OD1      259.4060  -26.9790   -6.8300 O.2   144  ASN144     -0.2716
    115  ND2      261.0520  -27.4130   -5.3650 N.am  144  ASN144     -0.0877
    116  N        257.0310  -24.5420   -0.4970 N.3   146  ASN146     -0.1240
    117  CA       256.2060  -25.3450    0.4060 C.3   146  ASN146      0.1653
    118  C        256.6290  -25.0200    1.8360 C.2   146  ASN146      0.2266
    119  O        257.4220  -25.7240    2.4620 O.2   146  ASN146     -0.2867
    120  CB       256.3400  -26.8290    0.0820 C.3   146  ASN146      0.1155
    121  CG       255.9780  -27.1420   -1.3560 C.2   146  ASN146      0.2627
    122  OD1      254.9620  -26.6690   -1.8690 O.2   146  ASN146     -0.2716
    123  ND2      256.8130  -27.9320   -2.0180 N.am  146  ASN146     -0.0877
@<TRIPOS>BOND
     1    27    25   ar
     2    26    25   ar
     3    11    10   ar
     4    11     9   ar
     5    10     8   ar
     6    25    24    1
     7    19    17    1
     8     9     7   ar
     9    82    81   ar
    10    82    80   ar
    11    81    79   ar
    12     8     6   ar
    13    18    17    1
    14    24    21    1
    15    17    16    1
    16    80    78   ar
    17     7     6   ar
    18    20    21    1
    19     6     5    1
    20    79    77   ar
    21    21    22    1
    22    53    51   ar
    23    53    52   ar
    24    16    13    1
    25    78    77   ar
    26    77    76    1
    27    51    49   ar
    28     5     2    1
    29    34    33    1
    30    13    12    1
    31    13    14    1
    32    22    23    2
    33    52    50   ar
    34     4     3    2
    35    12     3   am
    36     3     2    1
    37   114   113    2
    38     2     1    1
    39    76    73    1
    40    49    50   ar
    41    49    48    1
    42    42    40    1
    43    15    14    2
    44    33    32    1
    45    33    35    1
    46    43    41    1
    47    72    73    1
    48    73    74    1
    49   113   115   am
    50   113   112    1
    51    48    45    1
    52    32    29    1
    53   103   102    2
    54    71    69   ar
    55    40    41    1
    56    40    37    1
    57    28    29    1
    58    45    44    1
    59    45    46    1
    60    39    38    2
    61    90    89    1
    62    90    91    1
    63    62    63   ar
    64    62    60   ar
    65   112   109    1
    66    38    44   am
    67    38    37    1
    68    29    30    1
    69    69    68    1
    70    69    70   ar
    71   107   105   ar
    72    63    61   ar
    73   104   105    1
    74   104   101    1
    75   109   108    1
    76   109   110    1
    77    89    88    1
    78   102   108   am
    79   102   101    1
    80    74    75    2
    81    99    97    1
    82    31    30    2
    83    47    46    2
    84    66    67    2
    85    66    65    1
    86    37    36    1
    87   105   106   ar
    88    68    65    1
    89   111   110    2
    90   101   100    1
    91    88    87    1
    92    60    59   ar
    93    98    97    1
    94    65    64    1
    95    61    59   ar
    96    97    96    1
    97    87    84    1
    98    95    94    2
    99    96    93    1
   100    59    58    1
   101    93    94    1
   102    93    92    1
   103    83    84    1
   104   123   121   am
   105   122   121    2
   106    84    85    1
   107   121   120    1
   108    86    85    2
   109    58    55    1
   110    54    55    1
   111   116   117    1
   112    55    56    1
   113   120   117    1
   114   117   118    1
   115    56    57    2
   116   118   119    2
