@<TRIPOS>MOLECULE
tmp/5lw9A00.pdb
 196 189 0 0 0
SMALL
GASTEIGER

@<TRIPOS>ATOM
      1  N         83.9890   57.0360    5.1930 N.3    74  ARG74      -0.1231
      2  CA        83.6920   57.9080    6.3330 C.3    74  ARG74       0.1694
      3  C         83.6660   57.1400    7.6600 C.2    74  ARG74       0.2591
      4  O         84.0410   57.6730    8.7090 O.2    74  ARG74      -0.2718
      5  CB        82.3560   58.6230    6.1170 C.3    74  ARG74       0.0321
      6  CG        81.8990   59.4520    7.3040 C.3    74  ARG74       0.0489
      7  CD        80.4300   59.8270    7.1920 C.3    74  ARG74       0.2205
      8  NE        80.0500   60.8300    8.1830 N.pl3  74  ARG74      -0.0865
      9  CZ        80.1530   62.1410    7.9890 C.cat  74  ARG74       0.5346
     10  NH1       80.6310   62.6080    6.8430 N.pl3  74  ARG74       0.1354
     11  NH2       79.7840   62.9840    8.9420 N.pl3  74  ARG74       0.1354
     12  N         83.2170   55.8890    7.6040 N.am   75  VAL75      -0.1980
     13  CA        83.2280   55.0050    8.7670 C.3    75  VAL75       0.1595
     14  C         83.6620   53.5840    8.3740 C.2    75  VAL75       0.2287
     15  O         82.8880   52.8240    7.7860 O.2    75  VAL75      -0.2864
     16  CB        81.8420   54.9700    9.4650 C.3    75  VAL75       0.0276
     17  CG1       81.6960   56.1480   10.4280 C.3    75  VAL75       0.0022
     18  CG2       80.7140   54.9680    8.4350 C.3    75  VAL75       0.0022
     19  N         94.7570   55.9380   13.6650 N.3   128  TYR128     -0.1241
     20  CA        93.8870   56.9250   14.2610 C.3   128  TYR128      0.1605
     21  C         92.8060   56.2210   15.0690 C.2   128  TYR128      0.2264
     22  O         92.0100   55.4640   14.5130 O.2   128  TYR128     -0.2867
     23  CB        93.2670   57.8160   13.1600 C.3   128  TYR128      0.0534
     24  CG        92.6880   59.1360   13.6540 C.ar  128  TYR128     -0.0201
     25  CD1       92.9010   59.5730   14.9680 C.ar  128  TYR128     -0.0009
     26  CD2       92.0420   60.0030   12.7770 C.ar  128  TYR128     -0.0009
     27  CE1       92.4040   60.7940   15.4120 C.ar  128  TYR128      0.0417
     28  CE2       91.5580   61.2190   13.2000 C.ar  128  TYR128      0.0417
     29  CZ        91.7430   61.6210   14.5260 C.ar  128  TYR128      0.1957
     30  OH        91.2610   62.8440   14.9630 O.3   128  TYR128     -0.2866
     31  N         89.8150   56.6970   15.8180 N.3   130  ALA130     -0.1231
     32  CA        88.7820   57.6340   15.4340 C.3   130  ALA130      0.1694
     33  C         87.4210   57.0350   15.7050 C.2   130  ALA130      0.2592
     34  O         87.2760   55.8170   15.7350 O.2   130  ALA130     -0.2718
     35  CB        88.9330   58.0240   13.9610 C.3   130  ALA130      0.0304
     36  N         86.4380   57.9000   15.9400 N.am  131  ASP131     -0.1974
     37  CA        85.0450   57.4790   16.1130 C.3   131  ASP131      0.1709
     38  C         84.8640   56.3920   17.1880 C.2   131  ASP131      0.2293
     39  O         84.1790   55.3990   16.9980 O.2   131  ASP131     -0.2864
     40  CB        84.4870   57.0160   14.7620 C.3   131  ASP131      0.1436
     41  CG        84.4140   58.1510   13.7530 C.2   131  ASP131      0.3671
     42  OD1       83.9540   59.2450   14.1500 O.co2 131  ASP131     -0.2456
     43  OD2       84.8430   57.9640   12.5880 O.co2 131  ASP131     -0.2456
     44  N         69.3560   58.0380   17.5100 N.3   181  ILE181     -0.1231
     45  CA        70.2590   58.3080   16.4090 C.3   181  ILE181      0.1692
     46  C         71.6800   57.9160   16.7780 C.2   181  ILE181      0.2592
     47  O         72.4200   57.3470   15.9640 O.2   181  ILE181     -0.2718
     48  CB        70.2420   59.7820   16.0430 C.3   181  ILE181      0.0266
     49  CG1       68.8930   60.1670   15.4480 C.3   181  ILE181      0.0019
     50  CG2       71.3730   60.0830   15.0950 C.3   181  ILE181      0.0020
     51  CD1       68.5450   61.6110   15.7100 C.3   181  ILE181      0.0001
     52  N         72.0500   58.2520   18.0140 N.am  182  CYS182     -0.1956
     53  CA        73.3670   57.9590   18.5980 C.3   182  CYS182      0.1843
     54  C         74.5190   58.6090   17.8250 C.2   182  CYS182      0.2626
     55  O         75.3780   59.2760   18.4190 O.2   182  CYS182     -0.2714
     56  CB        73.5890   56.4410   18.7150 C.3   182  CYS182      0.0997
     57  SG        72.5190   55.6050   19.9390 S.3   182  CYS182     -0.0797
     58  N         74.5300   58.4280   16.5090 N.am  183  GLY183     -0.1954
     59  CA        75.4740   59.1240   15.6600 C.3   183  GLY183      0.1869
     60  C         75.4570   60.6270   15.8990 C.2   183  GLY183      0.2309
     61  O         76.4280   61.3140   15.5660 O.2   183  GLY183     -0.2863
     62  N         81.6430   61.5400   20.5220 N.3   188  TRP188     -0.1241
     63  CA        82.5880   60.5900   19.9520 C.3   188  TRP188      0.1605
     64  C         83.9920   61.0140   20.3330 C.2   188  TRP188      0.2264
     65  O         84.2570   62.1940   20.5080 O.2   188  TRP188     -0.2867
     66  CB        82.4080   60.5040   18.4310 C.3   188  TRP188      0.0550
     67  CG        81.0360   60.0130   18.1300 C.ar  188  TRP188      0.0003
     68  CD1       79.9060   60.7670   18.0010 C.ar  188  TRP188      0.0946
     69  CD2       80.6310   58.6490   17.9860 C.ar  188  TRP188      0.0152
     70  NE1       78.8270   59.9600   17.7760 N.ar  188  TRP188     -0.2442
     71  CE2       79.2450   58.6530   17.7580 C.ar  188  TRP188      0.0810
     72  CE3       81.3090   57.4260   18.0200 C.ar  188  TRP188      0.0012
     73  CZ2       78.5200   57.4780   17.5570 C.ar  188  TRP188      0.0191
     74  CZ3       80.5910   56.2660   17.8250 C.ar  188  TRP188      0.0001
     75  CH2       79.2100   56.2990   17.5950 C.ar  188  TRP188      0.0015
     76  N         88.2750   60.8740   19.8200 N.3   190  TYR190     -0.1241
     77  CA        89.3240   60.7130   18.8210 C.3   190  TYR190      0.1605
     78  C         90.6920   60.7350   19.4800 C.2   190  TYR190      0.2264
     79  O         91.0720   61.7130   20.1270 O.2   190  TYR190     -0.2867
     80  CB        89.1950   61.7930   17.7440 C.3   190  TYR190      0.0534
     81  CG        87.8070   61.8280   17.1180 C.ar  190  TYR190     -0.0201
     82  CD1       86.7800   62.5840   17.6930 C.ar  190  TYR190     -0.0009
     83  CD2       87.5090   61.0720   15.9890 C.ar  190  TYR190     -0.0009
     84  CE1       85.5040   62.6050   17.1440 C.ar  190  TYR190      0.0417
     85  CE2       86.2280   61.0900   15.4230 C.ar  190  TYR190      0.0417
     86  CZ        85.2280   61.8590   16.0090 C.ar  190  TYR190      0.1957
     87  OH        83.9540   61.8930   15.4570 O.3   190  TYR190     -0.2866
     88  N         91.5700   63.7670    9.3720 N.3   198  PHE198     -0.1241
     89  CA        90.1860   63.6640    8.9480 C.3   198  PHE198      0.1605
     90  C         89.9960   64.3880    7.6040 C.2   198  PHE198      0.2264
     91  O         90.5140   65.4810    7.3910 O.2   198  PHE198     -0.2867
     92  CB        89.2070   64.1900   10.0270 C.3   198  PHE198      0.0534
     93  CG        89.5590   65.5420   10.6350 C.ar  198  PHE198     -0.0203
     94  CD1       90.5990   65.6650   11.5660 C.ar  198  PHE198     -0.0042
     95  CD2       88.7800   66.6650   10.3620 C.ar  198  PHE198     -0.0042
     96  CE1       90.9030   66.9010   12.1480 C.ar  198  PHE198     -0.0003
     97  CE2       89.0610   67.8990   10.9600 C.ar  198  PHE198     -0.0003
     98  CZ        90.1310   68.0170   11.8550 C.ar  198  PHE198     -0.0000
     99  N         84.7810   67.0500    4.8890 N.3   201  HIS201     -0.1241
    100  CA        83.4060   66.6090    5.0440 C.3   201  HIS201      0.1621
    101  C         82.5820   67.7340    5.6510 C.2   201  HIS201      0.2264
    102  O         83.1380   68.7270    6.1470 O.2   201  HIS201     -0.2867
    103  CB        83.3330   65.3910    5.9520 C.3   201  HIS201      0.0745
    104  CG        83.7350   65.6980    7.3650 C.ar  201  HIS201      0.0817
    105  ND1       85.0550   65.8310    7.7440 N.ar  201  HIS201     -0.2268
    106  CD2       83.0000   65.9370    8.4760 C.ar  201  HIS201      0.1154
    107  CE1       85.1130   66.1230    9.0320 C.ar  201  HIS201      0.1986
    108  NE2       83.8810   66.1820    9.5010 N.ar  201  HIS201     -0.2212
    109  N         78.8510   67.9310    8.2970 N.3   203  GLU203     -0.1231
    110  CA        78.1260   67.0650    9.2430 C.3   203  GLU203      0.1699
    111  C         76.7850   66.5820    8.6740 C.2   203  GLU203      0.2592
    112  O         76.2130   67.2090    7.7810 O.2   203  GLU203     -0.2718
    113  CB        77.8850   67.7960   10.5630 C.3   203  GLU203      0.0402
    114  CG        79.1710   68.2700   11.2340 C.3   203  GLU203      0.1161
    115  CD        80.1800   67.1480   11.3880 C.2   203  GLU203      0.3649
    116  OE1       79.8300   66.1150   12.0050 O.co2 203  GLU203     -0.2457
    117  OE2       81.3150   67.2890   10.8720 O.co2 203  GLU203     -0.2457
    118  N         76.3060   65.4560    9.1880 N.am  204  ASP204     -0.1974
    119  CA        74.9880   64.9520    8.8380 C.3   204  ASP204      0.1709
    120  C         73.9450   66.0220    9.0670 C.2   204  ASP204      0.2293
    121  O         73.9760   66.7230   10.0830 O.2   204  ASP204     -0.2864
    122  CB        74.6420   63.6990    9.6350 C.3   204  ASP204      0.1436
    123  CG        75.4480   62.4850    9.1880 C.2   204  ASP204      0.3671
    124  OD1       75.8330   62.4250    8.0040 O.co2 204  ASP204     -0.2456
    125  OD2       75.6860   61.5890   10.0240 O.co2 204  ASP204     -0.2456
    126  N         78.9080   71.1360   14.7670 N.3   209  SER209     -0.1217
    127  CA        79.6220   70.2760   15.7030 C.3   209  SER209      0.1889
    128  C         80.4740   71.1350   16.6380 C.2   209  SER209      0.2288
    129  O         80.8150   72.2860   16.3250 O.2   209  SER209     -0.2866
    130  CB        80.4910   69.2520   14.9800 C.3   209  SER209      0.2089
    131  OG        81.5710   69.8820   14.3220 O.3   209  SER209     -0.2183
    132  N         83.9460   70.4400   19.2470 N.3   211  ASN211     -0.1240
    133  CA        85.0600   69.5160   19.4600 C.3   211  ASN211      0.1653
    134  C         85.9310   70.0710   20.5640 C.2   211  ASN211      0.2266
    135  O         86.3460   71.2330   20.5090 O.2   211  ASN211     -0.2867
    136  CB        85.8700   69.3290   18.1520 C.3   211  ASN211      0.1155
    137  CG        87.0900   68.3670   18.2960 C.2   211  ASN211      0.2627
    138  OD1       87.9750   68.5540   19.1600 O.2   211  ASN211     -0.2716
    139  ND2       87.1490   67.3510   17.4010 N.am  211  ASN211     -0.0877
    140  N         95.6140   69.9380   17.4650 N.3   219  LYS219     -0.1245
    141  CA        94.8890   69.4530   16.3180 C.3   219  LYS219      0.1561
    142  C         94.8330   70.6130   15.3290 C.2   219  LYS219      0.2260
    143  O         94.4090   71.7110   15.6760 O.2   219  LYS219     -0.2867
    144  CB        93.4940   68.9710   16.7480 C.3   219  LYS219      0.0271
    145  CG        92.6150   68.3550   15.6330 C.3   219  LYS219      0.0035
    146  CD        91.1920   68.0400   16.1620 C.3   219  LYS219      0.0206
    147  CE        91.1940   66.8110   17.1060 C.3   219  LYS219      0.1093
    148  NZ        91.5500   65.5100   16.4410 N.3   219  LYS219     -0.1314
    149  N         93.2830   72.3180   12.0250 N.3   221  TRP221     -0.1241
    150  CA        92.0130   72.3310   11.3060 C.3   221  TRP221      0.1605
    151  C         92.0820   73.2170   10.0920 C.2   221  TRP221      0.2264
    152  O         92.7450   74.2490   10.1220 O.2   221  TRP221     -0.2867
    153  CB        90.8800   72.8790   12.1560 C.3   221  TRP221      0.0550
    154  CG        90.4810   72.0900   13.3440 C.ar  221  TRP221      0.0003
    155  CD1       91.2010   71.8900   14.4880 C.ar  221  TRP221      0.0946
    156  CD2       89.2150   71.4610   13.5470 C.ar  221  TRP221      0.0152
    157  NE1       90.4720   71.1360   15.3790 N.ar  221  TRP221     -0.2442
    158  CE2       89.2480   70.8630   14.8270 C.ar  221  TRP221      0.0810
    159  CE3       88.0600   71.3300   12.7640 C.ar  221  TRP221      0.0012
    160  CZ2       88.1680   70.1410   15.3440 C.ar  221  TRP221      0.0191
    161  CZ3       86.9920   70.6190   13.2750 C.ar  221  TRP221      0.0001
    162  CH2       87.0520   70.0350   14.5530 C.ar  221  TRP221      0.0015
    163  N         74.4700   54.9210    3.7110 N.3   250  LEU250     -0.1231
    164  CA        74.8660   56.1030    4.4800 C.3   250  LEU250      0.1693
    165  C         76.1880   55.8510    5.2090 C.2   250  LEU250      0.2591
    166  O         76.8430   56.7850    5.6760 O.2   250  LEU250     -0.2718
    167  CB        73.7710   56.4960    5.4790 C.3   250  LEU250      0.0284
    168  CG        74.0210   57.7420    6.3330 C.3   250  LEU250      0.0019
    169  CD1       72.7130   58.3990    6.7460 C.3   250  LEU250      0.0001
    170  CD2       74.8860   57.4540    7.5470 C.3   250  LEU250      0.0001
    171  N         76.5700   54.5780    5.2970 N.am  251  LEU251     -0.1980
    172  CA        77.8550   54.1760    5.8610 C.3   251  LEU251      0.1596
    173  C         78.8510   53.8150    4.7540 C.2   251  LEU251      0.2287
    174  O         79.8310   53.1060    4.9910 O.2   251  LEU251     -0.2864
    175  CB        77.6710   52.9940    6.8160 C.3   251  LEU251      0.0297
    176  CG        76.7430   53.2290    8.0020 C.3   251  LEU251      0.0022
    177  CD1       76.4750   51.9470    8.7610 C.3   251  LEU251      0.0001
    178  CD2       77.2940   54.2770    8.9510 C.3   251  LEU251      0.0001
    179  N         85.1700   70.9410    6.6190 N.3   289  HIS289     -0.1241
    180  CA        86.3870   70.9550    7.3920 C.3   289  HIS289      0.1621
    181  C         87.1860   69.6630    7.2510 C.2   289  HIS289      0.2264
    182  O         86.6800   68.6310    6.8180 O.2   289  HIS289     -0.2867
    183  CB        86.0910   71.2500    8.8820 C.3   289  HIS289      0.0745
    184  CG        85.0510   70.3590    9.4860 C.ar  289  HIS289      0.0817
    185  ND1       83.6980   70.5660    9.3050 N.ar  289  HIS289     -0.2268
    186  CD2       85.1620   69.2670   10.2790 C.ar  289  HIS289      0.1154
    187  CE1       83.0240   69.6420    9.9650 C.ar  289  HIS289      0.1986
    188  NE2       83.8880   68.8390   10.5590 N.ar  289  HIS289     -0.2212
    189  N         77.6460   66.4110   17.6790 N.3   303  ASN303     -0.1240
    190  CA        76.8430   67.3170   16.8560 C.3   303  ASN303      0.1653
    191  C         75.7760   67.9830   17.6730 C.2   303  ASN303      0.2266
    192  O         75.4090   67.4960   18.7450 O.2   303  ASN303     -0.2867
    193  CB        76.1640   66.5920   15.6880 C.3   303  ASN303      0.1155
    194  CG        77.1480   66.0010   14.7300 C.2   303  ASN303      0.2627
    195  OD1       77.4270   64.8040   14.7840 O.2   303  ASN303     -0.2716
    196  ND2       77.6870   66.8310   13.8440 N.am  303  ASN303     -0.0877
@<TRIPOS>BOND
     1   163   164    1
     2   164   165    1
     3   164   167    1
     4   173   174    2
     5   173   172    1
     6    99   100    1
     7   100   101    1
     8   100   103    1
     9     1     2    1
    10   165   171   am
    11   165   166    2
    12   171   172    1
    13   167   168    1
    14   101   102    2
    15   172   175    1
    16   103   104    1
    17     5     2    1
    18     5     6    1
    19     2     3    1
    20   168   169    1
    21   168   170    1
    22   179   180    1
    23   175   176    1
    24   182   181    2
    25    10     9    1
    26     7     6    1
    27     7     8    1
    28   181   180    1
    29   104   105   ar
    30   104   106   ar
    31    91    90    2
    32   180   183    1
    33    90    89    1
    34    12     3   am
    35    12    13    1
    36     3     4    2
    37   105   107   ar
    38   112   111    2
    39    15    14    2
    40     9     8    2
    41     9    11    1
    42   176   177    1
    43   176   178    1
    44   124   123   ar
    45   109   110    1
    46    14    13    1
    47    18    16    1
    48   106   108   ar
    49   111   118   am
    50   111   110    1
    51    13    16    1
    52   119   120    1
    53   119   118    1
    54   119   122    1
    55   183   184    1
    56    89    88    1
    57    89    92    1
    58   107   108   ar
    59   120   121    2
    60   123   122    1
    61   123   125   ar
    62   110   113    1
    63   185   184   ar
    64   185   187   ar
    65    16    17    1
    66   184   186   ar
    67   187   188   ar
    68    92    93    1
    69   151   152    2
    70   151   150    1
    71   186   188   ar
    72    95    93   ar
    73    95    97   ar
    74   113   114    1
    75    93    94   ar
    76   117   115   ar
    77    97    98   ar
    78   114   115    1
    79   150   149    1
    80   150   153    1
    81   115   116   ar
    82    94    96   ar
    83    98    96   ar
    84   153   154    1
    85    43    41   ar
    86   159   161   ar
    87   159   156   ar
    88    26    28   ar
    89    26    24   ar
    90    23    24    1
    91    23    20    1
    92    28    29   ar
    93   161   162   ar
    94   154   156   ar
    95   154   155   ar
    96   156   158   ar
    97    24    25   ar
    98    19    20    1
    99    41    42   ar
   100    41    40    1
   101   196   194   am
   102    35    32    1
   103    20    21    1
   104   131   130    1
   105   155   157   ar
   106    22    21    2
   107    29    30    1
   108    29    27   ar
   109   162   160   ar
   110   194   195    2
   111   194   193    1
   112    40    37    1
   113   126   127    1
   114   158   160   ar
   115   158   157   ar
   116    25    27   ar
   117   130   127    1
   118    50    48    1
   119   142   143    2
   120   142   141    1
   121    85    83   ar
   122    85    86   ar
   123    32    33    1
   124    32    31    1
   125    49    51    1
   126    49    48    1
   127    87    86    1
   128    61    60    2
   129   145   146    1
   130   145   144    1
   131    59    60    1
   132    59    58    1
   133   193   190    1
   134   127   128    1
   135    33    34    2
   136    33    36   am
   137    36    37    1
   138    47    46    2
   139    83    81   ar
   140    86    84   ar
   141    48    45    1
   142    37    38    1
   143   146   147    1
   144   141   144    1
   145   141   140    1
   146   129   128    2
   147    45    46    1
   148    45    44    1
   149   148   147    1
   150    58    54   am
   151    46    52   am
   152   190   191    1
   153   190   189    1
   154    39    38    2
   155    81    82   ar
   156    81    80    1
   157    84    82   ar
   158   139   137   am
   159    73    75   ar
   160    73    71   ar
   161    75    74   ar
   162   191   192    2
   163    80    77    1
   164    71    70   ar
   165    71    69   ar
   166    70    68   ar
   167    54    55    2
   168    54    53    1
   169    74    72   ar
   170    69    72   ar
   171    69    67   ar
   172    68    67   ar
   173    52    53    1
   174    67    66    1
   175   136   137    1
   176   136   133    1
   177   137   138    2
   178    66    63    1
   179    53    56    1
   180    56    57    1
   181    77    78    1
   182    77    76    1
   183   132   133    1
   184   133   134    1
   185    78    79    2
   186    63    64    1
   187    63    62    1
   188    64    65    2
   189   135   134    2
