@<TRIPOS>MOLECULE
tmp/5lwbA00.pdb
 212 206 0 0 0
SMALL
GASTEIGER

@<TRIPOS>ATOM
      1  N         90.9380   52.4070   14.0000 N.3    62  ARG62      -0.1245
      2  CA        90.6060   52.3540   12.5850 C.3    62  ARG62       0.1563
      3  C         91.8480   52.7630   11.8200 C.2    62  ARG62       0.2260
      4  O         92.6180   53.6010   12.3020 O.2    62  ARG62      -0.2867
      5  CB        89.4210   53.2630   12.2840 C.3    62  ARG62       0.0307
      6  CG        88.4050   53.1840   13.4080 C.3    62  ARG62       0.0489
      7  CD        87.0130   53.6380   13.0400 C.3    62  ARG62       0.2205
      8  NE        86.0450   52.9920   13.9240 N.pl3  62  ARG62      -0.0865
      9  CZ        84.7640   53.3280   14.0220 C.cat  62  ARG62       0.5346
     10  NH1       84.2790   54.3290   13.2960 N.pl3  62  ARG62       0.1354
     11  NH2       83.9710   52.6660   14.8550 N.pl3  62  ARG62       0.1354
     12  N         93.8730   54.1670    8.3580 N.3    64  GLN64      -0.1245
     13  CA        93.6290   55.2150    7.3860 C.3    64  GLN64       0.1566
     14  C         94.8640   55.4550    6.5350 C.2    64  GLN64       0.2260
     15  O         95.9560   55.7020    7.0700 O.2    64  GLN64      -0.2867
     16  CB        93.2280   56.4860    8.1110 C.3    64  GLN64       0.0367
     17  CG        92.9630   57.6520    7.2410 C.3    64  GLN64       0.0905
     18  CD        92.5890   58.8550    8.0580 C.2    64  GLN64       0.2608
     19  OE1       93.2970   59.2220    9.0010 O.2    64  GLN64      -0.2717
     20  NE2       91.4620   59.4760    7.7160 N.am   64  GLN64      -0.0878
     21  N         87.1730   57.5950    0.7390 N.3    72  GLN72      -0.1231
     22  CA        87.1550   57.0210    2.0770 C.3    72  GLN72       0.1698
     23  C         85.6980   56.9830    2.5370 C.2    72  GLN72       0.2593
     24  O         84.8970   57.8430    2.1510 O.2    72  GLN72      -0.2718
     25  CB        88.0170   57.8390    3.0600 C.3    72  GLN72       0.0381
     26  CG        89.4790   58.0450    2.6800 C.3    72  GLN72       0.0905
     27  CD        90.3290   58.5370    3.8710 C.2    72  GLN72       0.2608
     28  OE1       90.1610   58.0700    5.0090 O.2    72  GLN72      -0.2717
     29  NE2       91.2410   59.4820    3.6080 N.am   72  GLN72      -0.0878
     30  N         85.3380   55.9910    3.3410 N.am   73  THR73      -0.1939
     31  CA        83.9830   55.9400    3.8830 C.3    73  THR73       0.2028
     32  C         83.9100   56.7430    5.1760 C.2    73  THR73       0.2642
     33  O         84.9030   56.8870    5.8900 O.2    73  THR73      -0.2714
     34  CB        83.5180   54.4990    4.1520 C.3    73  THR73       0.1808
     35  OG1       84.5940   53.7660    4.7540 O.3    73  THR73      -0.2208
     36  CG2       83.1150   53.8120    2.8490 C.3    73  THR73       0.0379
     37  N         82.7250   57.2620    5.4650 N.am   74  ARG74      -0.1963
     38  CA        82.5310   58.0560    6.6700 C.3    74  ARG74       0.1729
     39  C         81.9290   57.2390    7.8040 C.2    74  ARG74       0.2616
     40  O         81.5930   57.7750    8.8640 O.2    74  ARG74      -0.2715
     41  CB        81.6540   59.2620    6.3740 C.3    74  ARG74       0.0348
     42  CG        82.4500   60.5200    6.5760 C.3    74  ARG74       0.0492
     43  CD        81.6190   61.6810    7.0550 C.3    74  ARG74       0.2205
     44  NE        80.3280   61.8240    6.4250 N.pl3  74  ARG74      -0.0865
     45  CZ        79.2750   62.3350    7.0600 C.cat  74  ARG74       0.5346
     46  NH1       78.0900   62.4730    6.4580 N.pl3  74  ARG74       0.1354
     47  NH2       79.3960   62.7080    8.3210 N.pl3  74  ARG74       0.1354
     48  N         81.8270   55.9350    7.5690 N.am   75  VAL75      -0.1977
     49  CA        81.1240   55.0160    8.4570 C.3    75  VAL75       0.1596
     50  C         81.6010   55.1190    9.9010 C.2    75  VAL75       0.2287
     51  O         82.7970   55.2330   10.1570 O.2    75  VAL75      -0.2864
     52  CB        81.2930   53.5700    7.9720 C.3    75  VAL75       0.0276
     53  CG1       80.5780   52.5790    8.8840 C.3    75  VAL75       0.0022
     54  CG2       80.6910   53.4520    6.5700 C.3    75  VAL75       0.0022
     55  N         93.4080   55.6600   14.3030 N.3   126  TYR126     -0.1227
     56  CA        92.6990   56.6000   15.1500 C.3   126  TYR126      0.1736
     57  C         91.5150   55.9070   15.7860 C.2   126  TYR126      0.2596
     58  O         91.1440   54.7980   15.3820 O.2   126  TYR126     -0.2718
     59  CB        92.2240   57.8210   14.3520 C.3   126  TYR126      0.0548
     60  CG        91.2620   57.4540   13.2620 C.ar  126  TYR126     -0.0200
     61  CD1       91.7260   57.0020   12.0290 C.ar  126  TYR126     -0.0009
     62  CD2       89.8950   57.5220   13.4670 C.ar  126  TYR126     -0.0009
     63  CE1       90.8530   56.6440   11.0280 C.ar  126  TYR126      0.0417
     64  CE2       89.0130   57.1680   12.4700 C.ar  126  TYR126      0.0417
     65  CZ        89.5010   56.7260   11.2540 C.ar  126  TYR126      0.1957
     66  OH        88.6380   56.3630   10.2570 O.3   126  TYR126     -0.2866
     67  N         90.9260   56.5750   16.7750 N.am  127  GLY127     -0.1942
     68  CA        89.6780   56.1410   17.3700 C.3   127  GLY127      0.2014
     69  C         88.5490   57.0880   17.0330 C.2   127  GLY127      0.2638
     70  O         88.7040   58.3120   17.0300 O.2   127  GLY127     -0.2714
     71  N         87.3900   56.5160   16.7540 N.am  128  ALA128     -0.1977
     72  CA        86.1850   57.2990   16.5310 C.3   128  ALA128      0.1597
     73  C         85.0160   56.4350   16.9530 C.2   128  ALA128      0.2287
     74  O         84.8190   55.3620   16.3970 O.2   128  ALA128     -0.2864
     75  CB        86.0440   57.7340   15.0340 C.3   128  ALA128      0.0319
     76  N         80.4030   62.0370   19.7790 N.3   185  TRP185     -0.1241
     77  CA        81.4740   61.1480   19.3380 C.3   185  TRP185      0.1605
     78  C         82.7900   61.4460   20.0660 C.2   185  TRP185      0.2264
     79  O         83.1030   62.6030   20.3740 O.2   185  TRP185     -0.2867
     80  CB        81.6740   61.2680   17.8220 C.3   185  TRP185      0.0550
     81  CG        80.6000   60.5930   17.0560 C.ar  185  TRP185      0.0003
     82  CD1       79.2930   60.9790   16.9570 C.ar  185  TRP185      0.0946
     83  CD2       80.7210   59.3870   16.3010 C.ar  185  TRP185      0.0152
     84  NE1       78.5970   60.0930   16.1760 N.ar  185  TRP185     -0.2442
     85  CE2       79.4490   59.1040   15.7600 C.ar  185  TRP185      0.0810
     86  CE3       81.7830   58.5190   16.0250 C.ar  185  TRP185      0.0012
     87  CZ2       79.2110   57.9930   14.9510 C.ar  185  TRP185      0.0191
     88  CZ3       81.5450   57.4130   15.2230 C.ar  185  TRP185      0.0001
     89  CH2       80.2670   57.1600   14.6980 C.ar  185  TRP185      0.0015
     90  N         86.9600   61.1170   19.8240 N.3   187  TYR187     -0.1227
     91  CA        88.0120   60.9720   18.8130 C.3   187  TYR187      0.1736
     92  C         89.3780   60.9510   19.4550 C.2   187  TYR187      0.2595
     93  O         89.8070   61.9500   20.0260 O.2   187  TYR187     -0.2718
     94  CB        87.9780   62.1110   17.7860 C.3   187  TYR187      0.0548
     95  CG        86.6970   62.2280   16.9810 C.ar  187  TYR187     -0.0200
     96  CD1       86.3250   61.2410   16.0680 C.ar  187  TYR187     -0.0009
     97  CD2       85.8730   63.3320   17.1200 C.ar  187  TYR187     -0.0009
     98  CE1       85.1600   61.3480   15.3340 C.ar  187  TYR187      0.0417
     99  CE2       84.7040   63.4480   16.3950 C.ar  187  TYR187      0.0417
    100  CZ        84.3520   62.4610   15.5000 C.ar  187  TYR187      0.1957
    101  OH        83.1860   62.5850   14.7710 O.3   187  TYR187     -0.2866
    102  N         90.0520   59.8140   19.3590 N.am  188  VAL188     -0.1980
    103  CA        91.4510   59.7160   19.7510 C.3   188  VAL188      0.1595
    104  C         92.3520   59.8830   18.5240 C.2   188  VAL188      0.2287
    105  O         92.2810   59.0830   17.5930 O.2   188  VAL188     -0.2864
    106  CB        91.7490   58.3710   20.4380 C.3   188  VAL188      0.0276
    107  CG1       93.1770   58.3430   20.9150 C.3   188  VAL188      0.0022
    108  CG2       90.8030   58.1550   21.6250 C.3   188  VAL188      0.0022
    109  N         96.4200   61.8930   11.4670 N.3   193  SER193     -0.1202
    110  CA        95.1130   61.2410   11.3780 C.3   193  SER193      0.2020
    111  C         94.1240   62.3380   10.9740 C.2   193  SER193      0.2619
    112  O         94.1810   63.4580   11.4920 O.2   193  SER193     -0.2717
    113  CB        94.7330   60.5170   12.6920 C.3   193  SER193      0.2103
    114  OG        94.4860   61.4050   13.7690 O.3   193  SER193     -0.2182
    115  N         93.2280   62.0140   10.0450 N.am  194  SER194     -0.1937
    116  CA        92.5040   63.0450    9.3100 C.3   194  SER194      0.2055
    117  C         91.0030   62.8560    9.2470 C.2   194  SER194      0.2643
    118  O         90.4920   61.7400    9.2810 O.2   194  SER194     -0.2714
    119  CB        93.0370   63.1230    7.8740 C.3   194  SER194      0.2130
    120  OG        94.4370   62.9480    7.8520 O.3   194  SER194     -0.2179
    121  N         90.2960   63.9690    9.1370 N.am  195  PHE195     -0.1959
    122  CA        88.8880   63.9140    8.8350 C.3   195  PHE195      0.1771
    123  C         88.7040   64.6270    7.5020 C.2   195  PHE195      0.2619
    124  O         89.1190   65.7760    7.3290 O.2   195  PHE195     -0.2715
    125  CB        88.0080   64.4920    9.9680 C.3   195  PHE195      0.0574
    126  CG        88.4400   65.8390   10.5140 C.ar  195  PHE195     -0.0200
    127  CD1       89.5560   65.9620   11.3420 C.ar  195  PHE195     -0.0042
    128  CD2       87.6750   66.9770   10.2560 C.ar  195  PHE195     -0.0042
    129  CE1       89.9310   67.2160   11.8670 C.ar  195  PHE195     -0.0003
    130  CE2       88.0380   68.2260   10.7780 C.ar  195  PHE195     -0.0003
    131  CZ        89.1640   68.3480   11.5830 C.ar  195  PHE195     -0.0000
    132  N         88.1380   63.8900    6.5500 N.am  196  CYS196     -0.1968
    133  CA        87.9070   64.3620    5.1880 C.3   196  CYS196      0.1712
    134  C         86.8480   65.4460    5.1040 C.2   196  CYS196      0.2296
    135  O         86.0310   65.6090    6.0160 O.2   196  CYS196     -0.2864
    136  CB        87.4840   63.1970    4.2980 C.3   196  CYS196      0.0983
    137  SG        88.6640   61.8460    4.2540 S.3   196  CYS196     -0.0798
    138  N         83.5980   67.3490    4.6310 N.3   198  HIS198     -0.1241
    139  CA        82.2130   66.9260    4.7940 C.3   198  HIS198      0.1621
    140  C         81.3900   68.0370    5.3990 C.2   198  HIS198      0.2264
    141  O         81.9420   68.9880    5.9520 O.2   198  HIS198     -0.2867
    142  CB        82.1290   65.6860    5.6950 C.3   198  HIS198      0.0745
    143  CG        82.4670   65.9720    7.1210 C.ar  198  HIS198      0.0817
    144  ND1       83.7680   66.0870    7.5620 N.ar  198  HIS198     -0.2268
    145  CD2       81.6790   66.2000    8.2020 C.ar  198  HIS198      0.1154
    146  CE1       83.7670   66.3650    8.8540 C.ar  198  HIS198      0.1986
    147  NE2       82.5140   66.4270    9.2680 N.ar  198  HIS198     -0.2212
    148  N         77.7240   68.1630    8.0650 N.3   200  GLU200     -0.1245
    149  CA        76.9750   67.2720    8.9540 C.3   200  GLU200      0.1567
    150  C         75.6510   66.8460    8.3320 C.2   200  GLU200      0.2260
    151  O         75.0760   67.5700    7.5090 O.2   200  GLU200     -0.2867
    152  CB        76.7070   67.9380   10.3080 C.3   200  GLU200      0.0388
    153  CG        77.9620   68.4310   11.0560 C.3   200  GLU200      0.1160
    154  CD        79.0870   67.4150   11.0690 C.2   200  GLU200      0.3649
    155  OE1       78.8000   66.2090   11.2250 O.co2 200  GLU200     -0.2457
    156  OE2       80.2650   67.8250   10.9210 O.co2 200  GLU200     -0.2457
    157  N         82.9600   71.0140   18.8520 N.3   208  ASN208     -0.1240
    158  CA        84.0380   70.0780   19.1050 C.3   208  ASN208      0.1653
    159  C         84.9050   70.6310   20.2210 C.2   208  ASN208      0.2266
    160  O         85.2780   71.8130   20.2060 O.2   208  ASN208     -0.2867
    161  CB        84.8520   69.8360   17.8190 C.3   208  ASN208      0.1155
    162  CG        85.9810   68.8000   17.9960 C.2   208  ASN208      0.2627
    163  OD1       86.8810   68.9510   18.8380 O.2   208  ASN208     -0.2716
    164  ND2       85.9460   67.7540   17.1680 N.am  208  ASN208     -0.0877
    165  N         94.5320   70.1880   17.0800 N.3   216  LYS216     -0.1245
    166  CA        93.8230   69.6840   15.9060 C.3   216  LYS216      0.1561
    167  C         93.7660   70.8250   14.8980 C.2   216  LYS216      0.2260
    168  O         93.3460   71.9310   15.2450 O.2   216  LYS216     -0.2867
    169  CB        92.4080   69.2060   16.2700 C.3   216  LYS216      0.0271
    170  CG        91.6870   68.4720   15.1340 C.3   216  LYS216      0.0035
    171  CD        90.2120   68.1940   15.4430 C.3   216  LYS216      0.0206
    172  CE        90.0030   67.4380   16.7790 C.3   216  LYS216      0.1093
    173  NZ        90.3810   66.0000   16.6770 N.3   216  LYS216     -0.1314
    174  N         92.2350   72.6420   11.6380 N.3   218  TRP218     -0.1241
    175  CA        90.9640   72.6880   10.9070 C.3   218  TRP218      0.1605
    176  C         91.0350   73.5160    9.6330 C.2   218  TRP218      0.2264
    177  O         91.7590   74.5060    9.5640 O.2   218  TRP218     -0.2867
    178  CB        89.8490   73.2870   11.7700 C.3   218  TRP218      0.0550
    179  CG        89.4450   72.4810   12.9790 C.ar  218  TRP218      0.0003
    180  CD1       90.1820   72.2700   14.1080 C.ar  218  TRP218      0.0946
    181  CD2       88.1850   71.8380   13.1970 C.ar  218  TRP218      0.0152
    182  NE1       89.4670   71.5080   15.0080 N.ar  218  TRP218     -0.2442
    183  CE2       88.2370   71.2370   14.4780 C.ar  218  TRP218      0.0810
    184  CE3       87.0230   71.6960   12.4300 C.ar  218  TRP218      0.0012
    185  CZ2       87.1630   70.5030   15.0140 C.ar  218  TRP218      0.0191
    186  CZ3       85.9450   70.9680   12.9630 C.ar  218  TRP218      0.0001
    187  CH2       86.0360   70.3710   14.2390 C.ar  218  TRP218      0.0015
    188  N         83.9820   60.2920    0.9330 N.3   252  VAL252     -0.1245
    189  CA        84.5850   61.5820    1.2300 C.3   252  VAL252      0.1561
    190  C         86.0850   61.5140    0.9840 C.2   252  VAL252      0.2260
    191  O         86.6360   60.4380    0.7760 O.2   252  VAL252     -0.2867
    192  CB        84.3130   62.0050    2.6760 C.3   252  VAL252      0.0252
    193  CG1       82.8620   62.4120    2.8440 C.3   252  VAL252      0.0019
    194  CG2       84.7030   60.8710    3.6560 C.3   252  VAL252      0.0019
    195  N         84.0490   71.2510    6.3000 N.3   286  HIS286     -0.1241
    196  CA        85.2670   71.2710    7.0800 C.3   286  HIS286      0.1621
    197  C         86.0240   69.9590    6.9560 C.2   286  HIS286      0.2264
    198  O         85.4670   68.9280    6.5720 O.2   286  HIS286     -0.2867
    199  CB        84.9640   71.5770    8.5570 C.3   286  HIS286      0.0745
    200  CG        83.9110   70.6970    9.1590 C.ar  286  HIS286      0.0817
    201  ND1       82.5670   70.8530    8.8910 N.ar  286  HIS286     -0.2268
    202  CD2       84.0040   69.6500   10.0120 C.ar  286  HIS286      0.1154
    203  CE1       81.8770   69.9540    9.5710 C.ar  286  HIS286      0.1986
    204  NE2       82.7230   69.2160   10.2650 N.ar  286  HIS286     -0.2212
    205  N         95.1690   65.8150   12.8540 N.3   290  ASN290     -0.1240
    206  CA        95.7440   66.0110   14.1690 C.3   290  ASN290      0.1653
    207  C         97.2630   66.1810   14.1460 C.2   290  ASN290      0.2266
    208  O         97.9700   65.5260   13.3770 O.2   290  ASN290     -0.2867
    209  CB        95.3410   64.8420   15.0730 C.3   290  ASN290      0.1155
    210  CG        93.8380   64.8000   15.3090 C.2   290  ASN290      0.2627
    211  OD1       93.2600   65.7430   15.8670 O.2   290  ASN290     -0.2716
    212  ND2       93.1930   63.7280   14.8580 N.am  290  ASN290     -0.0877
@<TRIPOS>BOND
     1    21    22    1
     2   191   190    2
     3   188   189    1
     4   190   189    1
     5   189   192    1
     6    22    23    1
     7    22    25    1
     8    24    23    2
     9    23    30   am
    10   192   193    1
    11   192   194    1
    12    26    25    1
    13    26    27    1
    14    36    34    1
    15    30    31    1
    16    29    27   am
    17    27    28    2
    18    31    34    1
    19    31    32    1
    20    34    35    1
    21   137   136    1
    22   136   133    1
    23   138   139    1
    24   139   140    1
    25   139   142    1
    26   134   133    1
    27   134   135    2
    28    32    37   am
    29    32    33    2
    30   133   132    1
    31   140   141    2
    32    37    38    1
    33   142   143    1
    34   195   196    1
    35    41    42    1
    36    41    38    1
    37    44    43    1
    38    44    45    2
    39    46    45    1
    40    14    15    2
    41    14    13    1
    42   132   123   am
    43    54    52    1
    44   198   197    2
    45    42    43    1
    46    38    39    1
    47   197   196    1
    48    45    47    1
    49   196   199    1
    50   143   144   ar
    51   143   145   ar
    52    17    18    1
    53    17    16    1
    54   124   123    2
    55    13    16    1
    56    13    12    1
    57   123   122    1
    58   151   150    2
    59   144   146   ar
    60    48    39   am
    61    48    49    1
    62    20    18   am
    63    39    40    2
    64   120   119    1
    65   119   116    1
    66    52    49    1
    67    52    53    1
    68    18    19    2
    69   148   149    1
    70   145   147   ar
    71   150   149    1
    72    49    50    1
    73   199   200    1
    74   122   121    1
    75   122   125    1
    76   146   147   ar
    77   201   200   ar
    78   201   203   ar
    79   149   152    1
    80   121   117   am
    81   200   202   ar
    82   117   118    2
    83   117   116    1
    84   116   115    1
    85   177   176    2
    86   203   204   ar
    87   176   175    1
    88    50    51    2
    89   125   126    1
    90   202   204   ar
    91   115   111   am
    92   128   126   ar
    93   128   130   ar
    94    66    65    1
    95   152   153    1
    96   126   127   ar
    97   130   131   ar
    98   175   174    1
    99   175   178    1
   100   156   154   ar
   101   111   110    1
   102   111   112    2
   103    63    65   ar
   104    63    61   ar
   105   153   154    1
   106   154   155   ar
   107    65    64   ar
   108   127   129   ar
   109   110   109    1
   110   110   113    1
   111   131   129   ar
   112   178   179    1
   113     3     4    2
   114     3     2    1
   115    61    60   ar
   116     5     2    1
   117     5     6    1
   118   184   186   ar
   119   184   181   ar
   120    64    62   ar
   121     2     1    1
   122   113   114    1
   123   205   206    1
   124   186   187   ar
   125   179   181   ar
   126   179   180   ar
   127     7     6    1
   128     7     8    1
   129   181   183   ar
   130    60    62   ar
   131    60    59    1
   132    10     9    1
   133   208   207    2
   134     8     9    2
   135     9    11    1
   136   180   182   ar
   137   207   206    1
   138   206   209    1
   139   187   185   ar
   140    55    56    1
   141    59    56    1
   142   183   182   ar
   143   183   185   ar
   144    89    87   ar
   145    89    88   ar
   146   101   100    1
   147   212   210   am
   148   167   168    2
   149   167   166    1
   150    87    85   ar
   151    75    72    1
   152   209   210    1
   153   170   171    1
   154   170   169    1
   155    56    57    1
   156    88    86   ar
   157   210   211    2
   158    98   100   ar
   159    98    96   ar
   160    58    57    2
   161   171   172    1
   162   100    99   ar
   163    85    84   ar
   164    85    83   ar
   165    57    67   am
   166   166   169    1
   167   166   165    1
   168    86    83   ar
   169    96    95   ar
   170    84    82   ar
   171    83    81   ar
   172    99    97   ar
   173    74    73    2
   174    72    71    1
   175    72    73    1
   176   173   172    1
   177    71    69   am
   178    67    68    1
   179    82    81   ar
   180    95    97   ar
   181    95    94    1
   182    70    69    2
   183    69    68    1
   184    81    80    1
   185   164   162   am
   186   105   104    2
   187    94    91    1
   188   161   162    1
   189   161   158    1
   190    80    77    1
   191   162   163    2
   192   104   103    1
   193    91    92    1
   194    91    90    1
   195   157   158    1
   196   158   159    1
   197    77    76    1
   198    77    78    1
   199   102    92   am
   200   102   103    1
   201    92    93    2
   202   103   106    1
   203    78    79    2
   204   160   159    2
   205   106   107    1
   206   106   108    1
