@<TRIPOS>MOLECULE
tmp/5lwdA00.pdb
 163 159 0 0 0
SMALL
GASTEIGER

@<TRIPOS>ATOM
      1  N         13.4990   44.1230    0.1220 N.3   112  ASN112     -0.1225
      2  CA        13.3140   43.1580   -0.9530 C.3   112  ASN112      0.1785
      3  C         14.4390   42.1380   -0.9210 C.2   112  ASN112      0.2597
      4  O         15.4080   42.2540   -0.1550 O.2   112  ASN112     -0.2718
      5  CB        13.2190   43.8380   -2.3260 C.3   112  ASN112      0.1169
      6  CG        12.2120   43.1970   -3.2540 C.2   112  ASN112      0.2627
      7  OD1       11.8670   42.0260   -3.1200 O.2   112  ASN112     -0.2716
      8  ND2       11.7190   43.9830   -4.2190 N.am  112  ASN112     -0.0877
      9  N         14.2830   41.1260   -1.7740 N.am  113  ALA113     -0.1966
     10  CA        15.2620   40.0720   -2.0160 C.3   113  ALA113      0.1728
     11  C         15.1010   39.6600   -3.4700 C.2   113  ALA113      0.2616
     12  O         14.0220   39.8430   -4.0460 O.2   113  ALA113     -0.2715
     13  CB        15.0640   38.8700   -1.0890 C.3   113  ALA113      0.0334
     14  N         16.1620   39.1170   -4.0860 N.am  114  PHE114     -0.1960
     15  CA        16.0780   38.7860   -5.5040 C.3   114  PHE114      0.1771
     16  C         17.1680   37.8070   -5.8860 C.2   114  PHE114      0.2619
     17  O         18.1590   37.6270   -5.1750 O.2   114  PHE114     -0.2715
     18  CB        16.0850   40.0390   -6.3910 C.3   114  PHE114      0.0574
     19  CG        17.3060   40.9280   -6.2550 C.ar  114  PHE114     -0.0200
     20  CD1       17.3880   41.8780   -5.2320 C.ar  114  PHE114     -0.0042
     21  CD2       18.3240   40.8930   -7.1890 C.ar  114  PHE114     -0.0042
     22  CE1       18.4570   42.7510   -5.1500 C.ar  114  PHE114     -0.0003
     23  CE2       19.4130   41.7590   -7.0830 C.ar  114  PHE114     -0.0003
     24  CZ        19.4600   42.6890   -6.0740 C.ar  114  PHE114     -0.0000
     25  N         16.9560   37.1910   -7.0480 N.am  115  TRP115     -0.1974
     26  CA        17.9690   36.4280   -7.7690 C.3   115  TRP115      0.1640
     27  C         18.4540   37.3300   -8.9060 C.2   115  TRP115      0.2290
     28  O         17.6450   37.8040   -9.7080 O.2   115  TRP115     -0.2864
     29  CB        17.3620   35.1290   -8.3050 C.3   115  TRP115      0.0576
     30  CG        18.2530   34.3670   -9.2370 C.ar  115  TRP115      0.0006
     31  CD1       18.2130   34.3700  -10.5980 C.ar  115  TRP115      0.0946
     32  CD2       19.3410   33.5040   -8.8740 C.ar  115  TRP115      0.0152
     33  NE1       19.2120   33.5620  -11.1000 N.ar  115  TRP115     -0.2442
     34  CE2       19.9180   33.0180  -10.0650 C.ar  115  TRP115      0.0810
     35  CE3       19.8640   33.0500   -7.6550 C.ar  115  TRP115      0.0012
     36  CZ2       21.0040   32.1050  -10.0500 C.ar  115  TRP115      0.0191
     37  CZ3       20.9050   32.1480   -7.6530 C.ar  115  TRP115      0.0001
     38  CH2       21.4610   31.6880   -8.8280 C.ar  115  TRP115      0.0015
     39  N          9.8980   45.3860    6.8470 N.3   130  PHE130     -0.1241
     40  CA        10.5770   44.1060    6.9280 C.3   130  PHE130      0.1605
     41  C         11.6850   44.1470    7.9670 C.2   130  PHE130      0.2264
     42  O         12.3080   45.1860    8.2070 O.2   130  PHE130     -0.2867
     43  CB        11.2730   43.7120    5.5940 C.3   130  PHE130      0.0534
     44  CG        10.3530   43.1800    4.5180 C.ar  130  PHE130     -0.0203
     45  CD1        9.9290   41.8710    4.5430 C.ar  130  PHE130     -0.0042
     46  CD2        9.9780   43.9840    3.4630 C.ar  130  PHE130     -0.0042
     47  CE1        9.1130   41.3740    3.5480 C.ar  130  PHE130     -0.0003
     48  CE2        9.1790   43.4830    2.4540 C.ar  130  PHE130     -0.0003
     49  CZ         8.7550   42.1790    2.4950 C.ar  130  PHE130     -0.0000
     50  N         15.4330   39.7800    5.3160 N.3   133  LEU133     -0.1245
     51  CA        14.4780   38.9490    4.5820 C.3   133  LEU133      0.1561
     52  C         14.8840   37.4910    4.5190 C.2   133  LEU133      0.2260
     53  O         14.0230   36.6340    4.3180 O.2   133  LEU133     -0.2867
     54  CB        14.2060   39.5210    3.1850 C.3   133  LEU133      0.0270
     55  CG        13.2530   40.7380    3.1700 C.3   133  LEU133      0.0019
     56  CD1       13.9280   42.0360    3.4920 C.3   133  LEU133      0.0001
     57  CD2       12.5300   40.8010    1.8660 C.3   133  LEU133      0.0001
     58  N         10.8780   32.7970    1.8100 N.3   139  VAL139     -0.1245
     59  CA        11.5690   33.8120    1.0260 C.3   139  VAL139      0.1561
     60  C         12.8290   33.2310    0.3790 C.2   139  VAL139      0.2260
     61  O         13.0600   33.4050   -0.8210 O.2   139  VAL139     -0.2867
     62  CB        11.9010   35.0450    1.8920 C.3   139  VAL139      0.0252
     63  CG1       12.7070   36.0370    1.0530 C.3   139  VAL139      0.0019
     64  CG2       10.6220   35.6720    2.4420 C.3   139  VAL139      0.0019
     65  N         11.8220   30.8540   -2.2380 N.3   142  HIS142     -0.1226
     66  CA        11.2910   31.6190   -3.3720 C.3   142  HIS142      0.1752
     67  C         12.4350   32.0960   -4.2610 C.2   142  HIS142      0.2595
     68  O         12.3870   31.9740   -5.4920 O.2   142  HIS142     -0.2718
     69  CB        10.4670   32.8040   -2.8040 C.3   142  HIS142      0.0759
     70  CG         9.8970   33.7490   -3.8390 C.ar  142  HIS142      0.0818
     71  ND1        8.5510   33.8620   -4.1010 N.ar  142  HIS142     -0.2268
     72  CD2       10.5040   34.6300   -4.6730 C.ar  142  HIS142      0.1154
     73  CE1        8.3630   34.7570   -5.0630 C.ar  142  HIS142      0.1986
     74  NE2        9.5340   35.2510   -5.4280 N.ar  142  HIS142     -0.2212
     75  N         13.4720   32.6620   -3.6520 N.am  143  GLU143     -0.1979
     76  CA        14.6030   33.1880   -4.4320 C.3   143  GLU143      0.1602
     77  C         15.3580   32.0930   -5.1530 C.2   143  GLU143      0.2287
     78  O         15.6790   32.2200   -6.3430 O.2   143  GLU143     -0.2864
     79  CB        15.5440   34.0430   -3.5900 C.3   143  GLU143      0.0415
     80  CG        14.8860   35.1870   -2.8020 C.3   143  GLU143      0.1163
     81  CD        13.9370   36.0690   -3.5810 C.2   143  GLU143      0.3649
     82  OE1       14.1330   36.2010   -4.8140 O.co2 143  GLU143     -0.2457
     83  OE2       12.9650   36.5910   -2.9790 O.co2 143  GLU143     -0.2457
     84  N         13.6680   30.9010   -8.2500 N.3   146  HIS146     -0.1241
     85  CA        13.8700   31.6780   -9.4730 C.3   146  HIS146      0.1621
     86  C         15.0400   31.1320  -10.2890 C.2   146  HIS146      0.2264
     87  O         14.9770   31.0910  -11.5290 O.2   146  HIS146     -0.2867
     88  CB        14.0840   33.1520   -9.1440 C.3   146  HIS146      0.0745
     89  CG        12.8190   33.9220   -8.8730 C.ar  146  HIS146      0.0817
     90  ND1       11.7760   33.9490   -9.7570 N.ar  146  HIS146     -0.2268
     91  CD2       12.4410   34.7280   -7.8410 C.ar  146  HIS146      0.1154
     92  CE1       10.8100   34.7210   -9.2790 C.ar  146  HIS146      0.1986
     93  NE2       11.1920   35.2270   -8.1180 N.ar  146  HIS146     -0.2212
     94  N         10.0870   37.1760  -17.5260 N.3   157  TYR157     -0.1241
     95  CA         9.5910   37.8450  -16.3050 C.3   157  TYR157      0.1605
     96  C          8.6630   39.0290  -16.6060 C.2   157  TYR157      0.2264
     97  O          8.8900   40.1470  -16.1550 O.2   157  TYR157     -0.2867
     98  CB        10.7610   38.2500  -15.4240 C.3   157  TYR157      0.0534
     99  CG        10.4110   38.4320  -13.9590 C.ar  157  TYR157     -0.0201
    100  CD1        9.9740   37.3730  -13.2010 C.ar  157  TYR157     -0.0009
    101  CD2       10.5780   39.6630  -13.3270 C.ar  157  TYR157     -0.0009
    102  CE1        9.7070   37.5070  -11.8440 C.ar  157  TYR157      0.0417
    103  CE2       10.3140   39.8060  -11.9710 C.ar  157  TYR157      0.0417
    104  CZ         9.8870   38.7270  -11.2410 C.ar  157  TYR157      0.1957
    105  OH         9.6690   38.8980   -9.8840 O.3   157  TYR157     -0.2866
    106  N          6.5250   33.8120  -10.9340 N.3   166  GLU166     -0.1245
    107  CA         6.3120   34.1950   -9.5470 C.3   166  GLU166      0.1567
    108  C          5.5810   33.1220   -8.7570 C.2   166  GLU166      0.2260
    109  O          5.9700   32.8150   -7.6200 O.2   166  GLU166     -0.2867
    110  CB         5.5430   35.5180   -9.4920 C.3   166  GLU166      0.0388
    111  CG         6.4560   36.7300   -9.4800 C.3   166  GLU166      0.1160
    112  CD         7.4080   36.6470   -8.3020 C.2   166  GLU166      0.3649
    113  OE1        6.9340   36.4750   -7.1520 O.co2 166  GLU166     -0.2457
    114  OE2        8.6420   36.7110   -8.5390 O.co2 166  GLU166     -0.2457
    115  N          2.9280   34.0080    2.3650 N.3   188  ILE188     -0.1231
    116  CA         4.2900   34.3000    1.8950 C.3   188  ILE188      0.1692
    117  C          4.8770   35.4190    2.7380 C.2   188  ILE188      0.2592
    118  O          4.3450   36.5360    2.7760 O.2   188  ILE188     -0.2718
    119  CB         4.3180   34.7000    0.4130 C.3   188  ILE188      0.0266
    120  CG1        3.6600   33.6400   -0.4690 C.3   188  ILE188      0.0019
    121  CG2        5.7480   35.0080   -0.0420 C.3   188  ILE188      0.0020
    122  CD1        4.3330   32.2750   -0.4320 C.3   188  ILE188      0.0001
    123  N          6.0260   35.1380    3.3590 N.am  189  GLY189     -0.1957
    124  CA         6.8200   36.1770    3.9850 C.3   189  GLY189      0.1869
    125  C          6.4100   36.5780    5.3820 C.2   189  GLY189      0.2309
    126  O          6.9660   37.5410    5.9200 O.2   189  GLY189     -0.2863
    127  N          2.8770   39.0250    3.1320 N.3   202  LEU202     -0.1231
    128  CA         3.0320   39.7840    1.9040 C.3   202  LEU202      0.1693
    129  C          2.0230   39.3560    0.8390 C.2   202  LEU202      0.2591
    130  O          1.5490   40.1890    0.0520 O.2   202  LEU202     -0.2718
    131  CB         4.4680   39.5890    1.4300 C.3   202  LEU202      0.0284
    132  CG         4.7910   40.1850    0.0980 C.3   202  LEU202      0.0019
    133  CD1        4.7800   41.6930    0.2010 C.3   202  LEU202      0.0001
    134  CD2        6.1850   39.7170   -0.2750 C.3   202  LEU202      0.0001
    135  N          1.7460   38.0570    0.7610 N.am  203  ARG203     -0.1980
    136  CA         0.7570   37.4820   -0.1320 C.3   203  ARG203      0.1597
    137  C          0.1670   36.2760    0.5780 C.2   203  ARG203      0.2287
    138  O          0.7830   35.6990    1.4720 O.2   203  ARG203     -0.2864
    139  CB         1.3620   36.9610   -1.4540 C.3   203  ARG203      0.0334
    140  CG         1.8590   38.0290   -2.3900 C.3   203  ARG203      0.0492
    141  CD         2.4470   37.4730   -3.6500 C.3   203  ARG203      0.2205
    142  NE         3.7410   36.8030   -3.4600 N.pl3 203  ARG203     -0.0865
    143  CZ         4.9110   37.4250   -3.5060 C.cat 203  ARG203      0.5346
    144  NH1        6.0290   36.7270   -3.4720 N.pl3 203  ARG203      0.1354
    145  NH2        4.9810   38.7520   -3.5480 N.pl3 203  ARG203      0.1354
    146  N          4.7210   46.6200  -12.2310 N.3   226  ASP226     -0.1239
    147  CA         5.1680   45.3250  -11.7170 C.3   226  ASP226      0.1674
    148  C          5.3790   44.3340  -12.8650 C.2   226  ASP226      0.2266
    149  O          5.0010   43.1640  -12.7870 O.2   226  ASP226     -0.2867
    150  CB         4.1760   44.8020  -10.6650 C.3   226  ASP226      0.1410
    151  CG         4.5760   43.4900  -10.0230 C.2   226  ASP226      0.3668
    152  OD1        5.7900   43.2560   -9.7820 O.co2 226  ASP226     -0.2456
    153  OD2        3.6640   42.7080   -9.7260 O.co2 226  ASP226     -0.2456
    154  N          3.7010   39.9020   -9.6520 N.3   231  HIS231     -0.1241
    155  CA         3.4510   39.5820   -8.2520 C.3   231  HIS231      0.1621
    156  C          1.9830   39.7270   -7.8720 C.2   231  HIS231      0.2264
    157  O          1.6270   39.5250   -6.6990 O.2   231  HIS231     -0.2867
    158  CB         4.2780   40.4760   -7.3090 C.3   231  HIS231      0.0745
    159  CG         5.7510   40.3390   -7.4620 C.ar  231  HIS231      0.0817
    160  ND1        6.4950   41.0990   -8.3350 N.ar  231  HIS231     -0.2268
    161  CD2        6.6310   39.5170   -6.8440 C.ar  231  HIS231      0.1154
    162  CE1        7.7680   40.7420   -8.2640 C.ar  231  HIS231      0.1986
    163  NE2        7.8710   39.7800   -7.3670 N.ar  231  HIS231     -0.2212
@<TRIPOS>BOND
     1    94    95    1
     2    96    95    1
     3    96    97    2
     4    95    98    1
     5    98    99    1
     6    99   101   ar
     7    99   100   ar
     8   101   103   ar
     9   100   102   ar
    10   148   149    2
    11   148   147    1
    12   146   147    1
    13   103   104   ar
    14   102   104   ar
    15   147   150    1
    16    87    86    2
    17   104   105    1
    18    33    31   ar
    19    33    34   ar
    20   106   107    1
    21   150   151    1
    22    31    30   ar
    23    86    85    1
    24    34    36   ar
    25    34    32   ar
    26    36    38   ar
    27   151   152   ar
    28   151   153   ar
    29    90    92   ar
    30    90    89   ar
    31    28    27    2
    32   154   155    1
    33   107   110    1
    34   107   108    1
    35   110   111    1
    36   111   112    1
    37    85    88    1
    38    85    84    1
    39    92    93   ar
    40    30    32   ar
    41    30    29    1
    42    88    89    1
    43    27    26    1
    44    32    35   ar
    45    89    91   ar
    46    38    37   ar
    47   108   109    2
    48   114   112   ar
    49   160   162   ar
    50   160   159   ar
    51    29    26    1
    52   112   113   ar
    53   162   163   ar
    54   155   156    1
    55   155   158    1
    56    93    91   ar
    57   156   157    2
    58    26    25    1
    59    35    37   ar
    60   159   158    1
    61   159   161   ar
    62   163   161   ar
    63    21    23   ar
    64    21    19   ar
    65    23    24   ar
    66    25    16   am
    67    18    19    1
    68    18    15    1
    69    78    77    2
    70    19    20   ar
    71    24    22   ar
    72    16    15    1
    73    16    17    2
    74    15    14    1
    75    68    67    2
    76    74    73   ar
    77    74    72   ar
    78    20    22   ar
    79    77    76    1
    80    73    71   ar
    81    82    81   ar
    82    72    70   ar
    83    76    75    1
    84    76    79    1
    85    67    75   am
    86    67    66    1
    87     8     6   am
    88    71    70   ar
    89    14    11   am
    90    12    11    2
    91    70    69    1
    92   141   142    1
    93   141   140    1
    94    79    80    1
    95    81    83   ar
    96    81    80    1
    97   145   143    1
    98   143   144    1
    99   143   142    2
   100    11    10    1
   101    66    69    1
   102    66    65    1
   103     6     7    2
   104     6     5    1
   105   140   139    1
   106     5     2    1
   107    10     9    1
   108    10    13    1
   109     9     3   am
   110   139   136    1
   111     2     3    1
   112     2     1    1
   113     3     4    2
   114    61    60    2
   115   120   122    1
   116   120   119    1
   117   134   132    1
   118   136   137    1
   119   136   135    1
   120   121   119    1
   121   130   129    2
   122   132   133    1
   123   132   131    1
   124    60    59    1
   125   119   116    1
   126   137   138    2
   127   135   129   am
   128   129   128    1
   129    59    58    1
   130    59    62    1
   131    63    62    1
   132   131   128    1
   133    57    55    1
   134    62    64    1
   135   116   115    1
   136   116   117    1
   137   128   127    1
   138    48    49   ar
   139    48    46   ar
   140    49    47   ar
   141   117   118    2
   142   117   123   am
   143    55    54    1
   144    55    56    1
   145    54    51    1
   146   123   124    1
   147    46    44   ar
   148    47    45   ar
   149   124   125    1
   150    53    52    2
   151    44    45   ar
   152    44    43    1
   153    52    51    1
   154    51    50    1
   155   125   126    2
   156    43    40    1
   157    39    40    1
   158    40    41    1
   159    41    42    2
