@<TRIPOS>MOLECULE
tmp/5lwnA01.pdb
 146 137 0 0 0
SMALL
GASTEIGER

@<TRIPOS>ATOM
      1  N         20.5550   29.3390   30.6450 N.3    15  LEU15      -0.1231
      2  CA        20.3240   28.5740   29.4280 C.3    15  LEU15       0.1693
      3  C         18.9640   28.9210   28.7860 C.2    15  LEU15       0.2593
      4  O         18.8890   29.1030   27.5940 O.2    15  LEU15      -0.2718
      5  CB        20.4010   27.0640   29.7460 C.3    15  LEU15       0.0284
      6  CG        21.7460   26.5630   30.2670 C.3    15  LEU15       0.0019
      7  CD1       21.6540   25.1930   30.9120 C.3    15  LEU15       0.0001
      8  CD2       22.7820   26.5260   29.1620 C.3    15  LEU15       0.0001
      9  N         17.9360   29.0760   29.6010 N.am   16  GLY16      -0.1942
     10  CA        16.5740   29.3720   29.1330 C.3    16  GLY16       0.2014
     11  C         15.8210   30.2410   30.1200 C.2    16  GLY16       0.2638
     12  O         16.0580   30.2160   31.3290 O.2    16  GLY16      -0.2714
     13  N         14.8980   31.0260   29.5860 N.am   17  LYS17      -0.1977
     14  CA        14.0440   31.8790   30.3760 C.3    17  LYS17       0.1596
     15  C         12.6620   31.5530   29.9070 C.2    17  LYS17       0.2287
     16  O         12.4400   31.4130   28.7010 O.2    17  LYS17      -0.2864
     17  CB        14.3430   33.3580   30.1090 C.3    17  LYS17       0.0298
     18  CG        13.5520   34.3420   30.9590 C.3    17  LYS17       0.0038
     19  CD        13.8140   34.1180   32.4460 C.3    17  LYS17       0.0206
     20  CE        13.3220   35.2780   33.3130 C.3    17  LYS17       0.1093
     21  NZ        13.9770   35.2850   34.6570 N.3    17  LYS17      -0.1314
     22  N         16.1970   28.1410   33.5020 N.3    23  VAL23      -0.1245
     23  CA        17.0850   27.0110   33.5130 C.3    23  VAL23       0.1561
     24  C         18.4770   27.6130   33.4370 C.2    23  VAL23       0.2260
     25  O         18.7730   28.4350   32.5410 O.2    23  VAL23      -0.2867
     26  CB        16.8980   26.0670   32.3200 C.3    23  VAL23       0.0252
     27  CG1       17.7950   24.8510   32.5010 C.3    23  VAL23       0.0019
     28  CG2       15.4470   25.6240   32.2030 C.3    23  VAL23       0.0019
     29  N         22.1840   21.1980   34.6910 N.3    40  ALA40      -0.1245
     30  CA        21.2310   22.2540   34.3640 C.3    40  ALA40       0.1562
     31  C         20.1880   22.3240   35.4490 C.2    40  ALA40       0.2260
     32  O         19.6930   21.2710   35.8820 O.2    40  ALA40      -0.2867
     33  CB        20.5710   21.9430   33.0480 C.3    40  ALA40       0.0290
     34  N         15.2520   13.9890   28.3350 N.3    71  VAL71      -0.1245
     35  CA        16.3250   14.5620   29.2000 C.3    71  VAL71       0.1561
     36  C         16.3070   13.9160   30.5800 C.2    71  VAL71       0.2260
     37  O         15.2280   13.6960   31.1770 O.2    71  VAL71      -0.2867
     38  CB        16.2020   16.0870   29.2740 C.3    71  VAL71       0.0252
     39  CG1       14.9440   16.5240   30.0190 C.3    71  VAL71       0.0019
     40  CG2       17.4370   16.7440   29.8520 C.3    71  VAL71       0.0019
     41  N         18.9250   18.6190   36.3570 N.3    89  MET89      -0.1230
     42  CA        18.8920   17.7640   35.1650 C.3    89  MET89       0.1702
     43  C         20.3360   17.6830   34.6020 C.2    89  MET89       0.2592
     44  O         21.1910   18.5240   34.8970 O.2    89  MET89      -0.2718
     45  CB        18.0000   18.3690   34.0970 C.3    89  MET89       0.0401
     46  CG        16.5110   18.4760   34.4790 C.3    89  MET89       0.0596
     47  SD        15.5340   19.5010   33.4230 S.3    89  MET89      -0.1393
     48  CE        16.0030   21.1310   33.9980 C.3    89  MET89       0.0692
     49  N         20.5320   16.6680   33.7820 N.am   90  GLU90      -0.1966
     50  CA        21.7240   16.6020   32.9940 C.3    90  GLU90       0.1733
     51  C         21.8780   17.8690   32.1250 C.2    90  GLU90       0.2616
     52  O         20.9120   18.4480   31.6390 O.2    90  GLU90      -0.2715
     53  CB        21.7460   15.3170   32.1800 C.3    90  GLU90       0.0429
     54  CG        20.8360   15.3200   30.9840 C.3    90  GLU90       0.1163
     55  CD        20.9590   14.0660   30.1230 C.2    90  GLU90       0.3649
     56  OE1       22.0560   13.4950   29.9800 O.co2  90  GLU90      -0.2457
     57  OE2       19.9000   13.6500   29.5580 O.co2  90  GLU90      -0.2457
     58  N         23.1280   18.2340   31.8560 N.am   91  TYR91      -0.1960
     59  CA        23.4230   19.3820   31.0090 C.3    91  TYR91       0.1771
     60  C         23.9180   18.8020   29.6870 C.2    91  TYR91       0.2619
     61  O         24.9190   18.0000   29.6640 O.2    91  TYR91      -0.2715
     62  CB        24.5800   20.1960   31.6460 C.3    91  TYR91       0.0574
     63  CG        25.1400   21.2760   30.7430 C.ar   91  TYR91      -0.0198
     64  CD1       24.3400   22.2360   30.1040 C.ar   91  TYR91      -0.0009
     65  CD2       26.5460   21.3500   30.5540 C.ar   91  TYR91      -0.0009
     66  CE1       24.8980   23.2000   29.2470 C.ar   91  TYR91       0.0417
     67  CE2       27.0830   22.3140   29.7440 C.ar   91  TYR91       0.0417
     68  CZ        26.3100   23.2380   29.1290 C.ar   91  TYR91       0.1957
     69  OH        26.9300   24.1780   28.3260 O.3    91  TYR91      -0.2866
     70  N         23.3520   19.2760   28.5990 N.am   92  LEU92      -0.1977
     71  CA        23.7760   18.8430   27.2610 C.3    92  LEU92       0.1596
     72  C         24.3590   20.0470   26.5210 C.2    92  LEU92       0.2287
     73  O         23.6320   20.8880   26.0200 O.2    92  LEU92      -0.2864
     74  CB        22.5940   18.1990   26.5290 C.3    92  LEU92       0.0297
     75  CG        22.2330   16.8550   27.1630 C.3    92  LEU92       0.0022
     76  CD1       20.9430   16.2580   26.6340 C.3    92  LEU92       0.0001
     77  CD2       23.3830   15.8610   27.0600 C.3    92  LEU92       0.0001
     78  N         23.3140   21.9640   23.2000 N.3    95  GLY95      -0.1210
     79  CA        22.1880   22.8810   23.2000 C.3    95  GLY95       0.1956
     80  C         20.9890   22.3620   22.4410 C.2    95  GLY95       0.2612
     81  O         20.8240   21.1520   22.2500 O.2    95  GLY95      -0.2717
     82  N         20.1170   23.2820   22.0290 N.am   96  CYS96      -0.1970
     83  CA        18.8690   22.8640   21.4490 C.3    96  CYS96       0.1712
     84  C         18.9720   22.5610   19.9660 C.2    96  CYS96       0.2296
     85  O         19.8430   23.0620   19.2570 O.2    96  CYS96      -0.2864
     86  CB        17.7910   23.9130   21.7150 C.3    96  CYS96       0.0983
     87  SG        17.8880   25.3060   20.6160 S.3    96  CYS96      -0.0798
     88  N         16.9220   23.4510   17.5900 N.3    98  ARG98      -0.1231
     89  CA        16.6370   24.6100   16.7680 C.3    98  ARG98       0.1694
     90  C         17.9330   25.3300   16.3800 C.2    98  ARG98       0.2592
     91  O         18.1390   25.5950   15.2180 O.2    98  ARG98      -0.2718
     92  CB        15.6890   25.5920   17.4340 C.3    98  ARG98       0.0321
     93  CG        15.4310   26.8570   16.6020 C.3    98  ARG98       0.0489
     94  CD        14.1310   27.5760   16.9780 C.3    98  ARG98       0.2205
     95  NE        13.9030   28.7240   16.0840 N.pl3  98  ARG98      -0.0865
     96  CZ        14.4050   29.9390   16.2860 C.cat  98  ARG98       0.5346
     97  NH1       15.1620   30.1950   17.3470 N.pl3  98  ARG98       0.1354
     98  NH2       14.1590   30.9240   15.4240 N.pl3  98  ARG98       0.1354
     99  N         18.7640   25.6300   17.3810 N.am   99  ASP99      -0.1974
    100  CA        20.0450   26.3280   17.1450 C.3    99  ASP99       0.1709
    101  C         21.0180   25.4310   16.3790 C.2    99  ASP99       0.2293
    102  O         21.7100   25.9130   15.4910 O.2    99  ASP99      -0.2864
    103  CB        20.6750   26.7680   18.4430 C.3    99  ASP99       0.1436
    104  CG        19.9640   27.9080   19.1240 C.2    99  ASP99       0.3671
    105  OD1       19.1200   28.6260   18.5520 O.co2  99  ASP99      -0.2456
    106  OD2       20.2480   28.0580   20.3480 O.co2  99  ASP99      -0.2456
    107  N         12.9190   24.2150   19.6860 N.3   140  ARG140     -0.1231
    108  CA        13.5900   25.0280   20.7010 C.3   140  ARG140      0.1694
    109  C         13.7160   24.3610   22.0490 C.2   140  ARG140      0.2592
    110  O         14.5010   24.8180   22.8930 O.2   140  ARG140     -0.2718
    111  CB        12.9390   26.4030   20.8520 C.3   140  ARG140      0.0321
    112  CG        11.5880   26.4190   21.5760 C.3   140  ARG140      0.0489
    113  CD        11.2230   27.8610   21.9180 C.3   140  ARG140      0.2205
    114  NE        11.3330   28.7080   20.7280 N.pl3 140  ARG140     -0.0865
    115  CZ        12.2830   29.6320   20.5390 C.cat 140  ARG140      0.5346
    116  NH1       12.2950   30.3460   19.4230 N.pl3 140  ARG140      0.1354
    117  NH2       13.2270   29.8510   21.4510 N.pl3 140  ARG140      0.1354
    118  N         12.9640   23.2700   22.2710 N.am  141  ASN141     -0.1974
    119  CA        13.0650   22.5510   23.5230 C.3   141  ASN141      0.1688
    120  C         13.4690   21.1010   23.4090 C.2   141  ASN141      0.2292
    121  O         13.3760   20.3820   24.3900 O.2   141  ASN141     -0.2864
    122  CB        11.8580   22.7550   24.4090 C.3   141  ASN141      0.1181
    123  CG        10.6060   22.4350   23.7310 C.2   141  ASN141      0.2629
    124  OD1       10.4100   21.3060   23.2360 O.2   141  ASN141     -0.2716
    125  ND2        9.6730   23.4320   23.7210 N.am  141  ASN141     -0.0877
    126  N         16.7880   18.7620   22.8770 N.3   143  LEU143     -0.1245
    127  CA        18.2640   18.8850   23.1210 C.3   143  LEU143      0.1561
    128  C         19.0380   17.9460   22.2590 C.2   143  LEU143      0.2260
    129  O         18.5360   16.8710   21.8900 O.2   143  LEU143     -0.2867
    130  CB        18.5570   18.5840   24.5800 C.3   143  LEU143      0.0270
    131  CG        18.1620   19.6490   25.6000 C.3   143  LEU143      0.0019
    132  CD1       18.3070   19.1490   27.0510 C.3   143  LEU143      0.0001
    133  CD2       19.0170   20.9050   25.3640 C.3   143  LEU143      0.0001
    134  N         13.0550   17.8270   25.9980 N.3   153  ALA153     -0.1231
    135  CA        13.2040   18.5720   27.2330 C.3   153  ALA153      0.1694
    136  C         12.0100   19.5290   27.4780 C.2   153  ALA153      0.2592
    137  O         10.9600   19.3560   26.8290 O.2   153  ALA153     -0.2718
    138  CB        14.5850   19.2880   27.2600 C.3   153  ALA153      0.0304
    139  N         12.1590   20.5160   28.3530 N.am  154  ASP154     -0.1974
    140  CA        11.1090   21.4580   28.7190 C.3   154  ASP154      0.1709
    141  C          9.7380   20.7760   29.0630 C.2   154  ASP154      0.2293
    142  O          8.7770   20.8230   28.2880 O.2   154  ASP154     -0.2864
    143  CB        10.8510   22.5870   27.7330 C.3   154  ASP154      0.1436
    144  CG         9.9990   23.6760   28.3520 C.2   154  ASP154      0.3671
    145  OD1        9.5830   23.5630   29.5540 O.co2 154  ASP154     -0.2456
    146  OD2        9.5900   24.5740   27.5740 O.co2 154  ASP154     -0.2456
@<TRIPOS>BOND
     1    91    90    2
     2    98    96    1
     3   102   101    2
     4    95    96    2
     5    95    94    1
     6    96    97    1
     7   101   100    1
     8    90    89    1
     9    90    99   am
    10    93    94    1
    11    93    92    1
    12    89    92    1
    13    89    88    1
    14   100    99    1
    15   100   103    1
    16   103   104    1
    17   105   104   ar
    18   104   106   ar
    19    85    84    2
    20   116   115    1
    21   107   108    1
    22    84    83    1
    23   115   114    2
    24   115   117    1
    25    87    86    1
    26   108   111    1
    27   108   109    1
    28   114   113    1
    29   111   112    1
    30    83    86    1
    31    83    82    1
    32   112   113    1
    33   129   128    2
    34    82    80   am
    35   109   118   am
    36   109   110    2
    37    81    80    2
    38   128   127    1
    39   118   119    1
    40    80    79    1
    41   126   127    1
    42   127   130    1
    43    79    78    1
    44   124   123    2
    45   120   119    1
    46   120   121    2
    47   119   122    1
    48   125   123   am
    49   123   122    1
    50   130   131    1
    51   133   131    1
    52   131   132    1
    53   134   135    1
    54    73    72    2
    55    72    71    1
    56    74    75    1
    57    74    71    1
    58    76    75    1
    59   137   136    2
    60    77    75    1
    61   135   138    1
    62   135   136    1
    63    71    70    1
    64   136   139   am
    65   146   144   ar
    66     4     3    2
    67   143   144    1
    68   143   140    1
    69   142   141    2
    70    69    68    1
    71    34    35    1
    72   144   145   ar
    73   139   140    1
    74    70    60   am
    75    16    15    2
    76   140   141    1
    77     3     2    1
    78     3     9   am
    79    68    66   ar
    80    68    67   ar
    81    10     9    1
    82    10    11    1
    83     8     6    1
    84    35    38    1
    85    35    36    1
    86    66    64   ar
    87    38    40    1
    88    38    39    1
    89     2     5    1
    90     2     1    1
    91    57    55   ar
    92    13    11   am
    93    13    14    1
    94    61    60    2
    95    60    59    1
    96    67    65   ar
    97     5     6    1
    98    15    14    1
    99    56    55   ar
   100    64    63   ar
   101    17    14    1
   102    17    18    1
   103    11    12    2
   104    55    54    1
   105     6     7    1
   106    65    63   ar
   107    36    37    2
   108    63    62    1
   109    18    19    1
   110    54    53    1
   111    59    62    1
   112    59    58    1
   113    52    51    2
   114    58    51   am
   115    51    50    1
   116    53    50    1
   117    28    26    1
   118    26    27    1
   119    26    23    1
   120    19    20    1
   121    25    24    2
   122    50    49    1
   123    33    30    1
   124    20    21    1
   125    47    48    1
   126    47    46    1
   127    24    23    1
   128    22    23    1
   129    49    43   am
   130    45    46    1
   131    45    42    1
   132    30    29    1
   133    30    31    1
   134    43    44    2
   135    43    42    1
   136    42    41    1
   137    31    32    2
