@<TRIPOS>MOLECULE
tmp/5lwpA00.pdb
 226 216 0 0 0
SMALL
GASTEIGER

@<TRIPOS>ATOM
      1  N         42.5720  -10.7410   24.6210 N.3    55  TRP55      -0.1241
      2  CA        41.5760  -11.7740   24.8480 C.3    55  TRP55       0.1605
      3  C         40.5960  -11.3570   25.8840 C.2    55  TRP55       0.2264
      4  O         39.3960  -11.4440   25.6340 O.2    55  TRP55      -0.2867
      5  CB        42.1780  -13.1400   25.1440 C.3    55  TRP55       0.0550
      6  CG        41.2980  -14.0550   25.9300 C.ar   55  TRP55       0.0003
      7  CD1       41.4920  -14.4360   27.2010 C.ar   55  TRP55       0.0946
      8  CD2       40.0610  -14.6940   25.4960 C.ar   55  TRP55       0.0152
      9  NE1       40.4870  -15.2760   27.6060 N.ar   55  TRP55      -0.2442
     10  CE2       39.6000  -15.4690   26.5820 C.ar   55  TRP55       0.0810
     11  CE3       39.3140  -14.6860   24.2950 C.ar   55  TRP55       0.0012
     12  CZ2       38.4080  -16.2500   26.5270 C.ar   55  TRP55       0.0191
     13  CZ3       38.1380  -15.4750   24.2260 C.ar   55  TRP55       0.0001
     14  CH2       37.6900  -16.2360   25.3620 C.ar   55  TRP55       0.0015
     15  N         36.7660  -11.0660   25.0110 N.3    59  ALA59      -0.1245
     16  CA        35.8810  -12.0280   25.6450 C.3    59  ALA59       0.1562
     17  C         34.8160  -11.3390   26.4430 C.2    59  ALA59       0.2260
     18  O         33.6670  -11.8230   26.4430 O.2    59  ALA59      -0.2867
     19  CB        36.6450  -13.0230   26.5520 C.3    59  ALA59       0.0290
     20  N         32.3780   -9.8110   24.1260 N.3    62  LEU62      -0.1231
     21  CA        31.5870  -10.8760   23.5430 C.3    62  LEU62       0.1693
     22  C         30.5620  -11.4820   24.4870 C.2    62  LEU62       0.2592
     23  O         29.4710  -11.8590   24.0520 O.2    62  LEU62      -0.2718
     24  CB        32.4450  -11.9930   22.9280 C.3    62  LEU62       0.0284
     25  CG        33.0080  -11.7520   21.5330 C.3    62  LEU62       0.0019
     26  CD1       34.0650  -12.8030   21.2710 C.3    62  LEU62       0.0001
     27  CD2       31.9400  -11.7340   20.4250 C.3    62  LEU62       0.0001
     28  N         30.9050  -11.5740   25.7580 N.am   63  THR63      -0.1953
     29  CA        30.0320  -12.2100   26.7530 C.3    63  THR63       0.1897
     30  C         28.8740  -11.2590   27.0830 C.2    63  THR63       0.2313
     31  O         27.7130  -11.6530   27.1930 O.2    63  THR63      -0.2863
     32  CB        30.8400  -12.5140   28.0360 C.3    63  THR63       0.1794
     33  OG1       31.7090  -13.5980   27.7400 O.3    63  THR63      -0.2208
     34  CG2       29.9080  -12.8700   29.2130 C.3    63  THR63       0.0378
     35  N         26.5090  -11.6210   24.2880 N.3    66  ILE66      -0.1231
     36  CA        25.6320  -12.7860   24.4730 C.3    66  ILE66       0.1692
     37  C         24.5040  -12.5300   25.4880 C.2    66  ILE66       0.2591
     38  O         23.3970  -13.0520   25.3460 O.2    66  ILE66      -0.2718
     39  CB        26.4140  -14.0530   24.8600 C.3    66  ILE66       0.0266
     40  CG1       27.3200  -14.5040   23.6870 C.3    66  ILE66       0.0019
     41  CG2       25.4150  -15.1390   25.3400 C.3    66  ILE66       0.0020
     42  CD1       26.5770  -15.1460   22.5150 C.3    66  ILE66       0.0001
     43  N         24.7710  -11.6800   26.4600 N.am   67  GLN67      -0.1979
     44  CA        23.8370  -11.3540   27.5390 C.3    67  GLN67       0.1601
     45  C         22.6710  -10.5220   27.0760 C.2    67  GLN67       0.2287
     46  O         21.4980  -10.8570   27.3840 O.2    67  GLN67      -0.2864
     47  CB        24.5770  -10.6810   28.7020 C.3    67  GLN67       0.0394
     48  CG        25.5120  -11.7170   29.3020 C.3    67  GLN67       0.0908
     49  CD        26.2750  -11.2350   30.5020 C.2    67  GLN67       0.2608
     50  OE1       26.4920  -10.0240   30.6910 O.2    67  GLN67      -0.2717
     51  NE2       26.6950  -12.1890   31.3270 N.am   67  GLN67      -0.0878
     52  N         20.4200  -12.8390   25.2050 N.3    70  VAL70      -0.1245
     53  CA        19.6600  -13.6320   26.1800 C.3    70  VAL70       0.1561
     54  C         18.4050  -12.8500   26.6340 C.2    70  VAL70       0.2260
     55  O         17.2540  -13.3790   26.6200 O.2    70  VAL70      -0.2867
     56  CB        20.5590  -14.0300   27.3930 C.3    70  VAL70       0.0252
     57  CG1       19.7460  -14.6250   28.5370 C.3    70  VAL70       0.0019
     58  CG2       21.6420  -15.0230   26.9720 C.3    70  VAL70       0.0019
     59  N         19.2370  -21.0730   22.7780 N.3    91  LEU91      -0.1231
     60  CA        20.2850  -20.1570   23.1090 C.3    91  LEU91       0.1693
     61  C         21.6820  -20.7210   22.9730 C.2    91  LEU91       0.2592
     62  O         22.5590  -20.0200   22.4950 O.2    91  LEU91      -0.2718
     63  CB        20.0420  -19.5990   24.4930 C.3    91  LEU91       0.0284
     64  CG        18.8930  -18.5770   24.5180 C.3    91  LEU91       0.0019
     65  CD1       18.5360  -18.2770   25.9790 C.3    91  LEU91       0.0001
     66  CD2       19.3060  -17.2990   23.8230 C.3    91  LEU91       0.0001
     67  N         21.8840  -21.9760   23.3720 N.am   92  LYS92      -0.1966
     68  CA        23.1700  -22.6780   23.1840 C.3    92  LYS92       0.1728
     69  C         23.5600  -22.7280   21.7140 C.2    92  LYS92       0.2616
     70  O         24.7110  -22.4970   21.3660 O.2    92  LYS92      -0.2715
     71  CB        23.1580  -24.0980   23.7960 C.3    92  LYS92       0.0311
     72  CG        24.5000  -24.8290   23.7740 C.3    92  LYS92       0.0038
     73  CD        24.7090  -25.6880   25.0150 C.3    92  LYS92       0.0206
     74  CE        25.1300  -27.1100   24.6600 C.3    92  LYS92       0.1093
     75  NZ        26.5990  -27.2790   24.5020 N.3    92  LYS92      -0.1314
     76  N         22.5840  -23.0220   20.8630 N.am   93  ALA93      -0.1963
     77  CA        22.8210  -23.1110   19.4260 C.3    93  ALA93       0.1728
     78  C         22.7950  -21.7500   18.7160 C.2    93  ALA93       0.2617
     79  O         23.3880  -21.6300   17.6720 O.2    93  ALA93      -0.2715
     80  CB        21.8170  -24.0610   18.7960 C.3    93  ALA93       0.0334
     81  N         22.1370  -20.7360   19.2990 N.am   94  GLY94      -0.1940
     82  CA        21.7250  -19.5760   18.5200 C.3    94  GLY94       0.2014
     83  C         22.3000  -18.2440   18.9060 C.2    94  GLY94       0.2639
     84  O         22.3870  -17.3780   18.0540 O.2    94  GLY94      -0.2714
     85  N         22.6840  -18.0670   20.1820 N.am   95  ALA95      -0.1963
     86  CA        22.9330  -16.7360   20.6340 C.3    95  ALA95       0.1728
     87  C         24.1540  -16.0890   19.9550 C.2    95  ALA95       0.2616
     88  O         24.1360  -14.8650   19.7200 O.2    95  ALA95      -0.2715
     89  CB        23.0390  -16.6500   22.1400 C.3    95  ALA95       0.0334
     90  N         25.1820  -16.8890   19.6520 N.am   96  MET96      -0.1963
     91  CA        26.3580  -16.3250   19.0970 C.3    96  MET96       0.1736
     92  C         26.1760  -16.0250   17.6020 C.2    96  MET96       0.2616
     93  O         26.7810  -15.0950   17.0800 O.2    96  MET96      -0.2715
     94  CB        27.6170  -17.1770   19.3760 C.3    96  MET96       0.0427
     95  CG        28.8960  -16.5750   18.7510 C.3    96  MET96       0.0599
     96  SD        29.5000  -15.0850   19.6200 S.3    96  MET96      -0.1393
     97  CE        29.9990  -15.7620   21.2380 C.3    96  MET96       0.0692
     98  N         25.4210  -16.8320   16.9140 N.am   97  GLU97      -0.1977
     99  CA        24.9880  -16.4910   15.5840 C.3    97  GLU97       0.1602
    100  C         24.2570  -15.1420   15.6040 C.2    97  GLU97       0.2287
    101  O         24.4870  -14.3100   14.7510 O.2    97  GLU97      -0.2864
    102  CB        24.0480  -17.5700   15.0320 C.3    97  GLU97       0.0415
    103  CG        24.7720  -18.8200   14.5740 C.3    97  GLU97       0.1163
    104  CD        23.8260  -19.9610   14.2060 C.2    97  GLU97       0.3649
    105  OE1       24.2810  -21.0140   13.6980 O.co2  97  GLU97      -0.2457
    106  OE2       22.6180  -19.8340   14.4270 O.co2  97  GLU97      -0.2457
    107  N         30.1310  -19.6200   12.9510 N.3   214  CYS214     -0.1221
    108  CA        29.8890  -19.7110   14.3560 C.3   214  CYS214      0.1808
    109  C         30.7070  -20.8550   15.0440 C.2   214  CYS214      0.2601
    110  O         31.2670  -20.6130   16.1290 O.2   214  CYS214     -0.2717
    111  CB        28.4110  -19.8600   14.6420 C.3   214  CYS214      0.0970
    112  SG        28.1000  -19.6660   16.4010 S.3   214  CYS214     -0.0800
    113  N         30.7560  -22.0400   14.4190 N.am  215  SER215     -0.1952
    114  CA        31.5270  -23.1670   14.9050 C.3   215  SER215      0.1924
    115  C         33.0010  -22.8440   15.1020 C.2   215  SER215      0.2314
    116  O         33.5620  -23.1240   16.1630 O.2   215  SER215     -0.2863
    117  CB        31.4040  -24.3320   13.9490 C.3   215  SER215      0.2116
    118  OG        30.1180  -24.8240   14.1460 O.3   215  SER215     -0.2180
    119  N         33.3210  -20.0900   18.0610 N.3   218  VAL218     -0.1245
    120  CA        33.1690  -20.8010   19.3030 C.3   218  VAL218      0.1561
    121  C         34.3440  -21.7650   19.6290 C.2   218  VAL218      0.2260
    122  O         34.8280  -21.7510   20.7510 O.2   218  VAL218     -0.2867
    123  CB        31.8330  -21.5460   19.3330 C.3   218  VAL218      0.0252
    124  CG1       31.7150  -22.4180   20.5850 C.3   218  VAL218      0.0019
    125  CG2       30.6850  -20.5340   19.1880 C.3   218  VAL218      0.0019
    126  N         37.0020  -19.5100   20.9010 N.3   221  LEU221     -0.1231
    127  CA        36.7850  -18.9010   22.1900 C.3   221  LEU221      0.1693
    128  C         36.9150  -19.9320   23.3410 C.2   221  LEU221      0.2591
    129  O         37.2530  -19.5370   24.4500 O.2   221  LEU221     -0.2718
    130  CB        35.4020  -18.2740   22.2990 C.3   221  LEU221      0.0284
    131  CG        34.9700  -17.2120   21.3180 C.3   221  LEU221      0.0019
    132  CD1       33.4740  -17.0370   21.5010 C.3   221  LEU221      0.0001
    133  CD2       35.7420  -15.9100   21.4820 C.3   221  LEU221      0.0001
    134  N         36.5980  -21.2070   23.0690 N.am  222  GLN222     -0.1979
    135  CA        36.6690  -22.2840   24.0260 C.3   222  GLN222      0.1601
    136  C         38.1370  -22.6070   24.3920 C.2   222  GLN222      0.2287
    137  O         38.4760  -22.7470   25.5610 O.2   222  GLN222     -0.2864
    138  CB        35.9340  -23.5060   23.5010 C.3   222  GLN222      0.0394
    139  CG        34.4350  -23.3110   23.6590 C.3   222  GLN222      0.0908
    140  CD        33.6170  -24.4780   23.1450 C.2   222  GLN222      0.2608
    141  OE1       33.9290  -25.0690   22.1070 O.2   222  GLN222     -0.2717
    142  NE2       32.5490  -24.8270   23.8890 N.am  222  GLN222     -0.0878
    143  N         39.2690  -19.6400   26.5330 N.3   225  GLN225     -0.1245
    144  CA        38.6930  -19.7790   27.8540 C.3   225  GLN225      0.1566
    145  C         39.3860  -20.8750   28.7040 C.2   225  GLN225      0.2260
    146  O         39.5100  -20.7190   29.8960 O.2   225  GLN225     -0.2867
    147  CB        37.1650  -20.0640   27.7510 C.3   225  GLN225      0.0367
    148  CG        36.4130  -20.0200   29.0760 C.3   225  GLN225      0.0905
    149  CD        36.4350  -18.6490   29.7820 C.2   225  GLN225      0.2608
    150  OE1       37.0070  -17.6640   29.3150 O.2   225  GLN225     -0.2717
    151  NE2       35.8030  -18.6020   30.9320 N.am  225  GLN225     -0.0878
    152  N         38.1780  -16.1090   31.7070 N.3   230  ILE230     -0.1245
    153  CA        37.6700  -14.8630   32.2640 C.3   230  ILE230      0.1561
    154  C         36.5890  -15.2770   33.2340 C.2   230  ILE230      0.2260
    155  O         36.0800  -16.3930   33.1470 O.2   230  ILE230     -0.2867
    156  CB        37.1420  -13.8810   31.1960 C.3   230  ILE230      0.0252
    157  CG1       35.8750  -14.4380   30.5100 C.3   230  ILE230      0.0019
    158  CG2       38.2820  -13.4820   30.2440 C.3   230  ILE230      0.0019
    159  CD1       34.9370  -13.3860   29.9480 C.3   230  ILE230      0.0001
    160  N         32.8290  -14.7550   34.9250 N.3   232  VAL232     -0.1245
    161  CA        31.5650  -14.2500   34.3810 C.3   232  VAL232      0.1561
    162  C         30.4340  -14.3880   35.4020 C.2   232  VAL232      0.2260
    163  O         30.2200  -15.4760   35.9900 O.2   232  VAL232     -0.2867
    164  CB        31.1580  -15.0190   33.0750 C.3   232  VAL232      0.0252
    165  CG1       29.7690  -14.6170   32.5970 C.3   232  VAL232      0.0019
    166  CG2       32.1850  -14.8490   31.9610 C.3   232  VAL232      0.0019
    167  N         26.9460  -15.0590   35.5880 N.3   234  ALA234     -0.1231
    168  CA        26.0200  -15.6130   34.6050 C.3   234  ALA234      0.1694
    169  C         24.6690  -14.9380   34.7630 C.2   234  ALA234      0.2592
    170  O         24.2620  -14.6620   35.8860 O.2   234  ALA234     -0.2718
    171  CB        25.9170  -17.1320   34.7230 C.3   234  ALA234      0.0304
    172  N         24.0260  -14.6070   33.6410 N.am  235  ALA235     -0.1966
    173  CA        22.6570  -14.0950   33.6320 C.3   235  ALA235      0.1728
    174  C         21.6580  -15.2350   33.4130 C.2   235  ALA235      0.2616
    175  O         20.4850  -15.0980   33.7210 O.2   235  ALA235     -0.2715
    176  CB        22.5000  -13.0400   32.5590 C.3   235  ALA235      0.0334
    177  N         22.1290  -16.3450   32.8530 N.am  236  PHE236     -0.1974
    178  CA        21.3070  -17.5200   32.6530 C.3   236  PHE236      0.1639
    179  C         22.1320  -18.7370   33.0460 C.2   236  PHE236      0.2290
    180  O         22.5940  -19.5000   32.1650 O.2   236  PHE236     -0.2864
    181  CB        20.7400  -17.6050   31.2150 C.3   236  PHE236      0.0560
    182  CG        19.5920  -18.6110   31.0380 C.ar  236  PHE236     -0.0200
    183  CD1       18.7250  -18.9430   32.1000 C.ar  236  PHE236     -0.0042
    184  CD2       19.3400  -19.1880   29.7730 C.ar  236  PHE236     -0.0042
    185  CE1       17.6840  -19.8590   31.9150 C.ar  236  PHE236     -0.0003
    186  CE2       18.2880  -20.0900   29.5820 C.ar  236  PHE236     -0.0003
    187  CZ        17.4650  -20.4370   30.6550 C.ar  236  PHE236     -0.0000
    188  N         22.2910  -22.1370   31.2330 N.3   239  LEU239     -0.1231
    189  CA        22.9170  -22.0540   29.9090 C.3   239  LEU239      0.1693
    190  C         24.4280  -21.9800   30.0610 C.2   239  LEU239      0.2592
    191  O         25.1500  -22.7200   29.4080 O.2   239  LEU239     -0.2718
    192  CB        22.3940  -20.8770   29.0570 C.3   239  LEU239      0.0284
    193  CG        23.2310  -20.5140   27.8060 C.3   239  LEU239      0.0019
    194  CD1       23.2600  -21.5940   26.7230 C.3   239  LEU239      0.0001
    195  CD2       22.8110  -19.2090   27.1950 C.3   239  LEU239      0.0001
    196  N         24.8780  -21.0680   30.9150 N.am  240  TYR240     -0.1976
    197  CA        26.2980  -20.8480   31.1330 C.3   240  TYR240      0.1639
    198  C         27.0260  -22.1380   31.5480 C.2   240  TYR240      0.2290
    199  O         28.1060  -22.4580   30.9980 O.2   240  TYR240     -0.2864
    200  CB        26.4890  -19.7180   32.1470 C.3   240  TYR240      0.0560
    201  CG        27.9240  -19.5160   32.5720 C.ar  240  TYR240     -0.0198
    202  CD1       28.4960  -20.3000   33.5910 C.ar  240  TYR240     -0.0009
    203  CD2       28.7190  -18.5350   31.9720 C.ar  240  TYR240     -0.0009
    204  CE1       29.8090  -20.1130   33.9920 C.ar  240  TYR240      0.0417
    205  CE2       30.0330  -18.3330   32.3790 C.ar  240  TYR240      0.0417
    206  CZ        30.5740  -19.1250   33.3840 C.ar  240  TYR240      0.1957
    207  OH        31.8800  -18.9360   33.7900 O.3   240  TYR240     -0.2866
    208  N         28.4200  -24.5310   28.9830 N.3   243  LEU243     -0.1231
    209  CA        29.5210  -24.1360   28.1050 C.3   243  LEU243      0.1693
    210  C         30.8330  -23.7240   28.7920 C.2   243  LEU243      0.2592
    211  O         31.8410  -23.4840   28.1150 O.2   243  LEU243     -0.2718
    212  CB        29.0810  -22.9490   27.2410 C.3   243  LEU243      0.0284
    213  CG        28.0210  -23.1930   26.1840 C.3   243  LEU243      0.0019
    214  CD1       27.5350  -21.8210   25.7660 C.3   243  LEU243      0.0001
    215  CD2       28.5730  -24.0090   25.0200 C.3   243  LEU243      0.0001
    216  N         30.8250  -23.5770   30.1100 N.am  244  PHE244     -0.1976
    217  CA        32.0170  -23.0850   30.7830 C.3   244  PHE244      0.1639
    218  C         32.5930  -24.0830   31.8060 C.2   244  PHE244      0.2290
    219  O         31.9790  -24.3890   32.8330 O.2   244  PHE244     -0.2864
    220  CB        31.7410  -21.7110   31.4030 C.3   244  PHE244      0.0560
    221  CG        31.6430  -20.5760   30.4020 C.ar  244  PHE244     -0.0200
    222  CD1       30.4800  -20.3770   29.6280 C.ar  244  PHE244     -0.0042
    223  CD2       32.7010  -19.6470   30.2710 C.ar  244  PHE244     -0.0042
    224  CE1       30.3990  -19.3030   28.7290 C.ar  244  PHE244     -0.0003
    225  CE2       32.6270  -18.5670   29.3720 C.ar  244  PHE244     -0.0003
    226  CZ        31.4730  -18.3990   28.5930 C.ar  244  PHE244     -0.0000
@<TRIPOS>BOND
     1   107   108    1
     2   105   104   ar
     3   117   118    1
     4   117   114    1
     5   104   106   ar
     6   104   103    1
     7   108   111    1
     8   108   109    1
     9   113   114    1
    10   113   109   am
    11   103   102    1
    12   111   112    1
    13   101   100    2
    14   114   115    1
    15   102    99    1
    16   109   110    2
    17   115   116    2
    18    99   100    1
    19    99    98    1
    20    98    92   am
    21    93    92    2
    22    92    91    1
    23    79    78    2
    24    84    83    2
    25   119   120    1
    26    82    83    1
    27    82    81    1
    28    78    81   am
    29    78    77    1
    30    95    94    1
    31    95    96    1
    32    80    77    1
    33    83    85   am
    34    91    94    1
    35    91    90    1
    36   125   123    1
    37   120   123    1
    38   120   121    1
    39   123   124    1
    40    77    76    1
    41    96    97    1
    42   121   122    2
    43    90    87   am
    44    88    87    2
    45    87    86    1
    46    85    86    1
    47    27    25    1
    48    86    89    1
    49    76    69   am
    50   126   127    1
    51    26    25    1
    52   131   133    1
    53   131   132    1
    54   131   130    1
    55    70    69    2
    56    25    24    1
    57    69    68    1
    58   141   140    2
    59   127   130    1
    60   127   128    1
    61    62    61    2
    62    42    40    1
    63    59    60    1
    64    24    21    1
    65    61    60    1
    66    61    67   am
    67   134   128   am
    68   134   135    1
    69    60    63    1
    70   140   139    1
    71   140   142   am
    72    68    67    1
    73    68    71    1
    74   128   129    2
    75   138   139    1
    76   138   135    1
    77    21    20    1
    78    21    22    1
    79    40    39    1
    80    72    71    1
    81    72    73    1
    82    66    64    1
    83   135   136    1
    84    23    22    2
    85    13    11   ar
    86    13    14   ar
    87    35    36    1
    88    11     8   ar
    89   136   137    2
    90    36    39    1
    91    36    37    1
    92    22    28   am
    93    63    64    1
    94    75    74    1
    95    64    65    1
    96     1     2    1
    97    74    73    1
    98     2     5    1
    99     2     3    1
   100    39    41    1
   101    15    16    1
   102   215   213    1
   103     5     6    1
   104    52    53    1
   105    38    37    2
   106    14    12   ar
   107    37    43   am
   108     8     6   ar
   109     8    10   ar
   110     4     3    2
   111    16    17    1
   112    16    19    1
   113    28    29    1
   114   214   213    1
   115     6     7   ar
   116    53    54    1
   117    53    56    1
   118   213   212    1
   119    18    17    2
   120    43    44    1
   121    12    10   ar
   122   143   144    1
   123    10     9   ar
   124    55    54    2
   125   194   193    1
   126    29    30    1
   127    29    32    1
   128    58    56    1
   129    45    46    2
   130    45    44    1
   131    30    31    2
   132   195   193    1
   133     7     9   ar
   134   212   209    1
   135    56    57    1
   136    44    47    1
   137    33    32    1
   138   147   144    1
   139   147   148    1
   140   193   192    1
   141   144   145    1
   142    32    34    1
   143   209   210    1
   144   209   208    1
   145   211   210    2
   146   226   224   ar
   147   226   225   ar
   148    47    48    1
   149   145   146    2
   150   224   222   ar
   151   210   216   am
   152   192   189    1
   153   148   149    1
   154    48    49    1
   155   150   149    2
   156   225   223   ar
   157   191   190    2
   158   186   184   ar
   159   186   187   ar
   160   222   221   ar
   161   184   182   ar
   162   149   151   am
   163   189   190    1
   164   189   188    1
   165   159   157    1
   166   190   196   am
   167   216   217    1
   168   158   156    1
   169   223   221   ar
   170   221   220    1
   171    49    50    2
   172    49    51   am
   173   157   156    1
   174   187   185   ar
   175   217   220    1
   176   217   218    1
   177   196   197    1
   178   199   198    2
   179   182   181    1
   180   182   183   ar
   181   197   198    1
   182   197   200    1
   183   156   153    1
   184   181   178    1
   185   152   153    1
   186   218   219    2
   187   185   183   ar
   188   166   164    1
   189   203   205   ar
   190   203   201   ar
   191   200   201    1
   192   180   179    2
   193   153   154    1
   194   205   206   ar
   195   176   173    1
   196   201   202   ar
   197   165   164    1
   198   178   177    1
   199   178   179    1
   200   177   174   am
   201   164   161    1
   202   155   154    2
   203   206   207    1
   204   206   204   ar
   205   174   173    1
   206   174   175    2
   207   202   204   ar
   208   173   172    1
   209   172   169   am
   210   161   160    1
   211   161   162    1
   212   168   171    1
   213   168   169    1
   214   168   167    1
   215   169   170    2
   216   162   163    2
