@<TRIPOS>MOLECULE
tmp/5lwsA00.pdb
 189 177 0 0 0
SMALL
GASTEIGER

@<TRIPOS>ATOM
      1  N         -3.9010   -8.9640    3.4290 N.3    10  ILE10      -0.1231
      2  CA        -4.9950   -9.3820    4.2960 C.3    10  ILE10       0.1692
      3  C         -6.2850   -9.6230    3.5340 C.2    10  ILE10       0.2592
      4  O         -7.2010  -10.2390    4.0840 O.2    10  ILE10      -0.2718
      5  CB        -5.2640   -8.4010    5.4520 C.3    10  ILE10       0.0266
      6  CG1       -5.7510   -7.0390    4.9360 C.3    10  ILE10       0.0019
      7  CG2       -4.0420   -8.2890    6.3510 C.3    10  ILE10       0.0020
      8  CD1       -6.3530   -6.1630    6.0100 C.3    10  ILE10       0.0001
      9  N         -6.3950   -9.1250    2.3060 N.am   11  ASP11      -0.1974
     10  CA        -7.6150   -9.1940    1.5330 C.3    11  ASP11       0.1709
     11  C         -7.2490   -9.0210    0.0660 C.2    11  ASP11       0.2293
     12  O         -6.0830   -8.8510   -0.2870 O.2    11  ASP11      -0.2864
     13  CB        -8.6620   -8.1990    2.0390 C.3    11  ASP11       0.1436
     14  CG        -8.2650   -6.7430    1.8800 C.2    11  ASP11       0.3671
     15  OD1       -8.8950   -5.9270    2.6000 O.co2  11  ASP11      -0.2456
     16  OD2       -7.3900   -6.4060    1.0540 O.co2  11  ASP11      -0.2456
     17  N         -7.6360   -6.6890   -1.9750 N.3    13  LEU13      -0.1245
     18  CA        -7.2750   -5.3490   -2.4090 C.3    13  LEU13       0.1561
     19  C         -5.9000   -4.9300   -1.9260 C.2    13  LEU13       0.2260
     20  O         -5.4760   -3.8070   -2.2190 O.2    13  LEU13      -0.2867
     21  CB        -8.2700   -4.3290   -1.8540 C.3    13  LEU13       0.0270
     22  CG        -9.7150   -4.4790   -2.2810 C.3    13  LEU13       0.0019
     23  CD1      -10.6290   -3.4870   -1.5460 C.3    13  LEU13       0.0001
     24  CD2       -9.8150   -4.2990   -3.7820 C.3    13  LEU13       0.0001
     25  N         -5.2100   -4.2690    1.2070 N.3    15  ASP15      -0.1225
     26  CA        -5.4520   -3.1880    2.1580 C.3    15  ASP15       0.1805
     27  C         -4.3570   -3.1100    3.2200 C.2    15  ASP15       0.2597
     28  O         -4.1220   -2.0320    3.7800 O.2    15  ASP15      -0.2718
     29  CB        -6.8310   -3.3320    2.8040 C.3    15  ASP15       0.1424
     30  CG        -7.9560   -2.8580    1.8900 C.2    15  ASP15       0.3668
     31  OD1       -7.8040   -1.8070    1.2350 O.co2  15  ASP15      -0.2456
     32  OD2       -9.0010   -3.5380    1.8390 O.co2  15  ASP15      -0.2456
     33  N         -3.7130   -4.2240    3.5340 N.am   16  ALA16      -0.1979
     34  CA        -2.5720   -4.2710    4.4320 C.3    16  ALA16       0.1597
     35  C         -1.9190   -5.6240    4.2050 C.2    16  ALA16       0.2287
     36  O         -2.4690   -6.4740    3.4960 O.2    16  ALA16      -0.2864
     37  CB        -2.9920   -4.1050    5.8960 C.3    16  ALA16       0.0319
     38  N          1.3830   -6.3780   11.3590 N.3    33  ASP33      -0.1239
     39  CA         1.4870   -5.4110   10.2680 C.3    33  ASP33       0.1674
     40  C          2.8060   -4.6630   10.4210 C.2    33  ASP33       0.2266
     41  O          2.9510   -3.7940   11.2820 O.2    33  ASP33      -0.2867
     42  CB         0.2650   -4.5020   10.3350 C.3    33  ASP33       0.1410
     43  CG         0.4290   -3.1820    9.6280 C.2    33  ASP33       0.3668
     44  OD1        1.1990   -3.0670    8.6560 O.co2  33  ASP33      -0.2456
     45  OD2       -0.2960   -2.2460   10.0560 O.co2  33  ASP33      -0.2456
     46  N         -2.5690    6.7730   15.0480 N.3    79  TYR79      -0.1227
     47  CA        -2.0570    6.6340   13.6950 C.3    79  TYR79       0.1736
     48  C         -2.7390    7.6290   12.7600 C.2    79  TYR79       0.2596
     49  O         -3.7330    8.2670   13.1070 O.2    79  TYR79      -0.2718
     50  CB        -2.2590    5.2000   13.2190 C.3    79  TYR79       0.0548
     51  CG        -1.4910    4.2000   14.0440 C.ar   79  TYR79      -0.0200
     52  CD1       -2.1210    3.3950   14.9800 C.ar   79  TYR79      -0.0009
     53  CD2       -0.1250    4.0370   13.8510 C.ar   79  TYR79      -0.0009
     54  CE1       -1.4070    2.4760   15.7280 C.ar   79  TYR79       0.0417
     55  CE2        0.5960    3.1180   14.5760 C.ar   79  TYR79       0.0417
     56  CZ        -0.0530    2.3330   15.5180 C.ar   79  TYR79       0.1957
     57  OH         0.6440    1.3860   16.2490 O.3    79  TYR79      -0.2866
     58  N         -2.1860    7.7260   11.5450 N.am   80  GLY80      -0.1942
     59  CA        -2.6200    8.7160   10.5770 C.3    80  GLY80       0.2014
     60  C         -4.0610    8.5850   10.1390 C.2    80  GLY80       0.2638
     61  O         -4.6480    9.5620    9.6670 O.2    80  GLY80      -0.2714
     62  N         -4.6400    7.3980   10.2600 N.am   81  ASP81      -0.1971
     63  CA        -6.0420    7.1850    9.9390 C.3    81  ASP81       0.1709
     64  C         -6.9630    7.4470   11.1190 C.2    81  ASP81       0.2293
     65  O         -8.1760    7.2600   10.9940 O.2    81  ASP81      -0.2864
     66  CB        -6.2600    5.7660    9.4100 C.3    81  ASP81       0.1436
     67  CG        -6.0630    4.6980   10.4710 C.2    81  ASP81       0.3671
     68  OD1       -5.4930    4.9930   11.5400 O.co2  81  ASP81      -0.2456
     69  OD2       -6.4570    3.5410   10.2120 O.co2  81  ASP81      -0.2456
     70  N         -6.8910    5.8500   14.0380 N.3    83  SER83      -0.1217
     71  CA        -6.9890    4.7140   14.9350 C.3    83  SER83       0.1889
     72  C         -5.9630    4.8640   16.0540 C.2    83  SER83       0.2288
     73  O         -5.0390    5.6810   15.9840 O.2    83  SER83      -0.2866
     74  CB        -6.7810    3.4060   14.1760 C.3    83  SER83       0.2089
     75  OG        -5.4640    3.2740   13.6920 O.3    83  SER83      -0.2183
     76  N        -11.4160    0.3500   14.5870 N.3   115  SER115     -0.1202
     77  CA       -10.8870   -0.1870   13.3370 C.3   115  SER115      0.2020
     78  C        -10.0210   -1.4120   13.5920 C.2   115  SER115      0.2618
     79  O        -10.0310   -2.3630   12.8010 O.2   115  SER115     -0.2717
     80  CB       -10.1060    0.8830   12.5780 C.3   115  SER115      0.2103
     81  OG        -8.9800    1.3140   13.3150 O.3   115  SER115     -0.2182
     82  N         -9.2730   -1.4180   14.6980 N.am  116  PHE116     -0.1975
     83  CA        -8.4830   -2.5980   15.0370 C.3   116  PHE116      0.1639
     84  C         -9.3900   -3.7660   15.3950 C.2   116  PHE116      0.2290
     85  O         -9.2040   -4.8740   14.8850 O.2   116  PHE116     -0.2864
     86  CB        -7.5060   -2.2840   16.1670 C.3   116  PHE116      0.0560
     87  CG        -6.3630   -1.4210   15.7340 C.ar  116  PHE116     -0.0200
     88  CD1       -5.4610   -1.8960   14.8040 C.ar  116  PHE116     -0.0042
     89  CD2       -6.2000   -0.1320   16.2240 C.ar  116  PHE116     -0.0042
     90  CE1       -4.4160   -1.1240   14.3790 C.ar  116  PHE116     -0.0003
     91  CE2       -5.1560    0.6600   15.7880 C.ar  116  PHE116     -0.0003
     92  CZ        -4.2630    0.1730   14.8600 C.ar  116  PHE116     -0.0000
     93  N        -10.9960   -5.5370   12.4230 N.3   119  ASP119     -0.1239
     94  CA       -10.1310   -6.2450   11.4890 C.3   119  ASP119      0.1674
     95  C         -9.5180   -7.4550   12.1770 C.2   119  ASP119      0.2266
     96  O         -8.5120   -7.3520   12.8830 O.2   119  ASP119     -0.2867
     97  CB        -9.0530   -5.3400   10.9670 C.3   119  ASP119      0.1410
     98  CG        -8.0800   -6.0770   10.1310 C.2   119  ASP119      0.3668
     99  OD1       -8.4280   -7.1680    9.6080 O.co2 119  ASP119     -0.2456
    100  OD2       -6.9260   -5.6050   10.0460 O.co2 119  ASP119     -0.2456
    101  N         -5.3750   -8.6940   11.6600 N.3   122  ILE122     -0.1245
    102  CA        -4.1690   -8.0220   12.1350 C.3   122  ILE122      0.1561
    103  C         -4.1160   -8.1620   13.6500 C.2   122  ILE122      0.2260
    104  O         -4.9950   -7.6630   14.3670 O.2   122  ILE122     -0.2867
    105  CB        -4.1070   -6.5590   11.6680 C.3   122  ILE122      0.0252
    106  CG1       -3.8650   -6.5180   10.1520 C.3   122  ILE122      0.0019
    107  CG2       -3.0220   -5.7940   12.4090 C.3   122  ILE122      0.0019
    108  CD1       -3.8560   -5.1430    9.5500 C.3   122  ILE122      0.0001
    109  N          0.9710   -4.5410   15.4500 N.3   125  LEU125     -0.1245
    110  CA         1.8820   -3.8590   14.5520 C.3   125  LEU125      0.1561
    111  C          3.3120   -4.1140   14.9990 C.2   125  LEU125      0.2260
    112  O          3.5960   -4.2590   16.1970 O.2   125  LEU125     -0.2867
    113  CB         1.6470   -2.3420   14.4880 C.3   125  LEU125      0.0270
    114  CG         0.6700   -1.9020   13.3890 C.3   125  LEU125      0.0019
    115  CD1       -0.7410   -2.4250   13.6100 C.3   125  LEU125      0.0001
    116  CD2        0.6740   -0.3930   13.2440 C.3   125  LEU125      0.0001
    117  N          6.4790    4.2940    3.6840 N.3   219  ASP219     -0.1239
    118  CA         5.6250    3.8300    4.7790 C.3   219  ASP219      0.1674
    119  C          4.8650    2.5640    4.3900 C.2   219  ASP219      0.2266
    120  O          3.8030    2.6290    3.7510 O.2   219  ASP219     -0.2867
    121  CB         4.6750    4.9260    5.2220 C.3   219  ASP219      0.1410
    122  CG         3.9660    4.5930    6.4990 C.2   219  ASP219      0.3668
    123  OD1        3.4340    5.5290    7.1470 O.co2 219  ASP219     -0.2456
    124  OD2        4.0060    3.4210    6.9240 O.co2 219  ASP219     -0.2456
    125  N          3.1770    0.7210    6.2610 N.3   221  GLY221     -0.1210
    126  CA         1.9070    0.6060    6.9480 C.3   221  GLY221      0.1956
    127  C          0.7640    1.2830    6.2370 C.2   221  GLY221      0.2613
    128  O         -0.3960    0.9630    6.5160 O.2   221  GLY221     -0.2717
    129  N          1.0610    2.2050    5.3280 N.am  222  THR222     -0.1938
    130  CA         0.0440    2.9980    4.6470 C.3   222  THR222      0.2028
    131  C         -0.3930    2.2740    3.3800 C.2   222  THR222      0.2643
    132  O          0.4490    1.8640    2.5810 O.2   222  THR222     -0.2714
    133  CB         0.6400    4.3570    4.2580 C.3   222  THR222      0.1808
    134  OG1        1.2500    4.9540    5.4080 O.3   222  THR222     -0.2208
    135  CG2       -0.4270    5.2790    3.6750 C.3   222  THR222      0.0379
    136  N         -1.7060    2.1330    3.1730 N.am  223  THR223     -0.1936
    137  CA        -2.1590    1.4020    1.9900 C.3   223  THR223      0.2028
    138  C         -1.8500    2.1550    0.6990 C.2   223  THR223      0.2642
    139  O         -1.3950    1.5510   -0.2900 O.2   223  THR223     -0.2714
    140  CB        -3.6700    1.1630    2.0930 C.3   223  THR223      0.1808
    141  OG1       -4.0040    0.6250    3.3650 O.3   223  THR223     -0.2208
    142  CG2       -4.1690    0.2380    0.9870 C.3   223  THR223      0.0379
    143  N         -2.1440    3.4530    0.6670 N.am  224  LEU224     -0.1977
    144  CA        -2.2030    4.2400   -0.5630 C.3   224  LEU224      0.1596
    145  C         -0.9780    5.1470   -0.7320 C.2   224  LEU224      0.2287
    146  O         -0.0910    5.2370    0.1190 O.2   224  LEU224     -0.2864
    147  CB        -3.5090    5.0490   -0.6260 C.3   224  LEU224      0.0297
    148  CG        -4.7770    4.2120   -0.4610 C.3   224  LEU224      0.0022
    149  CD1       -6.0000    5.0770   -0.6600 C.3   224  LEU224      0.0001
    150  CD2       -4.8080    3.0290   -1.4360 C.3   224  LEU224      0.0001
    151  N          0.0450    8.9850   -1.2220 N.3   226  TYR226     -0.1241
    152  CA        -0.4500   10.3280   -0.9240 C.3   226  TYR226      0.1605
    153  C          0.5790   11.3400   -1.4080 C.2   226  TYR226      0.2264
    154  O          1.7110   11.3460   -0.9070 O.2   226  TYR226     -0.2867
    155  CB        -0.7230   10.5240    0.5720 C.3   226  TYR226      0.0534
    156  CG        -1.8510    9.6600    1.0920 C.ar  226  TYR226     -0.0201
    157  CD1       -3.1600   10.1160    1.0710 C.ar  226  TYR226     -0.0009
    158  CD2       -1.6140    8.3840    1.5570 C.ar  226  TYR226     -0.0009
    159  CE1       -4.2070    9.3260    1.5030 C.ar  226  TYR226      0.0417
    160  CE2       -2.6550    7.5810    1.9950 C.ar  226  TYR226      0.0417
    161  CZ        -3.9420    8.0550    1.9750 C.ar  226  TYR226      0.1957
    162  OH        -4.9540    7.2430    2.4040 O.3   226  TYR226     -0.2866
    163  N         -8.5710    0.3770   -6.1520 N.3   280  PHE280     -0.1241
    164  CA        -8.9910   -0.1400   -4.8470 C.3   280  PHE280      0.1605
    165  C        -10.4560   -0.5450   -4.8080 C.2   280  PHE280      0.2264
    166  O        -11.0020   -0.7700   -3.7210 O.2   280  PHE280     -0.2867
    167  CB        -8.5450    0.7610   -3.6970 C.3   280  PHE280      0.0534
    168  CG        -7.1010    0.5260   -3.4070 C.ar  280  PHE280     -0.0203
    169  CD1       -6.1260    1.0240   -4.2630 C.ar  280  PHE280     -0.0042
    170  CD2       -6.7090   -0.3350   -2.4060 C.ar  280  PHE280     -0.0042
    171  CE1       -4.8030    0.6960   -4.1050 C.ar  280  PHE280     -0.0003
    172  CE2       -5.3680   -0.6610   -2.2410 C.ar  280  PHE280     -0.0003
    173  CZ        -4.4310   -0.1470   -3.1110 C.ar  280  PHE280     -0.0000
    174  N         -2.7510   16.2450    5.1800 N.3   300  ILE300     -0.1245
    175  CA        -1.9510   15.3910    6.0550 C.3   300  ILE300      0.1561
    176  C         -0.7380   16.1240    6.6190 C.2   300  ILE300      0.2260
    177  O         -0.4120   15.9630    7.7960 O.2   300  ILE300     -0.2867
    178  CB        -1.5170   14.0860    5.3430 C.3   300  ILE300      0.0252
    179  CG1       -2.7320   13.2580    4.9210 C.3   300  ILE300      0.0019
    180  CG2       -0.6010   13.2490    6.2510 C.3   300  ILE300      0.0019
    181  CD1       -2.3910   12.0710    4.0210 C.3   300  ILE300      0.0001
    182  N          3.2100   10.5970    1.4360 N.3   304  ILE304     -0.1245
    183  CA         3.4000    9.2300    1.9110 C.3   304  ILE304      0.1561
    184  C          3.5030    8.2880    0.7250 C.2   304  ILE304      0.2260
    185  O          2.5200    8.0590    0.0100 O.2   304  ILE304     -0.2867
    186  CB         2.3090    8.7580    2.8880 C.3   304  ILE304      0.0252
    187  CG1        2.1040    9.7390    4.0540 C.3   304  ILE304      0.0019
    188  CG2        2.6830    7.3680    3.3820 C.3   304  ILE304      0.0019
    189  CD1        0.9530    9.3600    4.9610 C.3   304  ILE304      0.0001
@<TRIPOS>BOND
     1   163   164    1
     2   164   165    1
     3   164   167    1
     4   165   166    2
     5   169   171   ar
     6   169   168   ar
     7   171   173   ar
     8    24    22    1
     9   167   168    1
    10   168   170   ar
    11   173   172   ar
    12    18    17    1
    13    18    19    1
    14    18    21    1
    15   170   172   ar
    16    22    21    1
    17    22    23    1
    18    20    19    2
    19   150   148    1
    20   153   152    1
    21   153   154    2
    22   151   152    1
    23   152   155    1
    24   145   144    1
    25   145   146    2
    26   149   148    1
    27   147   144    1
    28   147   148    1
    29   144   143    1
    30   139   138    2
    31    12    11    2
    32   185   184    2
    33    11    10    1
    34   155   156    1
    35   143   138   am
    36   138   137    1
    37   184   183    1
    38   142   140    1
    39    16    14   ar
    40   157   156   ar
    41   157   159   ar
    42   156   158   ar
    43    25    26    1
    44    31    30   ar
    45   182   183    1
    46   159   161   ar
    47    10    13    1
    48    10     9    1
    49   158   160   ar
    50    32    30   ar
    51    14    13    1
    52    14    15   ar
    53    30    29    1
    54   183   186    1
    55   161   160   ar
    56   161   162    1
    57   137   140    1
    58   137   136    1
    59   140   141    1
    60    26    29    1
    61    26    27    1
    62     9     3   am
    63   132   131    2
    64   186   188    1
    65   186   187    1
    66   136   131   am
    67    27    33   am
    68    27    28    2
    69   131   130    1
    70     1     2    1
    71    36    35    2
    72    33    34    1
    73     3     4    2
    74     3     2    1
    75   135   133    1
    76   117   118    1
    77   120   119    2
    78   181   179    1
    79   187   189    1
    80    35    34    1
    81   133   130    1
    82   133   134    1
    83     2     5    1
    84   119   118    1
    85    34    37    1
    86   130   129    1
    87   118   121    1
    88   179   178    1
    89     6     5    1
    90     6     8    1
    91   174   175    1
    92   121   122    1
    93   129   127   am
    94   178   175    1
    95   178   180    1
    96     5     7    1
    97   175   176    1
    98   127   128    2
    99   127   126    1
   100   125   126    1
   101   122   124   ar
   102   122   123   ar
   103   176   177    2
   104    44    43   ar
   105    66    63    1
   106    66    67    1
   107   108   106    1
   108    99    98   ar
   109    43    45   ar
   110    43    42    1
   111    61    60    2
   112    63    62    1
   113    63    64    1
   114   100    98   ar
   115    98    97    1
   116    60    62   am
   117    60    59    1
   118   106   105    1
   119    69    67   ar
   120    39    42    1
   121    39    40    1
   122    39    38    1
   123    40    41    2
   124    67    68   ar
   125    59    58    1
   126    97    94    1
   127    65    64    2
   128    94    95    1
   129    94    93    1
   130    58    48   am
   131   101   102    1
   132   105   102    1
   133   105   107    1
   134   102   103    1
   135    95    96    2
   136    80    81    1
   137    80    77    1
   138    48    49    2
   139    48    47    1
   140    79    78    2
   141    50    47    1
   142    50    51    1
   143   116   114    1
   144    77    78    1
   145    77    76    1
   146   114   115    1
   147   114   113    1
   148    78    82   am
   149   103   104    2
   150    75    74    1
   151    47    46    1
   152    53    51   ar
   153    53    55   ar
   154    70    71    1
   155    51    52   ar
   156    74    71    1
   157    90    88   ar
   158    90    92   ar
   159   113   110    1
   160   110   111    1
   161   110   109    1
   162    55    56   ar
   163    82    83    1
   164    88    87   ar
   165    92    91   ar
   166    85    84    2
   167    71    72    1
   168    52    54   ar
   169   111   112    2
   170    83    84    1
   171    83    86    1
   172    56    54   ar
   173    56    57    1
   174    87    86    1
   175    87    89   ar
   176    91    89   ar
   177    73    72    2
