@<TRIPOS>MOLECULE
tmp/5lwsA01.pdb
 87 83 0 0 0
SMALL
GASTEIGER

@<TRIPOS>ATOM
      1  N         -7.6360   -6.6890   -1.9750 N.3    13  LEU13      -0.1245
      2  CA        -7.2750   -5.3490   -2.4090 C.3    13  LEU13       0.1561
      3  C         -5.9000   -4.9300   -1.9260 C.2    13  LEU13       0.2260
      4  O         -5.4760   -3.8070   -2.2190 O.2    13  LEU13      -0.2867
      5  CB        -8.2700   -4.3290   -1.8540 C.3    13  LEU13       0.0270
      6  CG        -9.7150   -4.4790   -2.2810 C.3    13  LEU13       0.0019
      7  CD1      -10.6290   -3.4870   -1.5460 C.3    13  LEU13       0.0001
      8  CD2       -9.8150   -4.2990   -3.7820 C.3    13  LEU13       0.0001
      9  N         -5.2100   -4.2690    1.2070 N.3    15  ASP15      -0.1239
     10  CA        -5.4520   -3.1880    2.1580 C.3    15  ASP15       0.1674
     11  C         -4.3570   -3.1100    3.2200 C.2    15  ASP15       0.2266
     12  O         -4.1220   -2.0320    3.7800 O.2    15  ASP15      -0.2867
     13  CB        -6.8310   -3.3320    2.8040 C.3    15  ASP15       0.1410
     14  CG        -7.9560   -2.8580    1.8900 C.2    15  ASP15       0.3668
     15  OD1       -7.8040   -1.8070    1.2350 O.co2  15  ASP15      -0.2456
     16  OD2       -9.0010   -3.5380    1.8390 O.co2  15  ASP15      -0.2456
     17  N         -1.7060    2.1330    3.1730 N.3   223  THR223     -0.1203
     18  CA        -2.1590    1.4020    1.9900 C.3   223  THR223      0.1994
     19  C         -1.8500    2.1550    0.6990 C.2   223  THR223      0.2617
     20  O         -1.3950    1.5510   -0.2900 O.2   223  THR223     -0.2717
     21  CB        -3.6700    1.1630    2.0930 C.3   223  THR223      0.1784
     22  OG1       -4.0040    0.6250    3.3650 O.3   223  THR223     -0.2211
     23  CG2       -4.1690    0.2380    0.9870 C.3   223  THR223      0.0376
     24  N         -2.1440    3.4530    0.6670 N.am  224  LEU224     -0.1979
     25  CA        -2.2030    4.2400   -0.5630 C.3   224  LEU224      0.1596
     26  C         -0.9780    5.1470   -0.7320 C.2   224  LEU224      0.2287
     27  O         -0.0910    5.2370    0.1190 O.2   224  LEU224     -0.2864
     28  CB        -3.5090    5.0490   -0.6260 C.3   224  LEU224      0.0297
     29  CG        -4.7770    4.2120   -0.4610 C.3   224  LEU224      0.0022
     30  CD1       -6.0000    5.0770   -0.6600 C.3   224  LEU224      0.0001
     31  CD2       -4.8080    3.0290   -1.4360 C.3   224  LEU224      0.0001
     32  N          0.0450    8.9850   -1.2220 N.3   226  TYR226     -0.1241
     33  CA        -0.4500   10.3280   -0.9240 C.3   226  TYR226      0.1605
     34  C          0.5790   11.3400   -1.4080 C.2   226  TYR226      0.2264
     35  O          1.7110   11.3460   -0.9070 O.2   226  TYR226     -0.2867
     36  CB        -0.7230   10.5240    0.5720 C.3   226  TYR226      0.0534
     37  CG        -1.8510    9.6600    1.0920 C.ar  226  TYR226     -0.0201
     38  CD1       -3.1600   10.1160    1.0710 C.ar  226  TYR226     -0.0009
     39  CD2       -1.6140    8.3840    1.5570 C.ar  226  TYR226     -0.0009
     40  CE1       -4.2070    9.3260    1.5030 C.ar  226  TYR226      0.0417
     41  CE2       -2.6550    7.5810    1.9950 C.ar  226  TYR226      0.0417
     42  CZ        -3.9420    8.0550    1.9750 C.ar  226  TYR226      0.1957
     43  OH        -4.9540    7.2430    2.4040 O.3   226  TYR226     -0.2866
     44  N        -17.1330   10.7700   -0.3510 N.3   248  VAL248     -0.1245
     45  CA       -16.4680    9.4840   -0.2540 C.3   248  VAL248      0.1561
     46  C        -15.1420    9.6260    0.4730 C.2   248  VAL248      0.2260
     47  O        -14.7070    8.6970    1.1690 O.2   248  VAL248     -0.2867
     48  CB       -16.3210    8.8260   -1.6380 C.3   248  VAL248      0.0252
     49  CG1      -15.5140    7.5470   -1.5340 C.3   248  VAL248      0.0019
     50  CG2      -17.7050    8.5380   -2.2250 C.3   248  VAL248      0.0019
     51  N         -8.5710    0.3770   -6.1520 N.3   280  PHE280     -0.1241
     52  CA        -8.9910   -0.1400   -4.8470 C.3   280  PHE280      0.1605
     53  C        -10.4560   -0.5450   -4.8080 C.2   280  PHE280      0.2264
     54  O        -11.0020   -0.7700   -3.7210 O.2   280  PHE280     -0.2867
     55  CB        -8.5450    0.7610   -3.6970 C.3   280  PHE280      0.0534
     56  CG        -7.1010    0.5260   -3.4070 C.ar  280  PHE280     -0.0203
     57  CD1       -6.1260    1.0240   -4.2630 C.ar  280  PHE280     -0.0042
     58  CD2       -6.7090   -0.3350   -2.4060 C.ar  280  PHE280     -0.0042
     59  CE1       -4.8030    0.6960   -4.1050 C.ar  280  PHE280     -0.0003
     60  CE2       -5.3680   -0.6610   -2.2410 C.ar  280  PHE280     -0.0003
     61  CZ        -4.4310   -0.1470   -3.1110 C.ar  280  PHE280     -0.0000
     62  N        -14.6990   -1.1750   -5.7030 N.3   282  PRO282     -0.2102
     63  CA       -15.9270   -0.4130   -5.4550 C.3   282  PRO282      0.1504
     64  C        -15.8990    0.3040   -4.1170 C.2   282  PRO282      0.2575
     65  O        -15.4720   -0.2460   -3.0990 O.2   282  PRO282     -0.2718
     66  CB       -17.0160   -1.4900   -5.5110 C.3   282  PRO282      0.0282
     67  CG       -16.4590   -2.4700   -6.5230 C.3   282  PRO282      0.0208
     68  CD       -14.9880   -2.5270   -6.2150 C.3   282  PRO282      0.0893
     69  N        -16.4690    1.5140   -4.1030 N.am  283  ILE283     -0.1980
     70  CA       -16.4840    2.3150   -2.8770 C.3   283  ILE283      0.1595
     71  C        -17.3560    1.6890   -1.8050 C.2   283  ILE283      0.2287
     72  O        -17.1260    1.9030   -0.6020 O.2   283  ILE283     -0.2864
     73  CB       -16.8810    3.7770   -3.1570 C.3   283  ILE283      0.0276
     74  CG1      -18.2930    3.8850   -3.7730 C.3   283  ILE283      0.0022
     75  CG2      -15.8340    4.4270   -4.0420 C.3   283  ILE283      0.0022
     76  CD1      -18.7710    5.2980   -3.8940 C.3   283  ILE283      0.0001
     77  N        -12.5670    3.2800   -5.8180 N.3   291  PHE291     -0.1241
     78  CA       -11.7180    4.1620   -5.0310 C.3   291  PHE291      0.1605
     79  C        -10.2940    4.1860   -5.5820 C.2   291  PHE291      0.2264
     80  O         -9.6920    3.1410   -5.8380 O.2   291  PHE291     -0.2867
     81  CB       -11.7030    3.7830   -3.5550 C.3   291  PHE291      0.0534
     82  CG       -11.2200    4.9100   -2.6610 C.ar  291  PHE291     -0.0203
     83  CD1      -12.0150    6.0220   -2.4290 C.ar  291  PHE291     -0.0042
     84  CD2       -9.9690    4.8950   -2.1010 C.ar  291  PHE291     -0.0042
     85  CE1      -11.5790    7.0660   -1.6240 C.ar  291  PHE291     -0.0003
     86  CE2       -9.5450    5.9280   -1.2940 C.ar  291  PHE291     -0.0003
     87  CZ       -10.3350    7.0130   -1.0650 C.ar  291  PHE291     -0.0000
@<TRIPOS>BOND
     1    67    68    1
     2    67    66    1
     3    68    62    1
     4    51    52    1
     5    80    79    2
     6    77    78    1
     7    62    63    1
     8    79    78    1
     9    66    63    1
    10    63    64    1
    11    78    81    1
    12    52    53    1
    13    52    55    1
    14    53    54    2
    15    57    59   ar
    16    57    56   ar
    17    64    69   am
    18    64    65    2
    19    59    61   ar
    20    69    70    1
    21    75    73    1
    22    76    74    1
    23     8     6    1
    24    74    73    1
    25    55    56    1
    26    81    82    1
    27    56    58   ar
    28    73    70    1
    29    61    60   ar
    30    70    71    1
    31    82    83   ar
    32    82    84   ar
    33    83    85   ar
    34     2     1    1
    35     2     3    1
    36     2     5    1
    37    58    60   ar
    38     6     5    1
    39     6     7    1
    40    50    48    1
    41     4     3    2
    42    84    86   ar
    43    71    72    2
    44    48    49    1
    45    48    45    1
    46    85    87   ar
    47    31    29    1
    48    34    33    1
    49    34    35    2
    50    86    87   ar
    51    32    33    1
    52    33    36    1
    53    26    25    1
    54    26    27    2
    55    30    29    1
    56    28    25    1
    57    28    29    1
    58    25    24    1
    59    44    45    1
    60    20    19    2
    61    45    46    1
    62    46    47    2
    63    36    37    1
    64    24    19   am
    65    19    18    1
    66    23    21    1
    67    38    37   ar
    68    38    40   ar
    69    37    39   ar
    70     9    10    1
    71    15    14   ar
    72    40    42   ar
    73    39    41   ar
    74    16    14   ar
    75    14    13    1
    76    42    41   ar
    77    42    43    1
    78    18    21    1
    79    18    17    1
    80    21    22    1
    81    10    13    1
    82    10    11    1
    83    11    12    2
