@<TRIPOS>MOLECULE
tmp/5lwtA00.pdb
 95 92 0 0 0
SMALL
GASTEIGER

@<TRIPOS>ATOM
      1  N         -7.7340   -6.5530   -1.7700 N.3    13  LEU13      -0.1245
      2  CA        -7.3770   -5.2050   -2.1830 C.3    13  LEU13       0.1561
      3  C         -5.9680   -4.8340   -1.7800 C.2    13  LEU13       0.2260
      4  O         -5.5350   -3.7270   -2.0790 O.2    13  LEU13      -0.2867
      5  CB        -8.3370   -4.1800   -1.5660 C.3    13  LEU13       0.0270
      6  CG        -9.8130   -4.3620   -1.8730 C.3    13  LEU13       0.0019
      7  CD1      -10.6180   -3.3150   -1.1330 C.3    13  LEU13       0.0001
      8  CD2      -10.0660   -4.3170   -3.3640 C.3    13  LEU13       0.0001
      9  N         -5.1410   -4.1820    1.3120 N.3    15  ASP15      -0.1239
     10  CA        -5.2960   -3.0670    2.2560 C.3    15  ASP15       0.1674
     11  C         -4.1240   -2.9810    3.2350 C.2    15  ASP15       0.2266
     12  O         -3.7540   -1.8860    3.6980 O.2    15  ASP15      -0.2867
     13  CB        -6.6060   -3.1840    3.0130 C.3    15  ASP15       0.1410
     14  CG        -7.7790   -2.6900    2.1970 C.2    15  ASP15       0.3668
     15  OD1       -7.6740   -1.5900    1.6130 O.co2  15  ASP15      -0.2456
     16  OD2       -8.8180   -3.3980    2.1130 O.co2  15  ASP15      -0.2456
     17  N         -1.7200    2.2060    3.1700 N.3   223  THR223     -0.1203
     18  CA        -2.1640    1.4590    1.9950 C.3   223  THR223      0.1994
     19  C         -1.8370    2.1850    0.6940 C.2   223  THR223      0.2617
     20  O         -1.3780    1.5610   -0.2690 O.2   223  THR223     -0.2717
     21  CB        -3.6830    1.2250    2.0610 C.3   223  THR223      0.1784
     22  OG1       -4.0700    0.7450    3.3480 O.3   223  THR223     -0.2211
     23  CG2       -4.1310    0.2340    0.9890 C.3   223  THR223      0.0376
     24  N         -2.1640    3.4750    0.6270 N.am  224  LEU224     -0.1979
     25  CA        -2.2180    4.2310   -0.6150 C.3   224  LEU224      0.1596
     26  C         -0.9960    5.1360   -0.7920 C.2   224  LEU224      0.2287
     27  O         -0.1090    5.2410    0.0640 O.2   224  LEU224     -0.2864
     28  CB        -3.5240    5.0170   -0.7070 C.3   224  LEU224      0.0297
     29  CG        -4.7930    4.1920   -0.5060 C.3   224  LEU224      0.0022
     30  CD1       -6.0300    5.0490   -0.7210 C.3   224  LEU224      0.0001
     31  CD2       -4.8400    2.9850   -1.4450 C.3   224  LEU224      0.0001
     32  N          0.0090    8.9510   -1.2880 N.3   226  TYR226     -0.1241
     33  CA        -0.5060   10.2830   -0.9870 C.3   226  TYR226      0.1605
     34  C          0.5200   11.3080   -1.4590 C.2   226  TYR226      0.2264
     35  O          1.6610   11.3250   -0.9680 O.2   226  TYR226     -0.2867
     36  CB        -0.7810   10.4670    0.5120 C.3   226  TYR226      0.0534
     37  CG        -1.9140    9.6110    1.0080 C.ar  226  TYR226     -0.0201
     38  CD1       -3.2140   10.0730    0.9980 C.ar  226  TYR226     -0.0009
     39  CD2       -1.6820    8.3190    1.4590 C.ar  226  TYR226     -0.0009
     40  CE1       -4.2590    9.2680    1.4290 C.ar  226  TYR226      0.0417
     41  CE2       -2.7190    7.5130    1.8750 C.ar  226  TYR226      0.0417
     42  CZ        -4.0040    7.9820    1.8820 C.ar  226  TYR226      0.1957
     43  OH        -5.0190    7.1560    2.2990 O.3   226  TYR226     -0.2866
     44  N        -17.2440   10.7310   -0.3410 N.3   248  VAL248     -0.1231
     45  CA       -16.5640    9.4440   -0.2570 C.3   248  VAL248      0.1692
     46  C        -15.2310    9.5680    0.4740 C.2   248  VAL248      0.2592
     47  O        -14.8070    8.6360    1.1720 O.2   248  VAL248     -0.2718
     48  CB       -16.4260    8.8170   -1.6520 C.3   248  VAL248      0.0266
     49  CG1      -15.6100    7.5270   -1.5850 C.3   248  VAL248      0.0020
     50  CG2      -17.8100    8.5680   -2.2430 C.3   248  VAL248      0.0020
     51  N        -14.5530   10.6970    0.3500 N.am  249  GLY249     -0.1957
     52  CA       -13.2880   10.8980    1.0070 C.3   249  GLY249      0.1869
     53  C        -12.0730   10.8010    0.1130 C.2   249  GLY249      0.2309
     54  O        -10.9860   10.5020    0.6160 O.2   249  GLY249     -0.2863
     55  N         -8.6470    0.3230   -6.2030 N.3   280  PHE280     -0.1227
     56  CA        -9.0640   -0.2010   -4.9030 C.3   280  PHE280      0.1736
     57  C        -10.5080   -0.6470   -4.8770 C.2   280  PHE280      0.2596
     58  O        -11.0400   -0.9380   -3.8020 O.2   280  PHE280     -0.2718
     59  CB        -8.6500    0.6990   -3.7320 C.3   280  PHE280      0.0547
     60  CG        -7.2160    0.4920   -3.4190 C.ar  280  PHE280     -0.0202
     61  CD1       -6.2340    0.9730   -4.2840 C.ar  280  PHE280     -0.0042
     62  CD2       -6.7970   -0.3480   -2.3870 C.ar  280  PHE280     -0.0042
     63  CE1       -4.9130    0.6790   -4.1180 C.ar  280  PHE280     -0.0003
     64  CE2       -5.4490   -0.6350   -2.2150 C.ar  280  PHE280     -0.0003
     65  CZ        -4.5240   -0.1170   -3.0910 C.ar  280  PHE280     -0.0000
     66  N        -11.1210   -0.8030   -6.0360 N.am  281  GLY281     -0.1943
     67  CA       -12.3960   -1.4610   -6.1230 C.3   281  GLY281      0.1998
     68  C        -13.5610   -0.5970   -5.6770 C.2   281  GLY281      0.2481
     69  O        -13.4230    0.5840   -5.3230 O.2   281  GLY281     -0.2729
     70  N        -14.7570   -1.1790   -5.7190 N.am  282  PRO282     -0.2715
     71  CA       -15.9750   -0.4150   -5.4150 C.3   282  PRO282      0.1536
     72  C        -15.9320    0.2550   -4.0510 C.2   282  PRO282      0.2598
     73  O        -15.4770   -0.3170   -3.0580 O.2   282  PRO282     -0.2715
     74  CB       -17.0780   -1.4780   -5.4960 C.3   282  PRO282      0.0310
     75  CG       -16.5250   -2.4340   -6.5510 C.3   282  PRO282      0.0237
     76  CD       -15.0670   -2.5160   -6.2530 C.3   282  PRO282      0.0939
     77  N        -16.5010    1.4640   -4.0000 N.am  283  ILE283     -0.1978
     78  CA       -16.5290    2.2310   -2.7600 C.3   283  ILE283      0.1596
     79  C        -17.4350    1.5790   -1.7340 C.2   283  ILE283      0.2287
     80  O        -17.2680    1.7900   -0.5290 O.2   283  ILE283     -0.2864
     81  CB       -16.9250    3.6940   -3.0300 C.3   283  ILE283      0.0276
     82  CG1      -18.3350    3.8120   -3.6400 C.3   283  ILE283      0.0022
     83  CG2      -15.8660    4.3610   -3.9240 C.3   283  ILE283      0.0022
     84  CD1      -18.8470    5.2210   -3.7180 C.3   283  ILE283      0.0001
     85  N        -12.5980    3.2690   -5.7960 N.3   291  PHE291     -0.1241
     86  CA       -11.7530    4.1700   -5.0210 C.3   291  PHE291      0.1605
     87  C        -10.3290    4.1850   -5.5800 C.2   291  PHE291      0.2264
     88  O         -9.7310    3.1350   -5.8270 O.2   291  PHE291     -0.2867
     89  CB       -11.7300    3.7740   -3.5430 C.3   291  PHE291      0.0534
     90  CG       -11.2520    4.8840   -2.6340 C.ar  291  PHE291     -0.0203
     91  CD1      -12.0920    5.9490   -2.3330 C.ar  291  PHE291     -0.0042
     92  CD2       -9.9760    4.8930   -2.1040 C.ar  291  PHE291     -0.0042
     93  CE1      -11.6680    6.9710   -1.5060 C.ar  291  PHE291     -0.0003
     94  CE2       -9.5570    5.9270   -1.2830 C.ar  291  PHE291     -0.0003
     95  CZ       -10.3980    6.9550   -0.9930 C.ar  291  PHE291     -0.0000
@<TRIPOS>BOND
     1    75    76    1
     2    75    74    1
     3    76    70    1
     4    55    56    1
     5    67    66    1
     6    67    68    1
     7    66    57   am
     8    88    87    2
     9    85    86    1
    10    70    68   am
    11    70    71    1
    12    68    69    2
    13    87    86    1
    14    74    71    1
    15    71    72    1
    16    86    89    1
    17    56    57    1
    18    56    59    1
    19    57    58    2
    20    61    63   ar
    21    61    60   ar
    22    63    65   ar
    23    72    77   am
    24    72    73    2
    25    77    78    1
    26    83    81    1
    27    59    60    1
    28    84    82    1
    29    82    81    1
    30    89    90    1
    31    60    62   ar
    32     8     6    1
    33    65    64   ar
    34    81    78    1
    35    78    79    1
    36    90    91   ar
    37    90    92   ar
    38    62    64   ar
    39    91    93   ar
    40    50    48    1
    41     2     3    1
    42     2     1    1
    43     2     5    1
    44    92    94   ar
    45     4     3    2
    46     6     5    1
    47     6     7    1
    48    79    80    2
    49    48    49    1
    50    48    45    1
    51    93    95   ar
    52    34    33    1
    53    34    35    2
    54    31    29    1
    55    32    33    1
    56    94    95   ar
    57    33    36    1
    58    26    25    1
    59    26    27    2
    60    30    29    1
    61    28    25    1
    62    28    29    1
    63    25    24    1
    64    44    45    1
    65    20    19    2
    66    45    46    1
    67    53    54    2
    68    53    52    1
    69    51    46   am
    70    51    52    1
    71    46    47    2
    72    36    37    1
    73    24    19   am
    74    19    18    1
    75    23    21    1
    76    38    37   ar
    77    38    40   ar
    78    37    39   ar
    79     9    10    1
    80    40    42   ar
    81    39    41   ar
    82    15    14   ar
    83    41    42   ar
    84    42    43    1
    85    18    21    1
    86    18    17    1
    87    21    22    1
    88    16    14   ar
    89    14    13    1
    90    10    13    1
    91    10    11    1
    92    11    12    2
