@<TRIPOS>MOLECULE
tmp/5lwuA01.pdb
 95 93 0 0 0
SMALL
GASTEIGER

@<TRIPOS>ATOM
      1  N          8.8450   -0.2220   12.2970 N.3   128  LEU128     -0.1231
      2  CA        10.1510   -0.2470   11.6610 C.3   128  LEU128      0.1693
      3  C         10.6310    1.1490   11.2710 C.2   128  LEU128      0.2592
      4  O         11.6040    1.2620   10.5170 O.2   128  LEU128     -0.2718
      5  CB        10.1580   -1.1790   10.4460 C.3   128  LEU128      0.0284
      6  CG         9.9710   -2.6570   10.7970 C.3   128  LEU128      0.0019
      7  CD1        9.6700   -3.4440    9.5500 C.3   128  LEU128      0.0001
      8  CD2       11.1950   -3.2360   11.5120 C.3   128  LEU128      0.0001
      9  N          9.9950    2.2080   11.7790 N.am  129  ALA129     -0.1966
     10  CA        10.5520    3.5590   11.7100 C.3   129  ALA129      0.1728
     11  C         11.6280    3.6960   12.7860 C.2   129  ALA129      0.2616
     12  O         12.0380    2.7080   13.4060 O.2   129  ALA129     -0.2715
     13  CB         9.4520    4.6000   11.8400 C.3   129  ALA129      0.0334
     14  N         12.1240    4.9150   13.0170 N.am  130  PHE130     -0.1960
     15  CA        13.2300    5.0890   13.9420 C.3   130  PHE130      0.1771
     16  C         12.7230    5.0650   15.3780 C.2   130  PHE130      0.2620
     17  O         11.6140    5.5130   15.6920 O.2   130  PHE130     -0.2715
     18  CB        14.0120    6.3580   13.5690 C.3   130  PHE130      0.0574
     19  CG        14.7220    6.2030   12.2590 C.ar  130  PHE130     -0.0200
     20  CD1       14.1000    6.5370   11.0810 C.ar  130  PHE130     -0.0042
     21  CD2       15.9600    5.6120   12.1890 C.ar  130  PHE130     -0.0042
     22  CE1       14.7210    6.3200    9.8630 C.ar  130  PHE130     -0.0003
     23  CE2       16.5780    5.3920   10.9730 C.ar  130  PHE130     -0.0003
     24  CZ        15.9420    5.7350    9.8040 C.ar  130  PHE130     -0.0000
     25  N         13.5640    4.5290   16.2730 N.am  131  SER131     -0.1950
     26  CA        13.1290    4.3200   17.6520 C.3   131  SER131      0.1924
     27  C         12.8010    5.6160   18.3890 C.2   131  SER131      0.2314
     28  O         12.0920    5.5630   19.4010 O.2   131  SER131     -0.2863
     29  CB        14.1710    3.5430   18.4540 C.3   131  SER131      0.2116
     30  OG        14.3410    2.2330   17.9210 O.3   131  SER131     -0.2180
     31  N         12.9730   -0.4040   18.5440 N.3   143  THR143     -0.1218
     32  CA        12.3110   -1.3030   17.6030 C.3   143  THR143      0.1862
     33  C         13.0500   -2.6330   17.4810 C.2   143  THR143      0.2287
     34  O         14.2270   -2.7750   17.8290 O.2   143  THR143     -0.2866
     35  CB        12.2050   -0.6970   16.2050 C.3   143  THR143      0.1770
     36  OG1       13.5070   -0.7000   15.6090 O.3   143  THR143     -0.2211
     37  CG2       11.6040    0.7020   16.2380 C.3   143  THR143      0.0375
     38  N         14.0970   -3.9020   14.7020 N.3   145  PHE145     -0.1227
     39  CA        15.2530   -3.7110   13.8310 C.3   145  PHE145      0.1736
     40  C         16.4130   -3.0640   14.5770 C.2   145  PHE145      0.2595
     41  O         17.5590   -3.4940   14.4440 O.2   145  PHE145     -0.2718
     42  CB        14.8330   -2.8640   12.6200 C.3   145  PHE145      0.0547
     43  CG        15.9610   -2.5380   11.6630 C.ar  145  PHE145     -0.0202
     44  CD1       16.2190   -1.2100   11.3310 C.ar  145  PHE145     -0.0042
     45  CD2       16.7500   -3.5290   11.0900 C.ar  145  PHE145     -0.0042
     46  CE1       17.2380   -0.8780   10.4570 C.ar  145  PHE145     -0.0003
     47  CE2       17.7900   -3.1990   10.2210 C.ar  145  PHE145     -0.0003
     48  CZ        18.0220   -1.8610    9.9090 C.ar  145  PHE145     -0.0000
     49  N         16.1360   -2.0350   15.3740 N.am  146  ASP146     -0.1974
     50  CA        17.1940   -1.3870   16.1350 C.3   146  ASP146      0.1709
     51  C         17.8780   -2.3940   17.0570 C.2   146  ASP146      0.2293
     52  O         19.1100   -2.4320   17.1420 O.2   146  ASP146     -0.2864
     53  CB        16.5560   -0.2280   16.9200 C.3   146  ASP146      0.1436
     54  CG        17.5360    0.8040   17.4030 C.2   146  ASP146      0.3671
     55  OD1       18.7530    0.6250   17.2360 O.co2 146  ASP146     -0.2456
     56  OD2       17.0560    1.8100   17.9750 O.co2 146  ASP146     -0.2456
     57  N         20.0190   -4.9090   14.8660 N.3   149  LYS149     -0.1245
     58  CA        20.8900   -4.3730   13.8220 C.3   149  LYS149      0.1561
     59  C         22.3260   -4.8470   13.9730 C.2   149  LYS149      0.2260
     60  O         22.9400   -5.3260   13.0130 O.2   149  LYS149     -0.2867
     61  CB        20.8380   -2.8450   13.8600 C.3   149  LYS149      0.0271
     62  CG        21.3920   -2.1330   12.6560 C.3   149  LYS149      0.0035
     63  CD        21.0770   -0.6390   12.7620 C.3   149  LYS149      0.0206
     64  CE        19.5880   -0.4180   13.0600 C.3   149  LYS149      0.1093
     65  NZ        19.1770    1.0120   13.1440 N.3   149  LYS149     -0.1314
     66  N         11.4110    7.2420    7.6060 N.3   195  TRP195     -0.1241
     67  CA        12.2610    7.0170    6.4370 C.3   195  TRP195      0.1605
     68  C         11.8510    8.0450    5.3770 C.2   195  TRP195      0.2264
     69  O         11.1000    7.7720    4.4330 O.2   195  TRP195     -0.2867
     70  CB        12.1380    5.5860    5.9320 C.3   195  TRP195      0.0550
     71  CG        12.6600    4.5540    6.8940 C.ar  195  TRP195      0.0003
     72  CD1       11.9670    3.9160    7.8760 C.ar  195  TRP195      0.0946
     73  CD2       14.0030    4.0670    6.9690 C.ar  195  TRP195      0.0152
     74  NE1       12.7890    3.0560    8.5560 N.ar  195  TRP195     -0.2442
     75  CE2       14.0480    3.1350    8.0210 C.ar  195  TRP195      0.0810
     76  CE3       15.1680    4.3080    6.2340 C.ar  195  TRP195      0.0012
     77  CZ2       15.2090    2.4350    8.3480 C.ar  195  TRP195      0.0191
     78  CZ3       16.3200    3.6180    6.5700 C.ar  195  TRP195      0.0001
     79  CH2       16.3280    2.6940    7.6100 C.ar  195  TRP195      0.0015
     80  N         19.9620    0.9220    7.4380 N.3   319  GLY319     -0.1210
     81  CA        20.1550    1.4870    8.7620 C.3   319  GLY319      0.1956
     82  C         21.6030    1.6260    9.1870 C.2   319  GLY319      0.2611
     83  O         21.9220    1.5480   10.3780 O.2   319  GLY319     -0.2717
     84  N         22.4890    1.8520    8.2260 N.am  320  ALA320     -0.1979
     85  CA        23.8550    2.2580    8.5190 C.3   320  ALA320      0.1597
     86  C         23.8680    3.5620    9.3280 C.2   320  ALA320      0.2287
     87  O         22.8430    4.2250    9.5340 O.2   320  ALA320     -0.2864
     88  CB        24.5990    2.4520    7.2030 C.3   320  ALA320      0.0319
     89  N         21.5820    6.6250    7.6050 N.3   323  PRO323     -0.2116
     90  CA        20.6240    5.7930    6.8700 C.3   323  PRO323      0.1372
     91  C         20.3870    6.3000    5.4550 C.2   323  PRO323      0.2244
     92  O         20.4440    7.5020    5.1800 O.2   323  PRO323     -0.2868
     93  CB        19.3600    5.8760    7.7350 C.3   323  PRO323      0.0268
     94  CG        19.9050    6.0710    9.1400 C.3   323  PRO323      0.0207
     95  CD        21.0610    7.0090    8.9350 C.3   323  PRO323      0.0892
@<TRIPOS>BOND
     1    69    68    2
     2    92    91    2
     3    68    67    1
     4    91    90    1
     5    70    67    1
     6    70    71    1
     7    76    78   ar
     8    76    73   ar
     9    67    66    1
    10    78    79   ar
    11    90    89    1
    12    90    93    1
    13    71    73   ar
    14    71    72   ar
    15    73    75   ar
    16    88    85    1
    17    80    81    1
    18    89    95    1
    19    79    77   ar
    20    93    94    1
    21    72    74   ar
    22    75    77   ar
    23    75    74   ar
    24    84    85    1
    25    84    82   am
    26    85    86    1
    27    81    82    1
    28    95    94    1
    29    82    83    2
    30    86    87    2
    31     7     6    1
    32    24    22   ar
    33    24    23   ar
    34    22    20   ar
    35    48    47   ar
    36    48    46   ar
    37    47    45   ar
    38     5     6    1
    39     5     2    1
    40    46    44   ar
    41     4     3    2
    42     6     8    1
    43    23    21   ar
    44    20    19   ar
    45    45    43   ar
    46     3     2    1
    47     3     9   am
    48    44    43   ar
    49     2     1    1
    50    43    42    1
    51    10     9    1
    52    10    13    1
    53    10    11    1
    54    21    19   ar
    55    19    18    1
    56    42    39    1
    57    62    63    1
    58    62    61    1
    59    63    64    1
    60    11    14   am
    61    11    12    2
    62    60    59    2
    63    14    15    1
    64    64    65    1
    65    18    15    1
    66    58    61    1
    67    58    59    1
    68    58    57    1
    69    39    40    1
    70    39    38    1
    71    15    16    1
    72    41    40    2
    73    40    49   am
    74    49    50    1
    75    16    17    2
    76    16    25   am
    77    36    35    1
    78    50    53    1
    79    50    51    1
    80    35    37    1
    81    35    32    1
    82    25    26    1
    83    53    54    1
    84    51    52    2
    85    55    54   ar
    86    54    56   ar
    87    33    32    1
    88    33    34    2
    89    32    31    1
    90    26    27    1
    91    26    29    1
    92    30    29    1
    93    27    28    2
