@<TRIPOS>MOLECULE
tmp/5lwxA05.pdb
 72 68 0 0 0
SMALL
GASTEIGER

@<TRIPOS>ATOM
      1  N        -39.9860    9.6620  -25.1110 N.3    55  GLN55      -0.1245
      2  CA       -40.2190    8.2400  -24.8620 C.3    55  GLN55       0.1566
      3  C        -39.0420    7.6050  -24.1440 C.2    55  GLN55       0.2260
      4  O        -37.9080    7.9290  -24.4350 O.2    55  GLN55      -0.2867
      5  CB       -40.4390    7.5110  -26.1920 C.3    55  GLN55       0.0367
      6  CG       -41.7880    7.8370  -26.8210 C.3    55  GLN55       0.0905
      7  CD       -41.7560    7.5290  -28.2980 C.2    55  GLN55       0.2608
      8  OE1      -41.9150    6.3750  -28.6860 O.2    55  GLN55      -0.2717
      9  NE2      -41.4790    8.5400  -29.1190 N.am   55  GLN55      -0.0878
     10  N        -36.3090    5.2430  -25.9280 N.3    58  GLY58      -0.1210
     11  CA       -36.5870    5.9640  -27.1910 C.3    58  GLY58       0.1940
     12  C        -37.1560    5.0340  -28.2380 C.2    58  GLY58       0.2454
     13  O        -37.0970    3.8180  -28.1120 O.2    58  GLY58      -0.2732
     14  N        -37.7370    5.6110  -29.2970 N.am   59  PRO59      -0.2717
     15  CA       -38.3290    4.8100  -30.3610 C.3    59  PRO59       0.1535
     16  C        -37.2880    3.8990  -31.0140 C.2    59  PRO59       0.2599
     17  O        -36.1410    4.2850  -31.1660 O.2    59  PRO59      -0.2715
     18  CB       -38.8120    5.8600  -31.3740 C.3    59  PRO59       0.0310
     19  CG       -38.0900    7.1160  -31.0370 C.3    59  PRO59       0.0237
     20  CD       -37.7810    7.0590  -29.5660 C.3    59  PRO59       0.0939
     21  N        -37.7090    2.6980  -31.3960 N.am   60  THR60      -0.1951
     22  CA       -36.8220    1.7400  -32.0670 C.3    60  THR60       0.1897
     23  C        -36.5580    2.1450  -33.5130 C.2    60  THR60       0.2313
     24  O        -37.4850    2.4520  -34.2540 O.2    60  THR60      -0.2863
     25  CB       -37.4400    0.3280  -32.0380 C.3    60  THR60       0.1794
     26  OG1      -37.8050    0.0140  -30.6800 O.3    60  THR60      -0.2208
     27  CG2      -36.4520   -0.7340  -32.5740 C.3    60  THR60       0.0378
     28  N        -35.9870    0.6560  -36.7880 N.3    62  GLU62      -0.1245
     29  CA       -36.2500   -0.6610  -37.3530 C.3    62  GLU62       0.1567
     30  C        -35.9670   -0.6250  -38.8450 C.2    62  GLU62       0.2260
     31  O        -36.3800    0.3080  -39.5380 O.2    62  GLU62      -0.2867
     32  CB       -37.7090   -1.0950  -37.0990 C.3    62  GLU62       0.0388
     33  CG       -37.9460   -2.5890  -37.3740 C.3    62  GLU62       0.1160
     34  CD       -39.1600   -3.1510  -36.6380 C.2    62  GLU62       0.3649
     35  OE1      -39.6350   -4.2480  -37.0050 O.co2  62  GLU62      -0.2457
     36  OE2      -39.6440   -2.5070  -35.6830 O.co2  62  GLU62      -0.2457
     37  N        -33.1360   -2.3770  -34.4310 N.3   145  LEU145     -0.1245
     38  CA       -33.6000   -3.7250  -34.7360 C.3   145  LEU145      0.1561
     39  C        -33.5080   -3.8490  -36.2520 C.2   145  LEU145      0.2260
     40  O        -34.2910   -3.2220  -36.9590 O.2   145  LEU145     -0.2867
     41  CB       -35.0370   -3.9100  -34.2360 C.3   145  LEU145      0.0270
     42  CG       -35.5780   -5.3620  -34.1910 C.3   145  LEU145      0.0019
     43  CD1      -36.9590   -5.3890  -33.5210 C.3   145  LEU145      0.0001
     44  CD2      -35.6930   -6.0170  -35.5720 C.3   145  LEU145      0.0001
     45  N        -41.7020  -11.8950  -32.5860 N.3   157  ASP157     -0.1225
     46  CA       -40.5580  -11.0440  -32.2410 C.3   157  ASP157      0.1805
     47  C        -41.0780   -9.9840  -31.2780 C.2   157  ASP157      0.2598
     48  O        -41.8470   -9.1080  -31.6670 O.2   157  ASP157     -0.2718
     49  CB       -40.0050  -10.4070  -33.5310 C.3   157  ASP157      0.1424
     50  CG       -38.7220   -9.6070  -33.3170 C.2   157  ASP157      0.3668
     51  OD1      -38.2790   -9.4290  -32.1750 O.co2 157  ASP157     -0.2456
     52  OD2      -38.1590   -9.1620  -34.3340 O.co2 157  ASP157     -0.2456
     53  N        -40.6690  -10.0630  -30.0150 N.am  158  LEU158     -0.1966
     54  CA       -41.1200   -9.0830  -29.0260 C.3   158  LEU158      0.1728
     55  C        -40.3130   -7.7840  -29.0560 C.2   158  LEU158      0.2617
     56  O        -40.6560   -6.7980  -28.4080 O.2   158  LEU158     -0.2715
     57  CB       -41.1390   -9.7170  -27.6230 C.3   158  LEU158      0.0311
     58  CG       -42.1570  -10.8670  -27.4680 C.3   158  LEU158      0.0022
     59  CD1      -42.1820  -11.3560  -26.0290 C.3   158  LEU158      0.0001
     60  CD2      -43.5620  -10.4680  -27.9240 C.3   158  LEU158      0.0001
     61  N        -39.2440   -7.7520  -29.8430 N.am  159  GLY159     -0.1940
     62  CA       -38.4900   -6.5180  -29.9610 C.3   159  GLY159      0.2014
     63  C        -37.5260   -6.3970  -28.7900 C.2   159  GLY159      0.2638
     64  O        -37.1840   -7.3940  -28.1330 O.2   159  GLY159     -0.2714
     65  N        -37.1410   -5.1560  -28.5310 N.am  160  MET160     -0.1976
     66  CA       -36.1260   -4.8000  -27.5230 C.3   160  MET160      0.1605
     67  C        -36.6200   -5.0990  -26.1250 C.2   160  MET160      0.2287
     68  O        -37.7870   -4.8670  -25.8200 O.2   160  MET160     -0.2864
     69  CB       -35.8520   -3.2910  -27.6010 C.3   160  MET160      0.0413
     70  CG       -35.6110   -2.7230  -28.9970 C.3   160  MET160      0.0598
     71  SD       -34.4630   -3.6530  -30.0400 S.3   160  MET160     -0.1393
     72  CE       -33.0620   -3.6970  -28.9050 C.3   160  MET160      0.0692
@<TRIPOS>BOND
     1    31    30    2
     2    30    29    1
     3    33    32    1
     4    33    34    1
     5    29    32    1
     6    29    28    1
     7    35    34   ar
     8    40    39    2
     9    34    36   ar
    10    39    38    1
    11    44    42    1
    12    38    37    1
    13    38    41    1
    14    52    50   ar
    15    24    23    2
    16    41    42    1
    17    42    43    1
    18    49    50    1
    19    49    46    1
    20    23    22    1
    21    50    51   ar
    22    45    46    1
    23    27    25    1
    24    46    47    1
    25    22    25    1
    26    22    21    1
    27    25    26    1
    28    48    47    2
    29    21    16   am
    30    18    19    1
    31    18    15    1
    32    47    53   am
    33    17    16    2
    34    19    20    1
    35    16    15    1
    36    15    14    1
    37    71    70    1
    38    71    72    1
    39    53    54    1
    40    62    61    1
    41    62    63    1
    42    61    55   am
    43    20    14    1
    44    14    12   am
    45     9     7   am
    46    55    54    1
    47    55    56    2
    48    54    57    1
    49    70    69    1
    50    63    65   am
    51    63    64    2
    52     8     7    2
    53    65    66    1
    54     7     6    1
    55    12    13    2
    56    12    11    1
    57    60    58    1
    58    57    58    1
    59    69    66    1
    60    66    67    1
    61    58    59    1
    62    11    10    1
    63     6     5    1
    64     5     2    1
    65    67    68    2
    66     1     2    1
    67     2     3    1
    68     4     3    2
