@<TRIPOS>MOLECULE
tmp/5lwxA02.pdb
 124 119 0 0 0
SMALL
GASTEIGER

@<TRIPOS>ATOM
      1  N        -35.9230   17.8580  -23.0880 N.3    37  ASN37      -0.1240
      2  CA       -35.7210   17.9310  -21.6720 C.3    37  ASN37       0.1653
      3  C        -37.0930   17.9020  -20.9970 C.2    37  ASN37       0.2266
      4  O        -37.9350   18.7750  -21.2370 O.2    37  ASN37      -0.2867
      5  CB       -34.9590   19.2070  -21.3930 C.3    37  ASN37       0.1155
      6  CG       -34.6790   19.4160  -19.9410 C.2    37  ASN37       0.2627
      7  OD1      -34.8070   18.5180  -19.0980 O.2    37  ASN37      -0.2716
      8  ND2      -34.2750   20.6340  -19.6320 N.am   37  ASN37      -0.0877
      9  N        -36.4290   14.4320  -13.4380 N.3    48  PRO48      -0.2116
     10  CA       -35.9740   14.8970  -14.7460 C.3    48  PRO48       0.1372
     11  C        -35.3570   13.7830  -15.5750 C.2    48  PRO48       0.2244
     12  O        -34.6260   12.9310  -15.0520 O.2    48  PRO48      -0.2868
     13  CB       -34.8890   15.9350  -14.4150 C.3    48  PRO48       0.0268
     14  CG       -35.1110   16.3010  -12.9830 C.3    48  PRO48       0.0207
     15  CD       -35.7200   15.1020  -12.3260 C.3    48  PRO48       0.0892
     16  N        -33.8230   13.1990  -19.9430 N.3    50  LEU50      -0.1245
     17  CA       -33.6010   13.7130  -21.2960 C.3    50  LEU50       0.1561
     18  C        -33.9630   12.5630  -22.2280 C.2    50  LEU50       0.2260
     19  O        -33.4690   11.4500  -22.0330 O.2    50  LEU50      -0.2867
     20  CB       -32.1360   14.1240  -21.4740 C.3    50  LEU50       0.0270
     21  CG       -31.6050   15.1380  -20.4450 C.3    50  LEU50       0.0019
     22  CD1      -30.1120   15.4080  -20.6450 C.3    50  LEU50       0.0001
     23  CD2      -32.4190   16.4210  -20.5460 C.3    50  LEU50       0.0001
     24  N        -29.4890   23.1980  -22.1100 N.3    79  ASN79      -0.1225
     25  CA       -28.2290   23.1980  -21.3770 C.3    79  ASN79       0.1785
     26  C        -27.3160   21.9880  -21.6020 C.2    79  ASN79       0.2597
     27  O        -26.4100   21.7260  -20.8060 O.2    79  ASN79      -0.2718
     28  CB       -28.5180   23.3800  -19.8830 C.3    79  ASN79       0.1169
     29  CG       -29.1030   24.7520  -19.5820 C.2    79  ASN79       0.2627
     30  OD1      -28.7780   25.7240  -20.2650 O.2    79  ASN79      -0.2716
     31  ND2      -29.9810   24.8310  -18.5940 N.am   79  ASN79      -0.0877
     32  N        -27.5630   21.2690  -22.6970 N.am   80  ASN80      -0.1974
     33  CA       -26.6420   20.2270  -23.1640 C.3    80  ASN80       0.1688
     34  C        -26.4920   20.2980  -24.6610 C.2    80  ASN80       0.2292
     35  O        -27.4700   20.5470  -25.3610 O.2    80  ASN80      -0.2864
     36  CB       -27.2010   18.8180  -22.9130 C.3    80  ASN80       0.1181
     37  CG       -26.9390   18.2940  -21.5300 C.2    80  ASN80       0.2629
     38  OD1      -26.4860   19.0210  -20.6240 O.2    80  ASN80      -0.2716
     39  ND2      -27.2500   17.0220  -21.3340 N.am   80  ASN80      -0.0877
     40  N        -22.5340   11.9400  -25.6140 N.3   132  PHE132     -0.1227
     41  CA       -22.1710   13.2570  -25.1120 C.3   132  PHE132      0.1736
     42  C        -22.2460   13.1840  -23.6010 C.2   132  PHE132      0.2596
     43  O        -23.3360   13.1180  -23.0350 O.2   132  PHE132     -0.2718
     44  CB       -23.1200   14.3430  -25.6420 C.3   132  PHE132      0.0547
     45  CG       -22.7960   15.7240  -25.1390 C.ar  132  PHE132     -0.0202
     46  CD1      -21.7060   16.4260  -25.6510 C.ar  132  PHE132     -0.0042
     47  CD2      -23.5590   16.3130  -24.1450 C.ar  132  PHE132     -0.0042
     48  CE1      -21.3940   17.7110  -25.1840 C.ar  132  PHE132     -0.0003
     49  CE2      -23.2540   17.5940  -23.6770 C.ar  132  PHE132     -0.0003
     50  CZ       -22.1620   18.2870  -24.2010 C.ar  132  PHE132     -0.0000
     51  N        -21.0860   13.1800  -22.9540 N.am  133  SER133     -0.1952
     52  CA       -21.0280   13.1340  -21.4900 C.3   133  SER133      0.1924
     53  C        -21.9480   12.0370  -20.9080 C.2   133  SER133      0.2314
     54  O        -21.9050   10.9020  -21.3840 O.2   133  SER133     -0.2863
     55  CB       -21.2860   14.5380  -20.9070 C.3   133  SER133      0.2116
     56  OG       -21.2120   14.5310  -19.4880 O.3   133  SER133     -0.2180
     57  N        -29.2720    9.6700  -18.9050 N.3   138  GLU138     -0.1245
     58  CA       -30.4280   10.4910  -18.5460 C.3   138  GLU138      0.1567
     59  C        -31.6750   10.0450  -19.3190 C.2   138  GLU138      0.2260
     60  O        -32.7780   10.5150  -19.0380 O.2   138  GLU138     -0.2867
     61  CB       -30.1300   11.9750  -18.8050 C.3   138  GLU138      0.0388
     62  CG       -28.9940   12.5630  -17.9490 C.3   138  GLU138      0.1160
     63  CD       -29.3170   12.6360  -16.4650 C.2   138  GLU138      0.3649
     64  OE1      -28.6200   13.3880  -15.7390 O.co2 138  GLU138     -0.2457
     65  OE2      -30.2440   11.9380  -16.0000 O.co2 138  GLU138     -0.2457
     66  N        -26.3280   12.9800  -13.5860 N.3   172  ASP172     -0.1225
     67  CA       -25.6070   14.2570  -13.5730 C.3   172  ASP172      0.1805
     68  C        -25.5580   14.8500  -12.1760 C.2   172  ASP172      0.2597
     69  O        -24.5620   15.4520  -11.8050 O.2   172  ASP172     -0.2718
     70  CB       -26.2100   15.2520  -14.5720 C.3   172  ASP172      0.1424
     71  CG       -25.8490   14.9140  -16.0120 C.2   172  ASP172      0.3668
     72  OD1      -24.6450   14.9110  -16.3440 O.co2 172  ASP172     -0.2456
     73  OD2      -26.7670   14.6380  -16.8030 O.co2 172  ASP172     -0.2456
     74  N        -26.6220   14.6620  -11.4070 N.am  173  GLU173     -0.1979
     75  CA       -26.6260   15.0880   -9.9940 C.3   173  GLU173      0.1602
     76  C        -25.6170   14.2890   -9.1560 C.2   173  GLU173      0.2287
     77  O        -24.9890   14.8300   -8.2350 O.2   173  GLU173     -0.2864
     78  CB       -28.0300   14.9590   -9.3960 C.3   173  GLU173      0.0415
     79  CG       -28.9680   16.0570   -9.8720 C.3   173  GLU173      0.1163
     80  CD       -30.4250   15.8510   -9.4640 C.2   173  GLU173      0.3649
     81  OE1      -31.1120   16.8710   -9.2860 O.co2 173  GLU173     -0.2457
     82  OE2      -30.9000   14.6980   -9.3310 O.co2 173  GLU173     -0.2457
     83  N        -14.2810   18.7880  -27.0680 N.3   380  TRP380     -0.1241
     84  CA       -15.5180   18.8790  -27.8240 C.3   380  TRP380      0.1605
     85  C        -15.3910   19.8100  -29.0220 C.2   380  TRP380      0.2264
     86  O        -15.9220   19.5170  -30.0780 O.2   380  TRP380     -0.2867
     87  CB       -16.6500   19.4400  -26.9690 C.3   380  TRP380      0.0550
     88  CG       -17.1310   18.6030  -25.8470 C.ar  380  TRP380      0.0003
     89  CD1      -17.0090   17.2490  -25.6930 C.ar  380  TRP380      0.0946
     90  CD2      -17.8600   19.0730  -24.7180 C.ar  380  TRP380      0.0152
     91  NE1      -17.6080   16.8550  -24.5140 N.ar  380  TRP380     -0.2442
     92  CE2      -18.1430   17.9560  -23.9030 C.ar  380  TRP380      0.0810
     93  CE3      -18.3040   20.3350  -24.3140 C.ar  380  TRP380      0.0012
     94  CZ2      -18.8450   18.0660  -22.7040 C.ar  380  TRP380      0.0191
     95  CZ3      -19.0070   20.4420  -23.1190 C.ar  380  TRP380      0.0001
     96  CH2      -19.2580   19.3120  -22.3290 C.ar  380  TRP380      0.0015
     97  N        -22.8240   26.0150  -20.2950 N.3   539  TYR539     -0.1241
     98  CA       -22.8110   24.5620  -20.5350 C.3   539  TYR539      0.1605
     99  C        -22.1260   24.2170  -21.8540 C.2   539  TYR539      0.2264
    100  O        -21.7850   23.0640  -22.0940 O.2   539  TYR539     -0.2867
    101  CB       -24.2300   23.9820  -20.5030 C.3   539  TYR539      0.0534
    102  CG       -24.8350   23.9670  -19.1250 C.ar  539  TYR539     -0.0201
    103  CD1      -24.5710   22.9260  -18.2360 C.ar  539  TYR539     -0.0009
    104  CD2      -25.6730   25.0000  -18.7050 C.ar  539  TYR539     -0.0009
    105  CE1      -25.1340   22.9100  -16.9660 C.ar  539  TYR539      0.0417
    106  CE2      -26.2460   24.9920  -17.4420 C.ar  539  TYR539      0.0417
    107  CZ       -25.9770   23.9470  -16.5800 C.ar  539  TYR539      0.1957
    108  OH       -26.5260   23.9380  -15.3210 O.3   539  TYR539     -0.2866
    109  N        -16.9360   19.0550  -12.3640 N.3   549  PRO549     -0.2116
    110  CA       -17.3780   17.8400  -13.0470 C.3   549  PRO549      0.1372
    111  C        -16.5510   17.5650  -14.2950 C.2   549  PRO549      0.2244
    112  O        -16.9870   17.8530  -15.4020 O.2   549  PRO549     -0.2868
    113  CB       -18.8410   18.1460  -13.3760 C.3   549  PRO549      0.0268
    114  CG       -18.8840   19.6430  -13.5410 C.3   549  PRO549      0.0207
    115  CD       -17.8400   20.1980  -12.6040 C.3   549  PRO549      0.0892
    116  N        -14.8010   16.4560  -17.5440 N.3   551  GLU551     -0.1245
    117  CA       -15.3230   15.8410  -18.7540 C.3   551  GLU551      0.1567
    118  C        -14.1720   15.4520  -19.6900 C.2   551  GLU551      0.2260
    119  O        -13.4430   16.3220  -20.1890 O.2   551  GLU551     -0.2867
    120  CB       -16.3090   16.7970  -19.4370 C.3   551  GLU551      0.0388
    121  CG       -16.6740   16.4140  -20.8550 C.3   551  GLU551      0.1160
    122  CD       -17.3380   15.0560  -20.9360 C.2   551  GLU551      0.3649
    123  OE1      -18.0770   14.6890  -20.0000 O.co2 551  GLU551     -0.2457
    124  OE2      -17.1280   14.3640  -21.9420 O.co2 551  GLU551     -0.2457
@<TRIPOS>BOND
     1    86    85    2
     2    85    84    1
     3    84    83    1
     4    84    87    1
     5    87    88    1
     6    88    89   ar
     7    88    90   ar
     8    89    91   ar
     9    46    48   ar
    10    46    45   ar
    11    44    45    1
    12    44    41    1
    13    40    41    1
    14    35    34    2
    15    48    50   ar
    16    45    47   ar
    17    41    42    1
    18    90    93   ar
    19    90    92   ar
    20    34    33    1
    21    91    92   ar
    22    93    95   ar
    23    50    49   ar
    24    47    49   ar
    25    92    94   ar
    26    42    43    2
    27    42    51   am
    28    33    36    1
    29    33    32    1
    30    95    96   ar
    31     1     2    1
    32    51    52    1
    33    36    37    1
    34    94    96   ar
    35    32    26   am
    36    18    19    2
    37    18    17    1
    38    24    25    1
    39   100    99    2
    40   124   122   ar
    41    99    98    1
    42     2     5    1
    43     2     3    1
    44    26    25    1
    45    26    27    2
    46    37    39   am
    47    37    38    2
    48    52    53    1
    49    52    55    1
    50    20    17    1
    51    20    21    1
    52     5     6    1
    53    54    53    2
    54    25    28    1
    55    17    16    1
    56     4     3    2
    57   122   121    1
    58   122   123   ar
    59    55    56    1
    60   121   120    1
    61    22    21    1
    62    23    21    1
    63    98   101    1
    64    98    97    1
    65   101   102    1
    66    30    29    2
    67   119   118    2
    68     6     8   am
    69     6     7    2
    70    28    29    1
    71   118   117    1
    72    29    31   am
    73   120   117    1
    74    59    60    2
    75    59    58    1
    76   102   104   ar
    77   102   103   ar
    78    57    58    1
    79    61    58    1
    80    61    62    1
    81   117   116    1
    82   104   106   ar
    83   103   105   ar
    84    62    63    1
    85   106   107   ar
    86   105   107   ar
    87    73    71   ar
    88   107   108    1
    89    63    65   ar
    90    63    64   ar
    91    72    71   ar
    92    71    70    1
    93    11    12    2
    94    11    10    1
    95   112   111    2
    96    10    13    1
    97    10     9    1
    98    70    67    1
    99    13    14    1
   100   111   110    1
   101    66    67    1
   102    67    68    1
   103   114   113    1
   104   114   115    1
   105     9    15    1
   106   113   110    1
   107   110   109    1
   108    14    15    1
   109   115   109    1
   110    68    69    2
   111    68    74   am
   112    74    75    1
   113    75    78    1
   114    75    76    1
   115    79    80    1
   116    79    78    1
   117    80    82   ar
   118    80    81   ar
   119    76    77    2
