@<TRIPOS>MOLECULE
tmp/5lwxA04.pdb
 115 113 0 0 0
SMALL
GASTEIGER

@<TRIPOS>ATOM
      1  N        -39.9860    9.6620  -25.1110 N.3    55  GLN55      -0.1245
      2  CA       -40.2190    8.2400  -24.8620 C.3    55  GLN55       0.1566
      3  C        -39.0420    7.6050  -24.1440 C.2    55  GLN55       0.2260
      4  O        -37.9080    7.9290  -24.4350 O.2    55  GLN55      -0.2867
      5  CB       -40.4390    7.5110  -26.1920 C.3    55  GLN55       0.0367
      6  CG       -41.7880    7.8370  -26.8210 C.3    55  GLN55       0.0905
      7  CD       -41.7560    7.5290  -28.2980 C.2    55  GLN55       0.2608
      8  OE1      -41.9150    6.3750  -28.6860 O.2    55  GLN55      -0.2717
      9  NE2      -41.4790    8.5400  -29.1190 N.am   55  GLN55      -0.0878
     10  N        -37.9730    3.4870  -23.1790 N.3    57  PRO57      -0.2102
     11  CA       -36.8460    3.7630  -24.0820 C.3    57  PRO57       0.1504
     12  C        -37.2800    4.6460  -25.2690 C.2    57  PRO57       0.2576
     13  O        -38.4890    4.7710  -25.5800 O.2    57  PRO57      -0.2718
     14  CB       -36.4660    2.3500  -24.6020 C.3    57  PRO57       0.0282
     15  CG       -37.0100    1.3990  -23.5430 C.3    57  PRO57       0.0208
     16  CD       -38.2980    2.0490  -23.1070 C.3    57  PRO57       0.0893
     17  N        -36.3090    5.2430  -25.9280 N.am   58  GLY58      -0.1943
     18  CA       -36.5870    5.9640  -27.1910 C.3    58  GLY58       0.1998
     19  C        -37.1560    5.0340  -28.2380 C.2    58  GLY58       0.2481
     20  O        -37.0970    3.8180  -28.1120 O.2    58  GLY58      -0.2729
     21  N        -37.7370    5.6110  -29.2970 N.am   59  PRO59      -0.2715
     22  CA       -38.3290    4.8100  -30.3610 C.3    59  PRO59       0.1536
     23  C        -37.2880    3.8990  -31.0140 C.2    59  PRO59       0.2599
     24  O        -36.1410    4.2850  -31.1660 O.2    59  PRO59      -0.2715
     25  CB       -38.8120    5.8600  -31.3740 C.3    59  PRO59       0.0310
     26  CG       -38.0900    7.1160  -31.0370 C.3    59  PRO59       0.0237
     27  CD       -37.7810    7.0590  -29.5660 C.3    59  PRO59       0.0939
     28  N        -37.7090    2.6980  -31.3960 N.am   60  THR60      -0.1951
     29  CA       -36.8220    1.7400  -32.0670 C.3    60  THR60       0.1897
     30  C        -36.5580    2.1450  -33.5130 C.2    60  THR60       0.2313
     31  O        -37.4850    2.4520  -34.2540 O.2    60  THR60      -0.2863
     32  CB       -37.4400    0.3280  -32.0380 C.3    60  THR60       0.1794
     33  OG1      -37.8050    0.0140  -30.6800 O.3    60  THR60      -0.2208
     34  CG2      -36.4520   -0.7340  -32.5740 C.3    60  THR60       0.0378
     35  N        -40.6690  -10.0630  -30.0150 N.3   158  LEU158     -0.1231
     36  CA       -41.1200   -9.0830  -29.0260 C.3   158  LEU158      0.1693
     37  C        -40.3130   -7.7840  -29.0560 C.2   158  LEU158      0.2593
     38  O        -40.6560   -6.7980  -28.4080 O.2   158  LEU158     -0.2718
     39  CB       -41.1390   -9.7170  -27.6230 C.3   158  LEU158      0.0284
     40  CG       -42.1570  -10.8670  -27.4680 C.3   158  LEU158      0.0019
     41  CD1      -42.1820  -11.3560  -26.0290 C.3   158  LEU158      0.0001
     42  CD2      -43.5620  -10.4680  -27.9240 C.3   158  LEU158      0.0001
     43  N        -39.2440   -7.7520  -29.8430 N.am  159  GLY159     -0.1942
     44  CA       -38.4900   -6.5180  -29.9610 C.3   159  GLY159      0.2014
     45  C        -37.5260   -6.3970  -28.7900 C.2   159  GLY159      0.2639
     46  O        -37.1840   -7.3940  -28.1330 O.2   159  GLY159     -0.2714
     47  N        -37.1410   -5.1560  -28.5310 N.am  160  MET160     -0.1963
     48  CA       -36.1260   -4.8000  -27.5230 C.3   160  MET160      0.1736
     49  C        -36.6200   -5.0990  -26.1250 C.2   160  MET160      0.2616
     50  O        -37.7870   -4.8670  -25.8200 O.2   160  MET160     -0.2715
     51  CB       -35.8520   -3.2910  -27.6010 C.3   160  MET160      0.0427
     52  CG       -35.6110   -2.7230  -28.9970 C.3   160  MET160      0.0599
     53  SD       -34.4630   -3.6530  -30.0400 S.3   160  MET160     -0.1393
     54  CE       -33.0620   -3.6970  -28.9050 C.3   160  MET160      0.0692
     55  N        -35.7220   -5.5770  -25.2670 N.am  161  VAL161     -0.1963
     56  CA       -35.9650   -5.6040  -23.8090 C.3   161  VAL161      0.1727
     57  C        -34.7660   -4.9310  -23.1520 C.2   161  VAL161      0.2616
     58  O        -33.6940   -5.5250  -23.0320 O.2   161  VAL161     -0.2715
     59  CB       -36.1460   -7.0350  -23.2570 C.3   161  VAL161      0.0290
     60  CG1      -36.3300   -6.9880  -21.7440 C.3   161  VAL161      0.0023
     61  CG2      -37.3710   -7.6860  -23.8850 C.3   161  VAL161      0.0023
     62  N        -34.9320   -3.6720  -22.7800 N.am  162  PHE162     -0.1974
     63  CA       -33.8440   -2.9290  -22.1440 C.3   162  PHE162      0.1639
     64  C        -33.7470   -3.2450  -20.6650 C.2   162  PHE162      0.2290
     65  O        -34.7610   -3.3730  -19.9750 O.2   162  PHE162     -0.2864
     66  CB       -34.0160   -1.4170  -22.3410 C.3   162  PHE162      0.0560
     67  CG       -33.5920   -0.9580  -23.6980 C.ar  162  PHE162     -0.0200
     68  CD1      -32.2420   -0.6970  -23.9420 C.ar  162  PHE162     -0.0042
     69  CD2      -34.5080   -0.8290  -24.7410 C.ar  162  PHE162     -0.0042
     70  CE1      -31.8060   -0.2790  -25.1870 C.ar  162  PHE162     -0.0003
     71  CE2      -34.0780   -0.3980  -25.9910 C.ar  162  PHE162     -0.0003
     72  CZ       -32.7230   -0.1340  -26.2200 C.ar  162  PHE162     -0.0000
     73  N        -37.3120   -2.4880  -19.5810 N.3   193  ASN193     -0.1240
     74  CA       -37.9050   -1.7680  -20.6930 C.3   193  ASN193      0.1653
     75  C        -38.6320   -0.5000  -20.2280 C.2   193  ASN193      0.2266
     76  O        -39.7610   -0.2050  -20.6390 O.2   193  ASN193     -0.2867
     77  CB       -38.7960   -2.7020  -21.5300 C.3   193  ASN193      0.1155
     78  CG       -38.5920   -2.4880  -22.9910 C.2   193  ASN193      0.2627
     79  OD1      -37.4600   -2.3380  -23.4760 O.2   193  ASN193     -0.2716
     80  ND2      -39.6940   -2.4410  -23.7080 N.am  193  ASN193     -0.0877
     81  N        -42.9390   -4.0530  -15.7200 N.3   210  PHE210     -0.1227
     82  CA       -42.9160   -4.5690  -17.0910 C.3   210  PHE210      0.1736
     83  C        -43.7070   -5.8810  -17.1550 C.2   210  PHE210      0.2595
     84  O        -43.6190   -6.7190  -16.2500 O.2   210  PHE210     -0.2718
     85  CB       -41.4670   -4.8440  -17.5210 C.3   210  PHE210      0.0547
     86  CG       -41.3590   -5.5970  -18.8360 C.ar  210  PHE210     -0.0202
     87  CD1      -41.3810   -4.9080  -20.0490 C.ar  210  PHE210     -0.0042
     88  CD2      -41.2840   -6.9930  -18.8530 C.ar  210  PHE210     -0.0042
     89  CE1      -41.3240   -5.6010  -21.2630 C.ar  210  PHE210     -0.0003
     90  CE2      -41.2110   -7.6880  -20.0560 C.ar  210  PHE210     -0.0003
     91  CZ       -41.2370   -6.9890  -21.2590 C.ar  210  PHE210     -0.0000
     92  N        -44.4940   -6.0570  -18.2210 N.am  211  GLN211     -0.1965
     93  CA       -45.2470   -7.2890  -18.3780 C.3   211  GLN211      0.1733
     94  C        -45.2620   -7.6680  -19.8400 C.2   211  GLN211      0.2617
     95  O        -45.3190   -6.8000  -20.7080 O.2   211  GLN211     -0.2715
     96  CB       -46.7080   -7.1480  -17.8860 C.3   211  GLN211      0.0408
     97  CG       -47.4430   -8.4850  -17.8800 C.3   211  GLN211      0.0908
     98  CD       -48.8130   -8.4250  -17.2420 C.2   211  GLN211      0.2608
     99  OE1      -48.9550   -8.0630  -16.0830 O.2   211  GLN211     -0.2717
    100  NE2      -49.8280   -8.8060  -18.0010 N.am  211  GLN211     -0.0878
    101  N        -45.1560   -8.9620  -20.1030 N.am  212  THR212     -0.1951
    102  CA       -45.3420   -9.4530  -21.4750 C.3   212  THR212      0.1897
    103  C        -46.2450  -10.6850  -21.4140 C.2   212  THR212      0.2313
    104  O        -46.3610  -11.3180  -20.3680 O.2   212  THR212     -0.2863
    105  CB       -44.0120   -9.7390  -22.2070 C.3   212  THR212      0.1794
    106  OG1      -44.2670   -9.8450  -23.6200 O.3   212  THR212     -0.2208
    107  CG2      -43.3580  -11.0120  -21.7080 C.3   212  THR212      0.0378
    108  N        -36.7050  -12.3050  -27.7730 N.3   222  LEU222     -0.1245
    109  CA       -36.4890  -11.1070  -26.9560 C.3   222  LEU222      0.1561
    110  C        -35.0840  -10.6310  -27.2370 C.2   222  LEU222      0.2260
    111  O        -34.1480  -11.4480  -27.2670 O.2   222  LEU222     -0.2867
    112  CB       -36.5800  -11.4490  -25.4620 C.3   222  LEU222      0.0270
    113  CG       -37.9420  -11.7620  -24.8430 C.3   222  LEU222      0.0019
    114  CD1      -38.5750  -13.0280  -25.4150 C.3   222  LEU222      0.0001
    115  CD2      -37.7360  -11.9050  -23.3430 C.3   222  LEU222      0.0001
@<TRIPOS>BOND
     1    31    30    2
     2    30    29    1
     3    34    32    1
     4    29    32    1
     5    29    28    1
     6    32    33    1
     7    28    23   am
     8    25    26    1
     9    25    22    1
    10    24    23    2
    11    26    27    1
    12    23    22    1
    13    22    21    1
    14    53    52    1
    15    53    54    1
    16    35    36    1
    17    44    43    1
    18    44    45    1
    19    43    37   am
    20    27    21    1
    21    21    19   am
    22     9     7   am
    23    37    36    1
    24    37    38    2
    25    36    39    1
    26    52    51    1
    27    45    47   am
    28    45    46    2
    29     8     7    2
    30    47    48    1
    31     7     6    1
    32    19    20    2
    33    19    18    1
    34    42    40    1
    35   108   109    1
    36    39    40    1
    37    51    48    1
    38    48    49    1
    39    40    41    1
    40   111   110    2
    41   110   109    1
    42    18    17    1
    43   109   112    1
    44     6     5    1
    45    72    71   ar
    46    72    70   ar
    47     5     2    1
    48    49    50    2
    49    49    55   am
    50    71    69   ar
    51    17    12   am
    52    13    12    2
    53   112   113    1
    54   114   113    1
    55    12    11    1
    56    55    56    1
    57    70    68   ar
    58     1     2    1
    59     2     3    1
    60   113   115    1
    61    69    67   ar
    62    14    11    1
    63    14    15    1
    64     4     3    2
    65    11    10    1
    66    68    67   ar
    67    61    59    1
    68    56    59    1
    69    56    57    1
    70    80    78   am
    71    67    66    1
    72   106   105    1
    73    15    16    1
    74    79    78    2
    75    59    60    1
    76    10    16    1
    77    57    58    2
    78    57    62   am
    79    78    77    1
    80    62    63    1
    81    66    63    1
    82   105   107    1
    83   105   102    1
    84    63    64    1
    85    77    74    1
    86   102   103    1
    87   102   101    1
    88   103   104    2
    89    89    91   ar
    90    89    87   ar
    91    91    90   ar
    92    95    94    2
    93    74    75    1
    94    74    73    1
    95    64    65    2
    96    76    75    2
    97   101    94   am
    98    90    88   ar
    99    87    86   ar
   100    94    93    1
   101    88    86   ar
   102    86    85    1
   103    93    92    1
   104    93    96    1
   105    92    83   am
   106   100    98   am
   107    96    97    1
   108    97    98    1
   109    85    82    1
   110    98    99    2
   111    83    82    1
   112    83    84    2
   113    82    81    1
