@<TRIPOS>MOLECULE
tmp/5lwyA04.pdb
 72 64 0 0 0
SMALL
GASTEIGER

@<TRIPOS>ATOM
      1  N          3.9450  -19.2150  -16.3460 N.3   176  GLN176     -0.1245
      2  CA         2.7090  -18.7280  -15.7330 C.3   176  GLN176      0.1566
      3  C          2.7230  -17.1910  -15.7540 C.2   176  GLN176      0.2260
      4  O          1.6660  -16.5640  -15.7970 O.2   176  GLN176     -0.2867
      5  CB         2.6040  -19.1950  -14.2650 C.3   176  GLN176      0.0367
      6  CG         2.5820  -20.7050  -14.0410 C.3   176  GLN176      0.0905
      7  CD         3.9570  -21.2630  -13.7320 C.2   176  GLN176      0.2608
      8  OE1        4.6080  -21.8810  -14.5830 O.2   176  GLN176     -0.2717
      9  NE2        4.4320  -21.0660  -12.5050 N.am  176  GLN176     -0.0878
     10  N          2.5190  -13.4530  -19.3630 N.3   179  GLY179     -0.1210
     11  CA         1.6800  -12.2710  -19.5040 C.3   179  GLY179      0.1956
     12  C          2.0530  -11.1470  -18.5610 C.2   179  GLY179      0.2611
     13  O          1.8550   -9.9790  -18.9030 O.2   179  GLY179     -0.2717
     14  N          2.5720  -11.4930  -17.3580 N.am  180  VAL180     -0.1979
     15  CA         3.0450  -10.5370  -16.3460 C.3   180  VAL180      0.1595
     16  C          4.2880   -9.8400  -16.9200 C.2   180  VAL180      0.2287
     17  O          4.3680   -8.6170  -16.8910 O.2   180  VAL180     -0.2864
     18  CB         3.3290  -11.2000  -14.9690 C.3   180  VAL180      0.0276
     19  CG1        3.9520  -10.2020  -13.9870 C.3   180  VAL180      0.0022
     20  CG2        2.0580  -11.7990  -14.3790 C.3   180  VAL180      0.0022
     21  N          5.0960   -9.6070  -20.1490 N.3   182  ALA182     -0.1231
     22  CA         4.6420   -8.8360  -21.3060 C.3   182  ALA182      0.1694
     23  C          4.1170   -7.4640  -20.8650 C.2   182  ALA182      0.2592
     24  O          4.5300   -6.4520  -21.4200 O.2   182  ALA182     -0.2718
     25  CB         3.5580   -9.6020  -22.0580 C.3   182  ALA182      0.0304
     26  N          3.2650   -7.4540  -19.8400 N.am  183  GLY183     -0.1957
     27  CA         2.6780   -6.2440  -19.2770 C.3   183  GLY183      0.1869
     28  C          3.6540   -5.2880  -18.6170 C.2   183  GLY183      0.2309
     29  O          3.4990   -4.0720  -18.7660 O.2   183  GLY183     -0.2863
     30  N          5.8010   -3.8230  -21.4230 N.3   186  LEU186     -0.1231
     31  CA         4.8820   -3.0470  -22.2580 C.3   186  LEU186      0.1693
     32  C          4.5470   -1.7230  -21.5610 C.2   186  LEU186      0.2592
     33  O          4.5720   -0.6800  -22.2020 O.2   186  LEU186     -0.2718
     34  CB         3.6150   -3.8480  -22.5290 C.3   186  LEU186      0.0284
     35  CG         2.6530   -3.3520  -23.6020 C.3   186  LEU186      0.0019
     36  CD1        3.3640   -3.1130  -24.9330 C.3   186  LEU186      0.0001
     37  CD2        1.5340   -4.3630  -23.7810 C.3   186  LEU186      0.0001
     38  N          4.3080   -1.7930  -20.2480 N.am  187  GLY187     -0.1957
     39  CA         4.0280   -0.6530  -19.3860 C.3   187  GLY187      0.1869
     40  C          5.1940    0.3100  -19.2980 C.2   187  GLY187      0.2309
     41  O          4.9860    1.5160  -19.1510 O.2   187  GLY187     -0.2863
     42  N          5.0870    1.9970  -22.8450 N.3   190  LEU190     -0.1245
     43  CA         3.8360    2.7620  -22.8900 C.3   190  LEU190      0.1561
     44  C          3.7600    3.8840  -21.8560 C.2   190  LEU190      0.2260
     45  O          2.8510    4.7070  -21.9490 O.2   190  LEU190     -0.2867
     46  CB         2.5840    1.8660  -22.8040 C.3   190  LEU190      0.0270
     47  CG         2.2160    0.9910  -24.0220 C.3   190  LEU190      0.0019
     48  CD1        0.7280    0.7420  -24.0610 C.3   190  LEU190      0.0001
     49  CD2        2.6080    1.6370  -25.3450 C.3   190  LEU190      0.0001
     50  N          3.0430   -2.9600  -29.1400 N.3   225  ILE225     -0.1245
     51  CA         1.8050   -3.6760  -28.8590 C.3   225  ILE225      0.1561
     52  C          1.7430   -5.0290  -29.5810 C.2   225  ILE225      0.2260
     53  O          1.5180   -6.0370  -28.9140 O.2   225  ILE225     -0.2867
     54  CB         0.5770   -2.7580  -29.1320 C.3   225  ILE225      0.0252
     55  CG1        0.3050   -1.8070  -27.9410 C.3   225  ILE225      0.0019
     56  CG2       -0.6940   -3.5070  -29.5650 C.3   225  ILE225      0.0019
     57  CD1        0.1760   -2.4850  -26.5650 C.3   225  ILE225      0.0001
     58  N          4.4490   -7.4850  -28.2600 N.3   228  ALA228     -0.1231
     59  CA         4.0530   -7.9520  -26.9300 C.3   228  ALA228      0.1694
     60  C          2.9020   -8.9580  -27.0270 C.2   228  ALA228      0.2591
     61  O          2.8950   -9.9450  -26.2990 O.2   228  ALA228     -0.2718
     62  CB         3.6220   -6.7740  -26.0760 C.3   228  ALA228      0.0304
     63  N          1.9180   -8.6770  -27.9100 N.am  229  ALA229     -0.1980
     64  CA         0.7300   -9.4930  -28.1470 C.3   229  ALA229      0.1597
     65  C          1.0840  -10.8490  -28.7010 C.2   229  ALA229      0.2287
     66  O          0.5540  -11.8390  -28.2070 O.2   229  ALA229     -0.2864
     67  CB        -0.2430   -8.7740  -29.0720 C.3   229  ALA229      0.0319
     68  N          3.0380  -12.7860  -25.8280 N.3   232  ALA232     -0.1245
     69  CA         2.1610  -13.2040  -24.7470 C.3   232  ALA232      0.1562
     70  C          1.1940  -14.3220  -25.1400 C.2   232  ALA232      0.2260
     71  O          0.9710  -15.2350  -24.3500 O.2   232  ALA232     -0.2867
     72  CB         1.4020  -12.0080  -24.2020 C.3   232  ALA232      0.0290
@<TRIPOS>BOND
     1    52    53    2
     2    52    51    1
     3    56    54    1
     4    50    51    1
     5    54    51    1
     6    54    55    1
     7    67    64    1
     8    65    66    2
     9    65    64    1
    10    58    59    1
    11    64    63    1
    12    55    57    1
    13    63    60   am
    14    60    59    1
    15    60    61    2
    16    59    62    1
    17    68    69    1
    18    49    47    1
    19    70    69    1
    20    70    71    2
    21    36    35    1
    22    69    72    1
    23    48    47    1
    24    47    46    1
    25    37    35    1
    26    35    34    1
    27    43    42    1
    28    43    46    1
    29    43    44    1
    30    34    31    1
    31    31    32    1
    32    31    30    1
    33    33    32    2
    34    25    22    1
    35    45    44    2
    36    32    38   am
    37    24    23    2
    38    22    23    1
    39    22    21    1
    40    23    26   am
    41    38    39    1
    42    26    27    1
    43    11    10    1
    44    11    12    1
    45    39    40    1
    46    40    41    2
    47    27    28    1
    48    13    12    2
    49    29    28    2
    50    12    14   am
    51    14    15    1
    52    16    17    2
    53    16    15    1
    54     1     2    1
    55    15    18    1
    56     4     3    2
    57     3     2    1
    58     2     5    1
    59    18    20    1
    60    18    19    1
    61     8     7    2
    62     5     6    1
    63     6     7    1
    64     7     9   am
