@<TRIPOS>MOLECULE
tmp/5lwyA03.pdb
 79 71 0 0 0
SMALL
GASTEIGER

@<TRIPOS>ATOM
      1  N         18.0670  -13.5220  -16.5000 N.3   120  LYS120     -0.1245
      2  CA        18.0300  -12.2830  -15.7310 C.3   120  LYS120      0.1561
      3  C         18.7260  -11.1580  -16.5050 C.2   120  LYS120      0.2260
      4  O         18.2660  -10.0230  -16.4640 O.2   120  LYS120     -0.2867
      5  CB        18.6810  -12.4910  -14.3600 C.3   120  LYS120      0.0271
      6  CG        17.8560  -13.3460  -13.4170 C.3   120  LYS120      0.0035
      7  CD        18.6390  -13.7190  -12.1750 C.3   120  LYS120      0.0206
      8  CE        17.7860  -14.5280  -11.2350 C.3   120  LYS120      0.1093
      9  NZ        18.3490  -14.5410   -9.8640 N.3   120  LYS120     -0.1314
     10  N         16.9790   -1.8770  -20.3350 N.3   128  LEU128     -0.1245
     11  CA        18.0840   -0.9960  -20.7130 C.3   128  LEU128      0.1561
     12  C         17.8510   -0.3450  -22.0700 C.2   128  LEU128      0.2260
     13  O         18.2040    0.8260  -22.2510 O.2   128  LEU128     -0.2867
     14  CB        19.4250   -1.7420  -20.7200 C.3   128  LEU128      0.0270
     15  CG        19.9860   -2.2400  -19.3870 C.3   128  LEU128      0.0019
     16  CD1       21.2090   -3.0670  -19.6210 C.3   128  LEU128      0.0001
     17  CD2       20.2790   -1.0960  -18.4140 C.3   128  LEU128      0.0001
     18  N         14.9970    2.3280  -21.5450 N.3   131  MET131     -0.1245
     19  CA        15.5280    3.5140  -20.8690 C.3   131  MET131      0.1570
     20  C         16.4160    4.3160  -21.8120 C.2   131  MET131      0.2261
     21  O         16.2750    5.5290  -21.8980 O.2   131  MET131     -0.2867
     22  CB        16.3110    3.1230  -19.6160 C.3   131  MET131      0.0387
     23  CG        15.4370    2.8270  -18.4190 C.3   131  MET131      0.0595
     24  SD        16.3900    1.9970  -17.1240 S.3   131  MET131     -0.1393
     25  CE        17.6170    3.2510  -16.7540 C.3   131  MET131      0.0692
     26  N         14.2350   11.0220  -14.7800 N.3   154  ILE154     -0.1245
     27  CA        14.2130   10.4280  -13.4380 C.3   154  ILE154      0.1561
     28  C         13.0980    9.3690  -13.3410 C.2   154  ILE154      0.2260
     29  O         13.3510    8.2810  -12.8140 O.2   154  ILE154     -0.2867
     30  CB        14.1700   11.5010  -12.3000 C.3   154  ILE154      0.0252
     31  CG1       15.5280   12.2320  -12.2020 C.3   154  ILE154      0.0019
     32  CG2       13.7620   10.9010  -10.9350 C.3   154  ILE154      0.0019
     33  CD1       15.6670   13.3150  -11.0850 C.3   154  ILE154      0.0001
     34  N         13.9830    6.1660  -15.3550 N.3   157  CYS157     -0.1221
     35  CA        15.0790    5.5180  -14.6360 C.3   157  CYS157      0.1808
     36  C         14.5760    4.7760  -13.3940 C.2   157  CYS157      0.2601
     37  O         15.0090    3.6490  -13.1800 O.2   157  CYS157     -0.2717
     38  CB        16.1880    6.5090  -14.2970 C.3   157  CYS157      0.0970
     39  SG        17.2590    6.9260  -15.6970 S.3   157  CYS157     -0.0800
     40  N         13.6360    5.3710  -12.6100 N.am  158  VAL158     -0.1979
     41  CA        13.0690    4.7090  -11.4230 C.3   158  VAL158      0.1595
     42  C         12.2780    3.4550  -11.8500 C.2   158  VAL158      0.2287
     43  O         12.4860    2.3890  -11.2670 O.2   158  VAL158     -0.2864
     44  CB        12.2830    5.6440  -10.4450 C.3   158  VAL158      0.0276
     45  CG1       11.0830    6.3050  -11.1070 C.3   158  VAL158      0.0022
     46  CG2       11.8490    4.9080   -9.1780 C.3   158  VAL158      0.0022
     47  N         14.7660    0.6800  -13.4590 N.3   161  ILE161     -0.1245
     48  CA        15.5200    0.0270  -12.3830 C.3   161  ILE161      0.1561
     49  C         14.5770   -0.9280  -11.6360 C.2   161  ILE161      0.2260
     50  O         14.9500   -2.0730  -11.3800 O.2   161  ILE161     -0.2867
     51  CB        16.2570    1.0520  -11.4670 C.3   161  ILE161      0.0252
     52  CG1       17.4830    1.6390  -12.2010 C.3   161  ILE161      0.0019
     53  CG2       16.6920    0.4230  -10.1310 C.3   161  ILE161      0.0019
     54  CD1       17.9910    2.9810  -11.6720 C.3   161  ILE161      0.0001
     55  N         14.1330   -3.9190  -13.6810 N.3   164  ILE164     -0.1231
     56  CA        15.3560   -4.7150  -13.5800 C.3   164  ILE164      0.1692
     57  C         15.3330   -5.5170  -12.2660 C.2   164  ILE164      0.2591
     58  O         15.6830   -6.6930  -12.2810 O.2   164  ILE164     -0.2718
     59  CB        16.6450   -3.8570  -13.8030 C.3   164  ILE164      0.0266
     60  CG1       16.8220   -3.5550  -15.3090 C.3   164  ILE164      0.0019
     61  CG2       17.9120   -4.5320  -13.2260 C.3   164  ILE164      0.0020
     62  CD1       17.9980   -2.6210  -15.7110 C.3   164  ILE164      0.0001
     63  N         14.8690   -4.8960  -11.1570 N.am  165  ILE165     -0.1980
     64  CA        14.7400   -5.5420   -9.8460 C.3   165  ILE165      0.1595
     65  C         13.7010   -6.6690   -9.9250 C.2   165  ILE165      0.2287
     66  O         13.9530   -7.7610   -9.4090 O.2   165  ILE165     -0.2864
     67  CB        14.4720   -4.5110   -8.7090 C.3   165  ILE165      0.0276
     68  CG1       15.7440   -3.6600   -8.4490 C.3   165  ILE165      0.0022
     69  CG2       13.9620   -5.1870   -7.4180 C.3   165  ILE165      0.0022
     70  CD1       15.7160   -2.6480   -7.2430 C.3   165  ILE165      0.0001
     71  N         14.8580  -10.0230  -11.3950 N.3   168  GLN168     -0.1245
     72  CA        15.7120  -10.8410  -10.5270 C.3   168  GLN168      0.1566
     73  C         14.8720  -11.8850   -9.7760 C.2   168  GLN168      0.2260
     74  O         15.4280  -12.7910   -9.1540 O.2   168  GLN168     -0.2867
     75  CB        16.4980   -9.9670   -9.5240 C.3   168  GLN168      0.0367
     76  CG        17.2440   -8.7740  -10.1300 C.3   168  GLN168      0.0905
     77  CD        18.1820   -9.1600  -11.2460 C.2   168  GLN168      0.2608
     78  OE1       19.2000   -9.8280  -11.0330 O.2   168  GLN168     -0.2717
     79  NE2       17.8480   -8.7560  -12.4640 N.am  168  GLN168     -0.0878
@<TRIPOS>BOND
     1    13    12    2
     2    12    11    1
     3    21    20    2
     4    20    19    1
     5    18    19    1
     6    19    22    1
     7    14    11    1
     8    14    15    1
     9    11    10    1
    10    16    15    1
    11    22    23    1
    12    15    17    1
    13    23    24    1
    14    24    25    1
    15     3     4    2
    16     3     2    1
    17     1     2    1
    18     2     5    1
    19    62    60    1
    20    39    38    1
    21    34    35    1
    22    60    59    1
    23    26    27    1
    24    35    38    1
    25    35    36    1
    26     5     6    1
    27    59    56    1
    28    59    61    1
    29    55    56    1
    30    56    57    1
    31    47    48    1
    32    27    28    1
    33    27    30    1
    34     6     7    1
    35    36    37    2
    36    36    40   am
    37    28    29    2
    38    40    41    1
    39    79    77   am
    40    48    49    1
    41    48    51    1
    42    30    31    1
    43    30    32    1
    44    58    57    2
    45    57    63   am
    46    31    33    1
    47    52    54    1
    48    52    51    1
    49     7     8    1
    50    42    41    1
    51    42    43    2
    52    49    50    2
    53    51    53    1
    54    41    44    1
    55    71    72    1
    56    77    78    2
    57    77    76    1
    58     8     9    1
    59    63    64    1
    60    45    44    1
    61    72    73    1
    62    72    75    1
    63    44    46    1
    64    76    75    1
    65    65    64    1
    66    65    66    2
    67    64    67    1
    68    73    74    2
    69    67    68    1
    70    67    69    1
    71    68    70    1
