@<TRIPOS>MOLECULE
tmp/5lwyA02.pdb
 106 96 0 0 0
SMALL
GASTEIGER

@<TRIPOS>ATOM
      1  N         24.0320    6.5710  -25.4230 N.3    89  LEU89      -0.1245
      2  CA        23.2440    5.9030  -24.3820 C.3    89  LEU89       0.1561
      3  C         22.1430    5.0240  -24.9680 C.2    89  LEU89       0.2260
      4  O         21.8550    3.9600  -24.4100 O.2    89  LEU89      -0.2867
      5  CB        22.6670    6.8960  -23.3650 C.3    89  LEU89       0.0270
      6  CG        23.6310    7.3990  -22.2820 C.3    89  LEU89       0.0019
      7  CD1       22.9210    8.3440  -21.3140 C.3    89  LEU89       0.0001
      8  CD2       24.2280    6.2450  -21.4960 C.3    89  LEU89       0.0001
      9  N         24.0850    2.0530  -26.4100 N.3    92  LEU92      -0.1245
     10  CA        24.5520    1.2390  -25.2880 C.3    92  LEU92       0.1561
     11  C         23.4300    0.2780  -24.8740 C.2    92  LEU92       0.2260
     12  O         23.6760   -0.9200  -24.7610 O.2    92  LEU92      -0.2867
     13  CB        24.9650    2.1400  -24.1080 C.3    92  LEU92       0.0270
     14  CG        25.7410    1.4690  -22.9730 C.3    92  LEU92       0.0019
     15  CD1       27.2400    1.5850  -23.1990 C.3    92  LEU92       0.0001
     16  CD2       25.3790    2.0870  -21.6340 C.3    92  LEU92       0.0001
     17  N         23.6720   -3.8370  -25.5880 N.3    96  LEU96      -0.1245
     18  CA        23.5540   -4.6840  -24.3920 C.3    96  LEU96       0.1561
     19  C         22.3270   -5.6000  -24.4580 C.2    96  LEU96       0.2260
     20  O         22.4500   -6.7810  -24.1550 O.2    96  LEU96      -0.2867
     21  CB        23.5120   -3.8540  -23.0960 C.3    96  LEU96       0.0270
     22  CG        24.7990   -3.1850  -22.6220 C.3    96  LEU96       0.0019
     23  CD1       24.4790   -2.0180  -21.7100 C.3    96  LEU96       0.0001
     24  CD2       25.7210   -4.1690  -21.9090 C.3    96  LEU96       0.0001
     25  N         22.9870   -9.5490  -24.6930 N.3   100  PHE100     -0.1241
     26  CA        22.5020  -10.3890  -23.6000 C.3   100  PHE100      0.1605
     27  C         21.5160  -11.4340  -24.1020 C.2   100  PHE100      0.2264
     28  O         21.5780  -12.5740  -23.6590 O.2   100  PHE100     -0.2867
     29  CB        21.8760   -9.5480  -22.4750 C.3   100  PHE100      0.0534
     30  CG        22.8230   -8.6780  -21.6730 C.ar  100  PHE100     -0.0203
     31  CD1       24.1950   -8.9070  -21.6900 C.ar  100  PHE100     -0.0042
     32  CD2       22.3380   -7.6400  -20.8870 C.ar  100  PHE100     -0.0042
     33  CE1       25.0670   -8.0920  -20.9620 C.ar  100  PHE100     -0.0003
     34  CE2       23.2070   -6.8410  -20.1410 C.ar  100  PHE100     -0.0003
     35  CZ        24.5670   -7.0790  -20.1770 C.ar  100  PHE100     -0.0000
     36  N         21.5100  -23.3850  -13.5380 N.3   113  GLY113     -0.1225
     37  CA        22.2230  -22.2390  -12.9800 C.3   113  GLY113      0.1811
     38  C         22.6360  -21.1930  -13.9980 C.2   113  GLY113      0.2280
     39  O         22.4530  -19.9910  -13.7650 O.2   113  GLY113     -0.2866
     40  N         19.4000  -19.5650  -15.5190 N.3   116  ARG116     -0.1231
     41  CA        18.8110  -18.6270  -14.5630 C.3   116  ARG116      0.1694
     42  C         19.5240  -17.2860  -14.6640 C.2   116  ARG116      0.2591
     43  O         18.8770  -16.2470  -14.7700 O.2   116  ARG116     -0.2718
     44  CB        18.9750  -19.1780  -13.1370 C.3   116  ARG116      0.0321
     45  CG        17.7040  -19.1990  -12.3130 C.3   116  ARG116      0.0489
     46  CD        17.4980  -20.5810  -11.7070 C.3   116  ARG116      0.2205
     47  NE        17.6340  -20.5790  -10.2460 N.pl3 116  ARG116     -0.0865
     48  CZ        16.6460  -20.8440   -9.3940 C.cat 116  ARG116      0.5346
     49  NH1       16.8630  -20.8080   -8.0860 N.pl3 116  ARG116      0.1354
     50  NH2       15.4330  -21.1470   -9.8430 N.pl3 116  ARG116      0.1354
     51  N         20.8610  -17.3260  -14.6480 N.am  117  LEU117     -0.1980
     52  CA        21.7480  -16.1720  -14.7250 C.3   117  LEU117      0.1596
     53  C         21.5700  -15.4050  -16.0320 C.2   117  LEU117      0.2287
     54  O         21.3590  -14.2010  -15.9860 O.2   117  LEU117     -0.2864
     55  CB        23.2020  -16.6320  -14.5560 C.3   117  LEU117      0.0297
     56  CG        24.2660  -15.5490  -14.4910 C.3   117  LEU117      0.0022
     57  CD1       24.9140  -15.5280  -13.1210 C.3   117  LEU117      0.0001
     58  CD2       25.3070  -15.7670  -15.5750 C.3   117  LEU117      0.0001
     59  N         18.0670  -13.5220  -16.5000 N.3   120  LYS120     -0.1231
     60  CA        18.0300  -12.2830  -15.7310 C.3   120  LYS120      0.1693
     61  C         18.7260  -11.1580  -16.5050 C.2   120  LYS120      0.2591
     62  O         18.2660  -10.0230  -16.4640 O.2   120  LYS120     -0.2718
     63  CB        18.6810  -12.4910  -14.3600 C.3   120  LYS120      0.0285
     64  CG        17.8560  -13.3460  -13.4170 C.3   120  LYS120      0.0035
     65  CD        18.6390  -13.7190  -12.1750 C.3   120  LYS120      0.0206
     66  CE        17.7860  -14.5280  -11.2350 C.3   120  LYS120      0.1093
     67  NZ        18.3490  -14.5410   -9.8640 N.3   120  LYS120     -0.1314
     68  N         19.8160  -11.4880  -17.2270 N.am  121  LEU121     -0.1980
     69  CA        20.5430  -10.5560  -18.0860 C.3   121  LEU121      0.1596
     70  C         19.6800  -10.1960  -19.2920 C.2   121  LEU121      0.2287
     71  O         19.7070   -9.0510  -19.7350 O.2   121  LEU121     -0.2864
     72  CB        21.8480  -11.1840  -18.5930 C.3   121  LEU121      0.0297
     73  CG        23.0660  -11.1760  -17.6870 C.3   121  LEU121      0.0022
     74  CD1       24.2080  -11.8690  -18.3750 C.3   121  LEU121      0.0001
     75  CD2       23.4990   -9.7680  -17.3390 C.3   121  LEU121      0.0001
     76  N         16.8210   -7.8750  -18.1100 N.3   124  SER124     -0.1217
     77  CA        17.4530   -6.5970  -17.7810 C.3   124  SER124      0.1889
     78  C         17.8420   -5.8380  -19.0500 C.2   124  SER124      0.2288
     79  O         17.7210   -4.6200  -19.0960 O.2   124  SER124     -0.2866
     80  CB        18.6610   -6.8120  -16.8800 C.3   124  SER124      0.2089
     81  OG        18.2500   -7.3240  -15.6230 O.3   124  SER124     -0.2183
     82  N         16.9790   -1.8770  -20.3350 N.3   128  LEU128     -0.1245
     83  CA        18.0840   -0.9960  -20.7130 C.3   128  LEU128      0.1561
     84  C         17.8510   -0.3450  -22.0700 C.2   128  LEU128      0.2260
     85  O         18.2040    0.8260  -22.2510 O.2   128  LEU128     -0.2867
     86  CB        19.4250   -1.7420  -20.7200 C.3   128  LEU128      0.0270
     87  CG        19.9860   -2.2400  -19.3870 C.3   128  LEU128      0.0019
     88  CD1       21.2090   -3.0670  -19.6210 C.3   128  LEU128      0.0001
     89  CD2       20.2790   -1.0960  -18.4140 C.3   128  LEU128      0.0001
     90  N         14.1330   -3.9190  -13.6810 N.3   164  ILE164     -0.1245
     91  CA        15.3560   -4.7150  -13.5800 C.3   164  ILE164      0.1561
     92  C         15.3330   -5.5170  -12.2660 C.2   164  ILE164      0.2260
     93  O         15.6830   -6.6930  -12.2810 O.2   164  ILE164     -0.2867
     94  CB        16.6450   -3.8570  -13.8030 C.3   164  ILE164      0.0252
     95  CG1       16.8220   -3.5550  -15.3090 C.3   164  ILE164      0.0019
     96  CG2       17.9120   -4.5320  -13.2260 C.3   164  ILE164      0.0019
     97  CD1       17.9980   -2.6210  -15.7110 C.3   164  ILE164      0.0001
     98  N         14.8580  -10.0230  -11.3950 N.3   168  GLN168     -0.1245
     99  CA        15.7120  -10.8410  -10.5270 C.3   168  GLN168      0.1566
    100  C         14.8720  -11.8850   -9.7760 C.2   168  GLN168      0.2260
    101  O         15.4280  -12.7910   -9.1540 O.2   168  GLN168     -0.2867
    102  CB        16.4980   -9.9670   -9.5240 C.3   168  GLN168      0.0367
    103  CG        17.2440   -8.7740  -10.1300 C.3   168  GLN168      0.0905
    104  CD        18.1820   -9.1600  -11.2460 C.2   168  GLN168      0.2608
    105  OE1       19.2000   -9.8280  -11.0330 O.2   168  GLN168     -0.2717
    106  NE2       17.8480   -8.7560  -12.4640 N.am  168  GLN168     -0.0878
@<TRIPOS>BOND
     1     9    10    1
     2    17    18    1
     3     1     2    1
     4    10    11    1
     5    10    13    1
     6     3     4    2
     7     3     2    1
     8    11    12    2
     9    25    26    1
    10    19    18    1
    11    19    20    2
    12    18    21    1
    13     2     5    1
    14    13    14    1
    15    27    28    2
    16    27    26    1
    17    26    29    1
    18     5     6    1
    19    15    14    1
    20    21    22    1
    21    14    16    1
    22    22    24    1
    23    22    23    1
    24    29    30    1
    25     6     8    1
    26     6     7    1
    27    85    84    2
    28    84    83    1
    29    31    30   ar
    30    31    33   ar
    31    30    32   ar
    32    33    35   ar
    33    32    34   ar
    34    86    83    1
    35    86    87    1
    36    83    82    1
    37    35    34   ar
    38    71    70    2
    39    88    87    1
    40    87    89    1
    41    70    69    1
    42    79    78    2
    43    78    77    1
    44    72    69    1
    45    72    73    1
    46    74    73    1
    47    76    77    1
    48    69    68    1
    49    77    80    1
    50    73    75    1
    51    68    61   am
    52    80    81    1
    53    61    62    2
    54    61    60    1
    55    59    60    1
    56    53    54    2
    57    53    52    1
    58    60    63    1
    59    97    95    1
    60    58    56    1
    61    40    41    1
    62    95    94    1
    63    43    42    2
    64    52    51    1
    65    52    55    1
    66    42    51   am
    67    42    41    1
    68    41    44    1
    69    55    56    1
    70    56    57    1
    71    63    64    1
    72    38    39    2
    73    38    37    1
    74    94    91    1
    75    94    96    1
    76    90    91    1
    77    91    92    1
    78    36    37    1
    79    64    65    1
    80    44    45    1
    81   106   104   am
    82    45    46    1
    83    93    92    2
    84    65    66    1
    85    46    47    1
    86    98    99    1
    87   104   105    2
    88   104   103    1
    89    66    67    1
    90    99   100    1
    91    99   102    1
    92    47    48    2
    93   103   102    1
    94    50    48    1
    95   100   101    2
    96    48    49    1
