@<TRIPOS>MOLECULE
tmp/5lwyA05.pdb
 157 150 0 0 0
SMALL
GASTEIGER

@<TRIPOS>ATOM
      1  N         16.3810    4.3450  -25.1560 N.3   133  SER133     -0.1202
      2  CA        15.6070    4.9480  -26.2450 C.3   133  SER133      0.2020
      3  C         14.9580    6.2930  -25.8360 C.2   133  SER133      0.2618
      4  O         14.8210    7.1900  -26.6630 O.2   133  SER133     -0.2717
      5  CB        14.5520    3.9730  -26.7530 C.3   133  SER133      0.2103
      6  OG        13.8310    3.4070  -25.6760 O.3   133  SER133     -0.2182
      7  N         14.5840    6.4230  -24.5540 N.am  134  PHE134     -0.1975
      8  CA        13.9910    7.6220  -23.9830 C.3   134  PHE134      0.1639
      9  C         14.9560    8.7800  -23.9270 C.2   134  PHE134      0.2290
     10  O         14.5260    9.9060  -24.1310 O.2   134  PHE134     -0.2864
     11  CB        13.4530    7.3270  -22.5830 C.3   134  PHE134      0.0560
     12  CG        12.0010    6.9330  -22.5890 C.ar  134  PHE134     -0.0200
     13  CD1       11.5480    5.8920  -23.3980 C.ar  134  PHE134     -0.0042
     14  CD2       11.0820    7.5940  -21.7850 C.ar  134  PHE134     -0.0042
     15  CE1       10.1990    5.5310  -23.4140 C.ar  134  PHE134     -0.0003
     16  CE2        9.7340    7.2250  -21.7940 C.ar  134  PHE134     -0.0003
     17  CZ         9.3050    6.1910  -22.6040 C.ar  134  PHE134     -0.0000
     18  N         15.2970   10.8580  -27.7510 N.3   137  TRP137     -0.1241
     19  CA        13.9590   11.3670  -28.0840 C.3   137  TRP137      0.1605
     20  C         13.5100   12.5450  -27.1900 C.2   137  TRP137      0.2264
     21  O         13.0680   13.5770  -27.7290 O.2   137  TRP137     -0.2867
     22  CB        12.9940   10.1800  -28.0660 C.3   137  TRP137      0.0550
     23  CG        11.5690   10.5130  -28.2650 C.ar  137  TRP137      0.0003
     24  CD1       10.9790   11.0220  -29.3850 C.ar  137  TRP137      0.0946
     25  CD2       10.5520   10.3880  -27.2890 C.ar  137  TRP137      0.0152
     26  NE1        9.6550   11.2690  -29.1420 N.ar  137  TRP137     -0.2442
     27  CE2        9.3590   10.8730  -27.8630 C.ar  137  TRP137      0.0810
     28  CE3       10.5320    9.9170  -25.9650 C.ar  137  TRP137      0.0012
     29  CZ2        8.1500   10.8910  -27.1600 C.ar  137  TRP137      0.0191
     30  CZ3        9.3370    9.9300  -25.2710 C.ar  137  TRP137      0.0001
     31  CH2        8.1600   10.4090  -25.8670 C.ar  137  TRP137      0.0015
     32  N          7.4980    0.8900  -21.8090 N.3   189  GLY189     -0.1210
     33  CA         7.4850    1.5990  -23.0830 C.3   189  GLY189      0.1956
     34  C          6.2810    2.5110  -23.2070 C.2   189  GLY189      0.2611
     35  O          6.4220    3.6810  -23.5770 O.2   189  GLY189     -0.2717
     36  N          5.0870    1.9970  -22.8450 N.am  190  LEU190     -0.1979
     37  CA         3.8360    2.7620  -22.8900 C.3   190  LEU190      0.1596
     38  C          3.7600    3.8840  -21.8560 C.2   190  LEU190      0.2287
     39  O          2.8510    4.7070  -21.9490 O.2   190  LEU190     -0.2864
     40  CB         2.5840    1.8660  -22.8040 C.3   190  LEU190      0.0297
     41  CG         2.2160    0.9910  -24.0220 C.3   190  LEU190      0.0022
     42  CD1        0.7280    0.7420  -24.0610 C.3   190  LEU190      0.0001
     43  CD2        2.6080    1.6370  -25.3450 C.3   190  LEU190      0.0001
     44  N          5.6740    6.2160  -21.7700 N.3   192  GLY192     -0.1210
     45  CA         6.0340    7.3410  -22.6200 C.3   192  GLY192      0.1956
     46  C          4.8430    8.1860  -23.0110 C.2   192  GLY192      0.2611
     47  O          5.0290    9.3330  -23.4190 O.2   192  GLY192     -0.2717
     48  N          3.6070    7.6430  -22.8410 N.am  193  ILE193     -0.1979
     49  CA         2.3480    8.3320  -23.1320 C.3   193  ILE193      0.1595
     50  C          2.2570    9.6490  -22.3550 C.2   193  ILE193      0.2287
     51  O          1.8980   10.6580  -22.9560 O.2   193  ILE193     -0.2864
     52  CB         1.0760    7.4280  -22.9670 C.3   193  ILE193      0.0276
     53  CG1       -0.1820    8.0610  -23.6160 C.3   193  ILE193      0.0022
     54  CG2        0.7830    7.0480  -21.5040 C.3   193  ILE193      0.0022
     55  CD1       -0.1700    8.1890  -25.1490 C.3   193  ILE193      0.0001
     56  N          4.5700   12.2660  -23.8110 N.3   196  THR196     -0.1203
     57  CA         4.0260   12.5800  -25.1410 C.3   196  THR196      0.1994
     58  C          2.8110   13.5300  -25.0520 C.2   196  THR196      0.2617
     59  O          2.7360   14.4890  -25.8220 O.2   196  THR196     -0.2717
     60  CB         3.6700   11.3080  -25.9380 C.3   196  THR196      0.1784
     61  OG1        4.6670   10.3120  -25.7610 O.3   196  THR196     -0.2211
     62  CG2        3.4860   11.5880  -27.4220 C.3   196  THR196      0.0376
     63  N          1.8720   13.2610  -24.1220 N.am  197  LEU197     -0.1979
     64  CA         0.6830   14.0960  -23.9230 C.3   197  LEU197      0.1596
     65  C          1.0690   15.4950  -23.4480 C.2   197  LEU197      0.2287
     66  O          0.5240   16.4750  -23.9550 O.2   197  LEU197     -0.2864
     67  CB        -0.3180   13.4370  -22.9600 C.3   197  LEU197      0.0297
     68  CG        -1.0600   12.2060  -23.4930 C.3   197  LEU197      0.0022
     69  CD1       -1.8410   11.5210  -22.3880 C.3   197  LEU197      0.0001
     70  CD2       -2.0030   12.5600  -24.6490 C.3   197  LEU197      0.0001
     71  N          2.4300   17.3750  -26.4710 N.3   200  VAL200     -0.1245
     72  CA         1.3220   17.7810  -27.3460 C.3   200  VAL200      0.1561
     73  C          0.5820   18.9830  -26.7350 C.2   200  VAL200      0.2260
     74  O          0.2770   19.9330  -27.4530 O.2   200  VAL200     -0.2867
     75  CB         0.3850   16.5930  -27.7090 C.3   200  VAL200      0.0252
     76  CG1       -0.8930   17.0620  -28.3970 C.3   200  VAL200      0.0019
     77  CG2        1.1060   15.5660  -28.5830 C.3   200  VAL200      0.0019
     78  N         -0.9460   20.1740  -31.7650 N.3   205  PHE205     -0.1241
     79  CA        -1.1220   19.1340  -32.7790 C.3   205  PHE205      0.1605
     80  C         -0.3450   19.3830  -34.0450 C.2   205  PHE205      0.2264
     81  O          0.3180   18.4550  -34.5120 O.2   205  PHE205     -0.2867
     82  CB        -2.6020   18.9260  -33.1100 C.3   205  PHE205      0.0534
     83  CG        -3.4020   18.4200  -31.9420 C.ar  205  PHE205     -0.0203
     84  CD1       -3.2530   17.1130  -31.4890 C.ar  205  PHE205     -0.0042
     85  CD2       -4.3120   19.2450  -31.2970 C.ar  205  PHE205     -0.0042
     86  CE1       -3.9950   16.6440  -30.4060 C.ar  205  PHE205     -0.0003
     87  CE2       -5.0490   18.7780  -30.2110 C.ar  205  PHE205     -0.0003
     88  CZ        -4.8930   17.4770  -29.7770 C.ar  205  PHE205     -0.0000
     89  N          3.5260   18.8100  -33.3900 N.3   208  ALA208     -0.1231
     90  CA         3.7400   17.3750  -33.2220 C.3   208  ALA208      0.1694
     91  C          3.6240   16.5910  -34.5450 C.2   208  ALA208      0.2591
     92  O          4.4130   15.6790  -34.7880 O.2   208  ALA208     -0.2718
     93  CB         2.7580   16.8400  -32.1960 C.3   208  ALA208      0.0304
     94  N          2.6470   16.9580  -35.3950 N.am  209  ALA209     -0.1980
     95  CA         2.4390   16.3250  -36.6990 C.3   209  ALA209      0.1597
     96  C          3.4890   16.7720  -37.7420 C.2   209  ALA209      0.2287
     97  O          4.0620   15.9150  -38.4190 O.2   209  ALA209     -0.2864
     98  CB         1.0260   16.5900  -37.2000 C.3   209  ALA209      0.0319
     99  N          3.9370   12.5040  -34.2310 N.3   214  ILE214     -0.1245
    100  CA         2.6740   11.7410  -34.2000 C.3   214  ILE214      0.1561
    101  C          2.7680   10.4030  -35.0070 C.2   214  ILE214      0.2260
    102  O          2.3290    9.3550  -34.5080 O.2   214  ILE214     -0.2867
    103  CB         1.4120   12.5770  -34.5970 C.3   214  ILE214      0.0252
    104  CG1        1.3080   12.8220  -36.1180 C.3   214  ILE214      0.0019
    105  CG2        1.3000   13.8900  -33.8270 C.3   214  ILE214      0.0019
    106  CD1        0.1480   12.1350  -36.8010 C.3   214  ILE214      0.0001
    107  N          5.7120    7.7810  -33.6800 N.3   217  LEU217     -0.1231
    108  CA         5.2800    7.3350  -32.3480 C.3   217  LEU217      0.1693
    109  C          4.1880    6.3170  -32.4390 C.2   217  LEU217      0.2591
    110  O          4.1600    5.3930  -31.6330 O.2   217  LEU217     -0.2718
    111  CB         4.8120    8.5010  -31.4440 C.3   217  LEU217      0.0284
    112  CG         5.9030    9.3150  -30.7240 C.3   217  LEU217      0.0019
    113  CD1        5.4420   10.7290  -30.4690 C.3   217  LEU217      0.0001
    114  CD2        6.3910    8.6380  -29.4280 C.3   217  LEU217      0.0001
    115  N          3.2870    6.4860  -33.4170 N.am  218  MET218     -0.1979
    116  CA         2.1760    5.5780  -33.6880 C.3   218  MET218      0.1605
    117  C          2.7260    4.2390  -34.1750 C.2   218  MET218      0.2287
    118  O          2.1810    3.1950  -33.8190 O.2   218  MET218     -0.2864
    119  CB         1.2590    6.1790  -34.7530 C.3   218  MET218      0.0413
    120  CG        -0.1410    6.4140  -34.2770 C.3   218  MET218      0.0598
    121  SD        -0.6860    8.1110  -34.5840 S.3   218  MET218     -0.1393
    122  CE        -0.9270    8.0810  -36.3730 C.3   218  MET218      0.0692
    123  N          5.8130    3.1330  -33.4400 N.3   220  MET220     -0.1230
    124  CA         6.4530    2.6280  -32.2260 C.3   220  MET220      0.1702
    125  C          5.4220    1.9410  -31.3320 C.2   220  MET220      0.2592
    126  O          5.6220    0.7950  -30.9460 O.2   220  MET220     -0.2718
    127  CB         7.1680    3.7670  -31.4630 C.3   220  MET220      0.0401
    128  CG         8.4730    4.2390  -32.1090 C.3   220  MET220      0.0596
    129  SD         9.5040    2.9150  -32.7750 S.3   220  MET220     -0.1393
    130  CE        10.0100    2.1300  -31.3010 C.3   220  MET220      0.0692
    131  N          4.2950    2.6240  -31.0650 N.am  221  ALA221     -0.1980
    132  CA         3.1800    2.1080  -30.2750 C.3   221  ALA221      0.1597
    133  C          2.6640    0.7870  -30.8840 C.2   221  ALA221      0.2287
    134  O          2.4150   -0.1670  -30.1460 O.2   221  ALA221     -0.2864
    135  CB         2.0600    3.1390  -30.2210 C.3   221  ALA221      0.0319
    136  N          5.4090   -2.0920  -30.5320 N.3   224  TYR224     -0.1241
    137  CA         5.4290   -2.4270  -29.1050 C.3   224  TYR224      0.1605
    138  C          4.2640   -3.3430  -28.7330 C.2   224  TYR224      0.2264
    139  O          4.4730   -4.3600  -28.0840 O.2   224  TYR224     -0.2867
    140  CB         5.3670   -1.1550  -28.2360 C.3   224  TYR224      0.0534
    141  CG         6.7100   -0.6150  -27.7940 C.ar  224  TYR224     -0.0201
    142  CD1        7.4340   -1.2370  -26.7800 C.ar  224  TYR224     -0.0009
    143  CD2        7.2070    0.5790  -28.3100 C.ar  224  TYR224     -0.0009
    144  CE1        8.6500   -0.7200  -26.3370 C.ar  224  TYR224      0.0417
    145  CE2        8.4290    1.0990  -27.8860 C.ar  224  TYR224      0.0417
    146  CZ         9.1490    0.4440  -26.8980 C.ar  224  TYR224      0.1957
    147  OH        10.3550    0.9400  -26.4670 O.3   224  TYR224     -0.2866
    148  N         12.8990    3.5750  -34.1080 N.3   265  HIS265     -0.1241
    149  CA        13.1720    4.5440  -33.0460 C.3   265  HIS265      0.1621
    150  C         14.3630    5.4200  -33.4120 C.2   265  HIS265      0.2264
    151  O         14.2890    6.6480  -33.2810 O.2   265  HIS265     -0.2867
    152  CB        13.4010    3.8780  -31.6760 C.3   265  HIS265      0.0745
    153  CG        13.7630    4.8810  -30.6220 C.ar  265  HIS265      0.0817
    154  ND1       12.7940    5.6550  -30.0090 N.ar  265  HIS265     -0.2268
    155  CD2       14.9830    5.2940  -30.1960 C.ar  265  HIS265      0.1154
    156  CE1       13.4390    6.4750  -29.2020 C.ar  265  HIS265      0.1986
    157  NE2       14.7610    6.3020  -29.2850 N.ar  265  HIS265     -0.2212
@<TRIPOS>BOND
     1    97    96    2
     2    96    95    1
     3    98    95    1
     4   106   104    1
     5    95    94    1
     6   122   121    1
     7   104   103    1
     8    94    91   am
     9   101   102    2
    10   101   100    1
    11    92    91    2
    12   119   120    1
    13   119   116    1
    14   103   100    1
    15   103   105    1
    16   121   120    1
    17    91    90    1
    18    81    80    2
    19    99   100    1
    20   117   118    2
    21   117   116    1
    22   148   149    1
    23    80    79    1
    24   116   115    1
    25   107   108    1
    26   123   124    1
    27   115   109   am
    28   150   151    2
    29   150   149    1
    30    89    90    1
    31    90    93    1
    32    82    79    1
    33    82    83    1
    34   149   152    1
    35    79    78    1
    36   129   128    1
    37   129   130    1
    38   109   108    1
    39   109   110    2
    40   108   111    1
    41   124   127    1
    42   124   125    1
    43   128   127    1
    44    83    84   ar
    45    83    85   ar
    46   152   153    1
    47    84    86   ar
    48   111   112    1
    49   125   131   am
    50   125   126    2
    51    85    87   ar
    52   131   132    1
    53   133   132    1
    54   133   134    2
    55   112   113    1
    56   112   114    1
    57   153   155   ar
    58   153   154   ar
    59   136   137    1
    60    86    88   ar
    61   132   135    1
    62    87    88   ar
    63   155   157   ar
    64   154   156   ar
    65    24    26   ar
    66    24    23   ar
    67   157   156   ar
    68    26    27   ar
    69   137   138    1
    70   137   140    1
    71   138   139    2
    72    77    75    1
    73    76    75    1
    74   143   145   ar
    75   143   141   ar
    76    23    22    1
    77    23    25   ar
    78   140   141    1
    79    19    22    1
    80    19    18    1
    81    19    20    1
    82   145   146   ar
    83    27    25   ar
    84    27    29   ar
    85   141   142   ar
    86    21    20    2
    87    75    72    1
    88    74    73    2
    89    62    60    1
    90    72    73    1
    91    72    71    1
    92    25    28   ar
    93    29    31   ar
    94   146   147    1
    95   146   144   ar
    96   142   144   ar
    97     5     2    1
    98     5     6    1
    99     4     3    2
   100     2     3    1
   101     2     1    1
   102    28    30   ar
   103    60    61    1
   104    60    57    1
   105    31    30   ar
   106     3     7   am
   107    59    58    2
   108    43    41    1
   109    55    53    1
   110    57    58    1
   111    57    56    1
   112    58    63   am
   113    70    68    1
   114     7     8    1
   115    10     9    2
   116    63    64    1
   117    42    41    1
   118    41    40    1
   119     8     9    1
   120     8    11    1
   121    66    65    2
   122    64    65    1
   123    64    67    1
   124    53    52    1
   125    35    34    2
   126    68    67    1
   127    68    69    1
   128    47    46    2
   129    15    13   ar
   130    15    17   ar
   131    13    12   ar
   132    34    33    1
   133    34    36   am
   134    49    52    1
   135    49    48    1
   136    49    50    1
   137    33    32    1
   138    46    48   am
   139    46    45    1
   140    52    54    1
   141    51    50    2
   142    37    36    1
   143    37    40    1
   144    37    38    1
   145    45    44    1
   146    17    16   ar
   147    12    11    1
   148    12    14   ar
   149    39    38    2
   150    16    14   ar
