@<TRIPOS>MOLECULE
tmp/5lwyA01.pdb
 98 93 0 0 0
SMALL
GASTEIGER

@<TRIPOS>ATOM
      1  N         30.0650  -25.1780  -22.6720 N.3    35  PHE35      -0.1241
      2  CA        29.9480  -23.9090  -23.4000 C.3    35  PHE35       0.1605
      3  C         30.3860  -24.1010  -24.8590 C.2    35  PHE35       0.2264
      4  O         29.7510  -23.5630  -25.7590 O.2    35  PHE35      -0.2867
      5  CB        30.6950  -22.7680  -22.6900 C.3    35  PHE35       0.0534
      6  CG        30.0050  -22.2740  -21.4360 C.ar   35  PHE35      -0.0203
      7  CD1       28.7620  -21.6560  -21.5030 C.ar   35  PHE35      -0.0042
      8  CD2       30.6200  -22.3820  -20.1950 C.ar   35  PHE35      -0.0042
      9  CE1       28.1310  -21.1880  -20.3490 C.ar   35  PHE35      -0.0003
     10  CE2       29.9840  -21.9220  -19.0390 C.ar   35  PHE35      -0.0003
     11  CZ        28.7470  -21.3230  -19.1250 C.ar   35  PHE35      -0.0000
     12  N         26.1180   -2.1600  -33.6490 N.3    63  LEU63      -0.1245
     13  CA        27.5100   -1.9160  -33.3120 C.3    63  LEU63       0.1561
     14  C         28.1180   -1.1110  -34.4550 C.2    63  LEU63       0.2260
     15  O         28.6510   -0.0410  -34.1990 O.2    63  LEU63      -0.2867
     16  CB        28.2620   -3.2390  -33.1000 C.3    63  LEU63       0.0270
     17  CG        29.5720   -3.1600  -32.3180 C.3    63  LEU63       0.0019
     18  CD1       29.3120   -3.0790  -30.8180 C.3    63  LEU63       0.0001
     19  CD2       30.4310   -4.3770  -32.6110 C.3    63  LEU63       0.0001
     20  N         22.7600   -2.3210  -27.8850 N.3    95  ILE95      -0.1231
     21  CA        23.8200   -3.3300  -28.0160 C.3    95  ILE95       0.1692
     22  C         23.7540   -4.3230  -26.8470 C.2    95  ILE95       0.2591
     23  O         23.7240   -5.5180  -27.1030 O.2    95  ILE95      -0.2718
     24  CB        25.2330   -2.7030  -28.2440 C.3    95  ILE95       0.0266
     25  CG1       25.2940   -2.0280  -29.6360 C.3    95  ILE95       0.0019
     26  CG2       26.3380   -3.7660  -28.1370 C.3    95  ILE95       0.0020
     27  CD1       26.2950   -0.8950  -29.7990 C.3    95  ILE95       0.0001
     28  N         23.6720   -3.8370  -25.5880 N.am   96  LEU96      -0.1980
     29  CA        23.5540   -4.6840  -24.3920 C.3    96  LEU96       0.1596
     30  C         22.3270   -5.6000  -24.4580 C.2    96  LEU96       0.2287
     31  O         22.4500   -6.7810  -24.1550 O.2    96  LEU96      -0.2864
     32  CB        23.5120   -3.8540  -23.0960 C.3    96  LEU96       0.0297
     33  CG        24.7990   -3.1850  -22.6220 C.3    96  LEU96       0.0022
     34  CD1       24.4790   -2.0180  -21.7100 C.3    96  LEU96       0.0001
     35  CD2       25.7210   -4.1690  -21.9090 C.3    96  LEU96       0.0001
     36  N         22.9750   -8.2160  -27.2010 N.3    99  SER99      -0.1202
     37  CA        24.1200   -9.0370  -26.7930 C.3    99  SER99       0.2020
     38  C         23.6870  -10.0310  -25.7400 C.2    99  SER99       0.2618
     39  O         23.9940  -11.2150  -25.8650 O.2    99  SER99      -0.2717
     40  CB        25.2420   -8.1740  -26.2230 C.3    99  SER99       0.2103
     41  OG        25.7610   -7.2960  -27.2010 O.3    99  SER99      -0.2182
     42  N         22.9870   -9.5490  -24.6930 N.am  100  PHE100     -0.1975
     43  CA        22.5020  -10.3890  -23.6000 C.3   100  PHE100      0.1639
     44  C         21.5160  -11.4340  -24.1020 C.2   100  PHE100      0.2290
     45  O         21.5780  -12.5740  -23.6590 O.2   100  PHE100     -0.2864
     46  CB        21.8760   -9.5480  -22.4750 C.3   100  PHE100      0.0560
     47  CG        22.8230   -8.6780  -21.6730 C.ar  100  PHE100     -0.0200
     48  CD1       24.1950   -8.9070  -21.6900 C.ar  100  PHE100     -0.0042
     49  CD2       22.3380   -7.6400  -20.8870 C.ar  100  PHE100     -0.0042
     50  CE1       25.0670   -8.0920  -20.9620 C.ar  100  PHE100     -0.0003
     51  CE2       23.2070   -6.8410  -20.1410 C.ar  100  PHE100     -0.0003
     52  CZ        24.5670   -7.0790  -20.1770 C.ar  100  PHE100     -0.0000
     53  N         23.2950  -14.2870  -26.4020 N.3   103  LEU103     -0.1245
     54  CA        24.1290  -15.0540  -25.4820 C.3   103  LEU103      0.1561
     55  C         23.2670  -15.9750  -24.6230 C.2   103  LEU103      0.2260
     56  O         23.6130  -17.1450  -24.4710 O.2   103  LEU103     -0.2867
     57  CB        24.9970  -14.1510  -24.6020 C.3   103  LEU103      0.0270
     58  CG        26.3280  -13.7030  -25.1940 C.3   103  LEU103      0.0019
     59  CD1       26.8900  -12.5100  -24.4330 C.3   103  LEU103      0.0001
     60  CD2       27.3340  -14.8430  -25.2050 C.3   103  LEU103      0.0001
     61  N         21.5100  -23.3850  -13.5380 N.3   113  GLY113     -0.1210
     62  CA        22.2230  -22.2390  -12.9800 C.3   113  GLY113      0.1956
     63  C         22.6360  -21.1930  -13.9980 C.2   113  GLY113      0.2611
     64  O         22.4530  -19.9910  -13.7650 O.2   113  GLY113     -0.2717
     65  N         23.2140  -21.6500  -15.1260 N.am  114  VAL114     -0.1979
     66  CA        23.6690  -20.7940  -16.2310 C.3   114  VAL114      0.1595
     67  C         22.4560  -20.1390  -16.9050 C.2   114  VAL114      0.2287
     68  O         22.4960  -18.9510  -17.2220 O.2   114  VAL114     -0.2864
     69  CB        24.6020  -21.5760  -17.2190 C.3   114  VAL114      0.0276
     70  CG1       24.7970  -20.8390  -18.5470 C.3   114  VAL114      0.0022
     71  CG2       25.9560  -21.8780  -16.5730 C.3   114  VAL114      0.0022
     72  N         20.8610  -17.3260  -14.6480 N.3   117  LEU117     -0.1231
     73  CA        21.7480  -16.1720  -14.7250 C.3   117  LEU117      0.1693
     74  C         21.5700  -15.4050  -16.0320 C.2   117  LEU117      0.2592
     75  O         21.3590  -14.2010  -15.9860 O.2   117  LEU117     -0.2718
     76  CB        23.2020  -16.6320  -14.5560 C.3   117  LEU117      0.0284
     77  CG        24.2660  -15.5490  -14.4910 C.3   117  LEU117      0.0019
     78  CD1       24.9140  -15.5280  -13.1210 C.3   117  LEU117      0.0001
     79  CD2       25.3070  -15.7670  -15.5750 C.3   117  LEU117      0.0001
     80  N         21.6360  -16.0910  -17.1840 N.am  118  PHE118     -0.1976
     81  CA        21.4920  -15.4460  -18.4910 C.3   118  PHE118      0.1639
     82  C         20.0460  -14.9790  -18.8020 C.2   118  PHE118      0.2290
     83  O         19.8690  -14.1130  -19.6590 O.2   118  PHE118     -0.2864
     84  CB        22.0710  -16.3320  -19.6060 C.3   118  PHE118      0.0560
     85  CG        23.5560  -16.1070  -19.8210 C.ar  118  PHE118     -0.0200
     86  CD1       24.4960  -16.6970  -18.9840 C.ar  118  PHE118     -0.0042
     87  CD2       24.0100  -15.2850  -20.8430 C.ar  118  PHE118     -0.0042
     88  CE1       25.8700  -16.4820  -19.1780 C.ar  118  PHE118     -0.0003
     89  CE2       25.3790  -15.0560  -21.0300 C.ar  118  PHE118     -0.0003
     90  CZ        26.3030  -15.6650  -20.2020 C.ar  118  PHE118     -0.0000
     91  N         19.8160  -11.4880  -17.2270 N.3   121  LEU121     -0.1245
     92  CA        20.5430  -10.5560  -18.0860 C.3   121  LEU121      0.1561
     93  C         19.6800  -10.1960  -19.2920 C.2   121  LEU121      0.2260
     94  O         19.7070   -9.0510  -19.7350 O.2   121  LEU121     -0.2867
     95  CB        21.8480  -11.1840  -18.5930 C.3   121  LEU121      0.0270
     96  CG        23.0660  -11.1760  -17.6870 C.3   121  LEU121      0.0019
     97  CD1       24.2080  -11.8690  -18.3750 C.3   121  LEU121      0.0001
     98  CD2       23.4990   -9.7680  -17.3390 C.3   121  LEU121      0.0001
@<TRIPOS>BOND
     1    14    15    2
     2    14    13    1
     3    12    13    1
     4    13    16    1
     5    16    17    1
     6    19    17    1
     7    17    18    1
     8    27    25    1
     9    25    24    1
    10    24    26    1
    11    24    21    1
    12    21    20    1
    13    21    22    1
    14    36    37    1
    15    41    40    1
    16    23    22    2
    17    22    28   am
    18    37    40    1
    19    37    38    1
    20    53    54    1
    21    39    38    2
    22     4     3    2
    23    38    42   am
    24    28    29    1
    25    54    55    1
    26    54    57    1
    27    60    58    1
    28    58    57    1
    29    58    59    1
    30     3     2    1
    31    42    43    1
    32    55    56    2
    33    30    29    1
    34    30    31    2
    35    29    32    1
    36    44    45    2
    37    44    43    1
    38    43    46    1
    39     2     5    1
    40     2     1    1
    41    32    33    1
    42     5     6    1
    43    33    35    1
    44    33    34    1
    45    46    47    1
    46    48    47   ar
    47    48    50   ar
    48    47    49   ar
    49     7     6   ar
    50     7     9   ar
    51     6     8   ar
    52    89    87   ar
    53    89    90   ar
    54    50    52   ar
    55    49    51   ar
    56    87    85   ar
    57     9    11   ar
    58    90    88   ar
    59     8    10   ar
    60    52    51   ar
    61    85    84    1
    62    85    86   ar
    63    94    93    2
    64    83    82    2
    65    84    81    1
    66    93    92    1
    67    88    86   ar
    68    11    10   ar
    69    82    81    1
    70    95    92    1
    71    95    96    1
    72    70    69    1
    73    81    80    1
    74    97    96    1
    75    92    91    1
    76    96    98    1
    77    68    67    2
    78    69    71    1
    79    69    66    1
    80    80    74   am
    81    67    66    1
    82    66    65    1
    83    74    75    2
    84    74    73    1
    85    79    77    1
    86    65    63   am
    87    73    72    1
    88    73    76    1
    89    76    77    1
    90    77    78    1
    91    63    64    2
    92    63    62    1
    93    61    62    1
