@<TRIPOS>MOLECULE
tmp/5lwyA06.pdb
 203 196 0 0 0
SMALL
GASTEIGER

@<TRIPOS>ATOM
      1  N         21.5560    5.4420  -26.1110 N.3    90  PHE90      -0.1241
      2  CA        20.5570    4.6300  -26.8090 C.3    90  PHE90       0.1605
      3  C         21.2690    3.4120  -27.4010 C.2    90  PHE90       0.2264
      4  O         20.7710    2.2930  -27.2660 O.2    90  PHE90      -0.2867
      5  CB        19.8040    5.4260  -27.9050 C.3    90  PHE90       0.0534
      6  CG        19.2250    4.5680  -29.0140 C.ar   90  PHE90      -0.0203
      7  CD1       18.1570    3.7100  -28.7690 C.ar   90  PHE90      -0.0042
      8  CD2       19.7700    4.5920  -30.2900 C.ar   90  PHE90      -0.0042
      9  CE1       17.6420    2.8960  -29.7840 C.ar   90  PHE90      -0.0003
     10  CE2       19.2660    3.7670  -31.2990 C.ar   90  PHE90      -0.0003
     11  CZ        18.1970    2.9320  -31.0430 C.ar   90  PHE90      -0.0000
     12  N         18.9420  -11.1880  -19.8320 N.3   122  ASP122     -0.1225
     13  CA        18.0630  -11.0660  -20.9920 C.3   122  ASP122      0.1805
     14  C         16.9320  -10.0740  -20.7060 C.2   122  ASP122      0.2597
     15  O         16.7190   -9.1490  -21.4960 O.2   122  ASP122     -0.2718
     16  CB        17.5130  -12.4530  -21.3690 C.3   122  ASP122      0.1424
     17  CG        16.6350  -12.5350  -22.6020 C.2   122  ASP122      0.3668
     18  OD1       16.9650  -11.8730  -23.6150 O.co2 122  ASP122     -0.2456
     19  OD2       15.6550  -13.3190  -22.5810 O.co2 122  ASP122     -0.2456
     20  N         16.2490  -10.2480  -19.5500 N.am  123  TYR123     -0.1976
     21  CA        15.1630   -9.3930  -19.0850 C.3   123  TYR123      0.1639
     22  C         15.6710   -7.9900  -18.8100 C.2   123  TYR123      0.2290
     23  O         15.0400   -7.0250  -19.2330 O.2   123  TYR123     -0.2864
     24  CB        14.5270   -9.9590  -17.8090 C.3   123  TYR123      0.0560
     25  CG        13.8960  -11.3320  -17.9110 C.ar  123  TYR123     -0.0198
     26  CD1       13.3710  -11.7950  -19.1150 C.ar  123  TYR123     -0.0009
     27  CD2       13.7590  -12.1400  -16.7870 C.ar  123  TYR123     -0.0009
     28  CE1       12.7760  -13.0510  -19.2090 C.ar  123  TYR123      0.0417
     29  CE2       13.1570  -13.3950  -16.8660 C.ar  123  TYR123      0.0417
     30  CZ        12.6600  -13.8420  -18.0790 C.ar  123  TYR123      0.1957
     31  OH        12.0690  -15.0760  -18.1730 O.3   123  TYR123     -0.2866
     32  N         16.1840   -5.8210  -21.9150 N.3   126  ILE126     -0.1245
     33  CA        14.9510   -5.2180  -22.4430 C.3   126  ILE126      0.1561
     34  C         14.7410   -3.8330  -21.8090 C.2   126  ILE126      0.2260
     35  O         14.4550   -2.8700  -22.5220 O.2   126  ILE126     -0.2867
     36  CB        13.6880   -6.1270  -22.2290 C.3   126  ILE126      0.0252
     37  CG1       13.9000   -7.5510  -22.7530 C.3   126  ILE126      0.0019
     38  CG2       12.4260   -5.5170  -22.8620 C.3   126  ILE126      0.0019
     39  CD1       12.9560   -8.6130  -22.1290 C.3   126  ILE126      0.0001
     40  N         17.2600   -1.1000  -23.0190 N.3   129  LEU129     -0.1231
     41  CA        16.9250   -0.6090  -24.3580 C.3   129  LEU129      0.1693
     42  C         15.7810    0.4220  -24.2760 C.2   129  LEU129      0.2591
     43  O         15.8300    1.4340  -24.9740 O.2   129  LEU129     -0.2718
     44  CB        16.5830   -1.7840  -25.3070 C.3   129  LEU129      0.0284
     45  CG        15.9210   -1.4640  -26.6670 C.3   129  LEU129      0.0019
     46  CD1       16.8690   -0.7560  -27.6150 C.3   129  LEU129      0.0001
     47  CD2       15.3940   -2.7350  -27.3230 C.3   129  LEU129      0.0001
     48  N         14.7760    0.1780  -23.4030 N.am  130  ILE130     -0.1980
     49  CA        13.6400    1.0890  -23.2050 C.3   130  ILE130      0.1595
     50  C         14.1090    2.4000  -22.5550 C.2   130  ILE130      0.2287
     51  O         13.6990    3.4650  -23.0020 O.2   130  ILE130     -0.2864
     52  CB        12.4340    0.4210  -22.4760 C.3   130  ILE130      0.0276
     53  CG1       11.8000   -0.6650  -23.3890 C.3   130  ILE130      0.0022
     54  CG2       11.3560    1.4580  -22.0640 C.3   130  ILE130      0.0022
     55  CD1       11.0220   -1.7740  -22.6750 C.3   130  ILE130      0.0001
     56  N         16.3810    4.3450  -25.1560 N.3   133  SER133     -0.1217
     57  CA        15.6070    4.9480  -26.2450 C.3   133  SER133      0.1889
     58  C         14.9580    6.2930  -25.8360 C.2   133  SER133      0.2288
     59  O         14.8210    7.1900  -26.6630 O.2   133  SER133     -0.2866
     60  CB        14.5520    3.9730  -26.7530 C.3   133  SER133      0.2089
     61  OG        13.8310    3.4070  -25.6760 O.3   133  SER133     -0.2183
     62  N          5.2040  -10.6260  -17.5040 N.3   181  ARG181     -0.1231
     63  CA         6.4250  -10.1680  -18.1690 C.3   181  ARG181      0.1694
     64  C          6.1090   -9.2400  -19.3430 C.2   181  ARG181      0.2591
     65  O          6.7920   -8.2280  -19.5250 O.2   181  ARG181     -0.2718
     66  CB         7.2500  -11.3630  -18.6900 C.3   181  ARG181      0.0321
     67  CG         7.9320  -12.1810  -17.6130 C.3   181  ARG181      0.0489
     68  CD         9.1500  -12.9400  -18.1300 C.3   181  ARG181      0.2205
     69  NE         8.8420  -13.8320  -19.2510 N.pl3 181  ARG181     -0.0865
     70  CZ         8.2900  -15.0380  -19.1360 C.cat 181  ARG181      0.5346
     71  NH1        7.9720  -15.5230  -17.9410 N.pl3 181  ARG181      0.1354
     72  NH2        8.0350  -15.7600  -20.2160 N.pl3 181  ARG181      0.1354
     73  N          5.0960   -9.6070  -20.1490 N.am  182  ALA182     -0.1980
     74  CA         4.6420   -8.8360  -21.3060 C.3   182  ALA182      0.1597
     75  C          4.1170   -7.4640  -20.8650 C.2   182  ALA182      0.2287
     76  O          4.5300   -6.4520  -21.4200 O.2   182  ALA182     -0.2864
     77  CB         3.5580   -9.6020  -22.0580 C.3   182  ALA182      0.0319
     78  N          7.0780   -4.9380  -19.1880 N.3   185  PHE185     -0.1227
     79  CA         7.8910   -4.2930  -20.2160 C.3   185  PHE185      0.1736
     80  C          7.0570   -3.4240  -21.1640 C.2   185  PHE185      0.2595
     81  O          7.5350   -2.3770  -21.6080 O.2   185  PHE185     -0.2718
     82  CB         8.7650   -5.3090  -20.9610 C.3   185  PHE185      0.0547
     83  CG         9.8500   -5.9080  -20.0970 C.ar  185  PHE185     -0.0202
     84  CD1       10.8350   -5.1040  -19.5290 C.ar  185  PHE185     -0.0042
     85  CD2        9.8960   -7.2750  -19.8570 C.ar  185  PHE185     -0.0042
     86  CE1       11.8380   -5.6570  -18.7290 C.ar  185  PHE185     -0.0003
     87  CE2       10.8980   -7.8260  -19.0540 C.ar  185  PHE185     -0.0003
     88  CZ        11.8590   -7.0130  -18.4930 C.ar  185  PHE185     -0.0000
     89  N          5.8010   -3.8230  -21.4230 N.am  186  LEU186     -0.1980
     90  CA         4.8820   -3.0470  -22.2580 C.3   186  LEU186      0.1596
     91  C          4.5470   -1.7230  -21.5610 C.2   186  LEU186      0.2287
     92  O          4.5720   -0.6800  -22.2020 O.2   186  LEU186     -0.2864
     93  CB         3.6150   -3.8480  -22.5290 C.3   186  LEU186      0.0297
     94  CG         2.6530   -3.3520  -23.6020 C.3   186  LEU186      0.0022
     95  CD1        3.3640   -3.1130  -24.9330 C.3   186  LEU186      0.0001
     96  CD2        1.5340   -4.3630  -23.7810 C.3   186  LEU186      0.0001
     97  N          5.8130    3.1330  -33.4400 N.3   220  MET220     -0.1245
     98  CA         6.4530    2.6280  -32.2260 C.3   220  MET220      0.1570
     99  C          5.4220    1.9410  -31.3320 C.2   220  MET220      0.2261
    100  O          5.6220    0.7950  -30.9460 O.2   220  MET220     -0.2867
    101  CB         7.1680    3.7670  -31.4630 C.3   220  MET220      0.0387
    102  CG         8.4730    4.2390  -32.1090 C.3   220  MET220      0.0595
    103  SD         9.5040    2.9150  -32.7750 S.3   220  MET220     -0.1393
    104  CE        10.0100    2.1300  -31.3010 C.3   220  MET220      0.0692
    105  N          4.4210   -1.4220  -33.1100 N.3   223  LEU223     -0.1231
    106  CA         5.4570   -2.4550  -32.9670 C.3   223  LEU223      0.1693
    107  C          5.5500   -2.9890  -31.5320 C.2   223  LEU223      0.2592
    108  O          5.7030   -4.1970  -31.3450 O.2   223  LEU223     -0.2718
    109  CB         6.8310   -1.9640  -33.4540 C.3   223  LEU223      0.0284
    110  CG         6.9170   -1.4920  -34.9070 C.3   223  LEU223      0.0019
    111  CD1        8.1070   -0.5870  -35.1110 C.3   223  LEU223      0.0001
    112  CD2        6.9390   -2.6470  -35.8890 C.3   223  LEU223      0.0001
    113  N          5.4090   -2.0920  -30.5320 N.am  224  TYR224     -0.1976
    114  CA         5.4290   -2.4270  -29.1050 C.3   224  TYR224      0.1639
    115  C          4.2640   -3.3430  -28.7330 C.2   224  TYR224      0.2290
    116  O          4.4730   -4.3600  -28.0840 O.2   224  TYR224     -0.2864
    117  CB         5.3670   -1.1550  -28.2360 C.3   224  TYR224      0.0560
    118  CG         6.7100   -0.6150  -27.7940 C.ar  224  TYR224     -0.0198
    119  CD1        7.4340   -1.2370  -26.7800 C.ar  224  TYR224     -0.0009
    120  CD2        7.2070    0.5790  -28.3100 C.ar  224  TYR224     -0.0009
    121  CE1        8.6500   -0.7200  -26.3370 C.ar  224  TYR224      0.0417
    122  CE2        8.4290    1.0990  -27.8860 C.ar  224  TYR224      0.0417
    123  CZ         9.1490    0.4440  -26.8980 C.ar  224  TYR224      0.1957
    124  OH        10.3550    0.9400  -26.4670 O.3   224  TYR224     -0.2866
    125  N          4.1980   -6.8040  -31.0210 N.3   227  GLY227     -0.1210
    126  CA         5.3110   -7.6160  -30.5370 C.3   227  GLY227      0.1956
    127  C          5.0210   -8.2580  -29.1960 C.2   227  GLY227      0.2611
    128  O          5.2720   -9.4410  -29.0190 O.2   227  GLY227     -0.2717
    129  N          4.4490   -7.4850  -28.2600 N.am  228  ALA228     -0.1979
    130  CA         4.0530   -7.9520  -26.9300 C.3   228  ALA228      0.1597
    131  C          2.9020   -8.9580  -27.0270 C.2   228  ALA228      0.2287
    132  O          2.8950   -9.9450  -26.2990 O.2   228  ALA228     -0.2864
    133  CB         3.6220   -6.7740  -26.0760 C.3   228  ALA228      0.0319
    134  N          4.1080  -12.3430  -28.5130 N.3   231  TYR231     -0.1241
    135  CA         4.8680  -12.9830  -27.4470 C.3   231  TYR231      0.1605
    136  C          3.9580  -13.5920  -26.3780 C.2   231  TYR231      0.2264
    137  O          4.1320  -14.7560  -26.0230 O.2   231  TYR231     -0.2867
    138  CB         5.8470  -11.9950  -26.7940 C.3   231  TYR231      0.0534
    139  CG         6.6200  -12.6040  -25.6430 C.ar  231  TYR231     -0.0201
    140  CD1        7.8200  -13.2820  -25.8630 C.ar  231  TYR231     -0.0009
    141  CD2        6.1640  -12.4920  -24.3310 C.ar  231  TYR231     -0.0009
    142  CE1        8.5380  -13.8430  -24.8100 C.ar  231  TYR231      0.0417
    143  CE2        6.8710  -13.0580  -23.2700 C.ar  231  TYR231      0.0417
    144  CZ         8.0590  -13.7300  -23.5160 C.ar  231  TYR231      0.1957
    145  OH         8.7620  -14.2920  -22.4780 O.3   231  TYR231     -0.2866
    146  N          8.3900  -16.1860  -30.4540 N.3   251  HIS251     -0.1241
    147  CA         9.6060  -15.6300  -29.8790 C.3   251  HIS251      0.1621
    148  C         10.5310  -15.0790  -30.9590 C.2   251  HIS251      0.2264
    149  O         11.1230  -14.0060  -30.7870 O.2   251  HIS251     -0.2867
    150  CB        10.3310  -16.6890  -29.0370 C.3   251  HIS251      0.0745
    151  CG        11.1860  -16.1040  -27.9580 C.ar  251  HIS251      0.0817
    152  ND1       10.8170  -16.1840  -26.6280 N.ar  251  HIS251     -0.2268
    153  CD2       12.3590  -15.4340  -28.0460 C.ar  251  HIS251      0.1154
    154  CE1       11.7740  -15.5730  -25.9520 C.ar  251  HIS251      0.1986
    155  NE2       12.7190  -15.0940  -26.7630 N.ar  251  HIS251     -0.2212
    156  N          8.9650  -12.0040  -32.3590 N.3   254  PHE254     -0.1241
    157  CA         9.1520  -10.9670  -31.3370 C.3   254  PHE254      0.1605
    158  C         10.5690  -10.3860  -31.4170 C.2   254  PHE254      0.2264
    159  O         10.7320   -9.1700  -31.3190 O.2   254  PHE254     -0.2867
    160  CB         8.8650  -11.5040  -29.9160 C.3   254  PHE254      0.0534
    161  CG         9.2400  -10.5260  -28.8300 C.ar  254  PHE254     -0.0203
    162  CD1        8.4950   -9.3720  -28.6260 C.ar  254  PHE254     -0.0042
    163  CD2       10.3950  -10.7060  -28.0770 C.ar  254  PHE254     -0.0042
    164  CE1        8.8810   -8.4300  -27.6750 C.ar  254  PHE254     -0.0003
    165  CE2       10.7920   -9.7480  -27.1380 C.ar  254  PHE254     -0.0003
    166  CZ        10.0240   -8.6240  -26.9350 C.ar  254  PHE254     -0.0000
    167  N         10.6700   -8.0230  -34.2490 N.3   257  PHE257     -0.1227
    168  CA         9.9790   -6.7710  -33.9350 C.3   257  PHE257      0.1736
    169  C         10.8570   -5.8040  -33.1300 C.2   257  PHE257      0.2595
    170  O         10.7150   -4.5910  -33.2810 O.2   257  PHE257     -0.2718
    171  CB         8.6250   -7.0310  -33.2560 C.3   257  PHE257      0.0547
    172  CG         7.5050   -7.2060  -34.2520 C.ar  257  PHE257     -0.0202
    173  CD1        7.2330   -8.4500  -34.8060 C.ar  257  PHE257     -0.0042
    174  CD2        6.7380   -6.1240  -34.6560 C.ar  257  PHE257     -0.0042
    175  CE1        6.2070   -8.6090  -35.7400 C.ar  257  PHE257     -0.0003
    176  CE2        5.7230   -6.2800  -35.5980 C.ar  257  PHE257     -0.0003
    177  CZ         5.4600   -7.5230  -36.1320 C.ar  257  PHE257     -0.0000
    178  N         11.7560   -6.3460  -32.2800 N.am  258  VAL258     -0.1980
    179  CA        12.7120   -5.5980  -31.4580 C.3   258  VAL258      0.1595
    180  C         13.7350   -4.8890  -32.3600 C.2   258  VAL258      0.2287
    181  O         13.9160   -3.6830  -32.2250 O.2   258  VAL258     -0.2864
    182  CB        13.3680   -6.4850  -30.3590 C.3   258  VAL258      0.0276
    183  CG1       14.4970   -5.7530  -29.6370 C.3   258  VAL258      0.0022
    184  CG2       12.3230   -6.9600  -29.3540 C.3   258  VAL258      0.0022
    185  N         11.9160   -2.3460  -34.3910 N.3   261  GLY261     -0.1210
    186  CA        11.4650   -1.3360  -33.4390 C.3   261  GLY261      0.1956
    187  C         12.5450   -0.3750  -32.9900 C.2   261  GLY261      0.2611
    188  O         12.3070    0.8330  -32.9260 O.2   261  GLY261     -0.2717
    189  N         13.7380   -0.9010  -32.6800 N.am  262  ALA262     -0.1979
    190  CA        14.9070   -0.1140  -32.2800 C.3   262  ALA262      0.1597
    191  C         15.4020    0.7320  -33.4600 C.2   262  ALA262      0.2287
    192  O         15.8030    1.8740  -33.2570 O.2   262  ALA262     -0.2864
    193  CB        16.0160   -1.0310  -31.7780 C.3   262  ALA262      0.0319
    194  N         12.8990    3.5750  -34.1080 N.3   265  HIS265     -0.1241
    195  CA        13.1720    4.5440  -33.0460 C.3   265  HIS265      0.1621
    196  C         14.3630    5.4200  -33.4120 C.2   265  HIS265      0.2264
    197  O         14.2890    6.6480  -33.2810 O.2   265  HIS265     -0.2867
    198  CB        13.4010    3.8780  -31.6760 C.3   265  HIS265      0.0745
    199  CG        13.7630    4.8810  -30.6220 C.ar  265  HIS265      0.0817
    200  ND1       12.7940    5.6550  -30.0090 N.ar  265  HIS265     -0.2268
    201  CD2       14.9830    5.2940  -30.1960 C.ar  265  HIS265      0.1154
    202  CE1       13.4390    6.4750  -29.2020 C.ar  265  HIS265      0.1986
    203  NE2       14.7610    6.3020  -29.2850 N.ar  265  HIS265     -0.2212
@<TRIPOS>BOND
     1   177   175   ar
     2   177   176   ar
     3   112   110    1
     4   175   173   ar
     5   176   174   ar
     6   111   110    1
     7   110   109    1
     8   173   172   ar
     9   174   172   ar
    10   185   186    1
    11   172   171    1
    12   167   168    1
    13   194   195    1
    14   168   171    1
    15   168   169    1
    16   191   192    2
    17   191   190    1
    18   109   106    1
    19    97    98    1
    20   186   187    1
    21   196   197    2
    22   196   195    1
    23   170   169    2
    24   169   178   am
    25   105   106    1
    26   195   198    1
    27   187   188    2
    28   187   189   am
    29   106   107    1
    30   103   102    1
    31   103   104    1
    32   189   190    1
    33   180   181    2
    34   180   179    1
    35   156   157    1
    36   178   179    1
    37   190   193    1
    38    98   101    1
    39    98    99    1
    40   102   101    1
    41   198   199    1
    42   107   108    2
    43   107   113   am
    44   179   182    1
    45   158   157    1
    46   158   159    2
    47   157   160    1
    48    99   100    2
    49    10    11   ar
    50    10     8   ar
    51    11     9   ar
    52   125   126    1
    53   148   149    2
    54   148   147    1
    55   199   201   ar
    56   199   200   ar
    57   126   127    1
    58   113   114    1
    59   146   147    1
    60   182   183    1
    61   182   184    1
    62     8     6   ar
    63   201   203   ar
    64   200   202   ar
    65   160   161    1
    66   147   150    1
    67     9     7   ar
    68   203   202   ar
    69   127   128    2
    70   127   129   am
    71   114   115    1
    72   114   117    1
    73   150   151    1
    74     6     7   ar
    75     6     5    1
    76   161   162   ar
    77   161   163   ar
    78   115   116    2
    79   162   164   ar
    80   134   135    1
    81   120   122   ar
    82   120   118   ar
    83   129   130    1
    84   117   118    1
    85   163   165   ar
    86   153   151   ar
    87   153   155   ar
    88   151   152   ar
    89     5     2    1
    90   122   123   ar
    91   118   119   ar
    92   164   166   ar
    93    46    45    1
    94   135   138    1
    95   135   136    1
    96     3     4    2
    97     3     2    1
    98    47    45    1
    99   165   166   ar
   100   131   130    1
   101   131   132    2
   102   130   133    1
   103   123   124    1
   104   123   121   ar
   105     2     1    1
   106   138   139    1
   107   119   121   ar
   108   155   154   ar
   109    60    57    1
   110    60    61    1
   111    45    44    1
   112    59    58    2
   113   152   154   ar
   114   136   137    2
   115    57    58    1
   116    57    56    1
   117   140   139   ar
   118   140   142   ar
   119   139   141   ar
   120    44    41    1
   121    43    42    2
   122    95    94    1
   123   142   144   ar
   124    41    42    1
   125    41    40    1
   126   141   143   ar
   127    42    48   am
   128    96    94    1
   129    18    17   ar
   130    94    93    1
   131   144   143   ar
   132   144   145    1
   133    48    49    1
   134    53    55    1
   135    53    52    1
   136    49    50    1
   137    49    52    1
   138    51    50    2
   139    38    36    1
   140    37    36    1
   141    37    39    1
   142    17    19   ar
   143    17    16    1
   144    93    90    1
   145    35    34    2
   146    52    54    1
   147    33    36    1
   148    33    32    1
   149    33    34    1
   150    90    91    1
   151    90    89    1
   152    92    91    2
   153    77    74    1
   154    81    80    2
   155    15    14    2
   156    89    80   am
   157    76    75    2
   158    16    13    1
   159    74    75    1
   160    74    73    1
   161    80    79    1
   162    13    14    1
   163    13    12    1
   164    82    79    1
   165    82    83    1
   166    14    20   am
   167    79    78    1
   168    72    70    1
   169    73    64   am
   170    83    85   ar
   171    83    84   ar
   172    85    87   ar
   173    20    21    1
   174    84    86   ar
   175    65    64    2
   176    64    63    1
   177    69    70    2
   178    69    68    1
   179    23    22    2
   180    28    26   ar
   181    28    30   ar
   182    70    71    1
   183    26    25   ar
   184    21    22    1
   185    21    24    1
   186    87    88   ar
   187    86    88   ar
   188    66    63    1
   189    66    67    1
   190    31    30    1
   191    63    62    1
   192    68    67    1
   193    30    29   ar
   194    25    24    1
   195    25    27   ar
   196    29    27   ar
