@<TRIPOS>MOLECULE
tmp/5lx3A00.pdb
 207 195 0 0 0
SMALL
GASTEIGER

@<TRIPOS>ATOM
      1  N         20.3170    5.8260  -10.2520 N.3   165  GLY165     -0.1225
      2  CA        20.0040    4.7030   -9.3800 C.3   165  GLY165      0.1811
      3  C         20.3360    4.8830   -7.9090 C.2   165  GLY165      0.2280
      4  O         20.2030    3.9460   -7.1230 O.2   165  GLY165     -0.2866
      5  N         17.8810    4.1050   -5.0770 N.3   168  TYR168     -0.1227
      6  CA        17.5750    2.6770   -4.9350 C.3   168  TYR168      0.1736
      7  C         18.7310    1.8890   -4.2930 C.2   168  TYR168      0.2595
      8  O         18.6800    0.6630   -4.2230 O.2   168  TYR168     -0.2718
      9  CB        17.2570    2.0500   -6.3050 C.3   168  TYR168      0.0548
     10  CG        15.9360    2.4740   -6.9160 C.ar  168  TYR168     -0.0200
     11  CD1       15.8860    3.4480   -7.9070 C.ar  168  TYR168     -0.0009
     12  CD2       14.7410    1.8800   -6.5240 C.ar  168  TYR168     -0.0009
     13  CE1       14.6810    3.8360   -8.4730 C.ar  168  TYR168      0.0417
     14  CE2       13.5350    2.2590   -7.0850 C.ar  168  TYR168      0.0417
     15  CZ        13.5120    3.2380   -8.0600 C.ar  168  TYR168      0.1957
     16  OH        12.3120    3.6190   -8.6230 O.3   168  TYR168     -0.2866
     17  N         19.7820    2.5740   -3.8530 N.am  169  LYS169     -0.1980
     18  CA        20.9550    1.8780   -3.2990 C.3   169  LYS169      0.1596
     19  C         20.9470    1.4930   -1.8230 C.2   169  LYS169      0.2287
     20  O         21.8860    0.8630   -1.3430 O.2   169  LYS169     -0.2864
     21  CB        22.2610    2.5830   -3.6750 C.3   169  LYS169      0.0298
     22  CG        22.4510    2.7290   -5.1740 C.3   169  LYS169      0.0038
     23  CD        23.9120    2.6500   -5.5720 C.3   169  LYS169      0.0206
     24  CE        24.0470    2.4760   -7.0730 C.3   169  LYS169      0.1093
     25  NZ        23.6940    1.1010   -7.4930 N.3   169  LYS169     -0.1314
     26  N         18.2500   -0.3770    0.6000 N.3   171  HIS171     -0.1241
     27  CA        16.9610   -1.0620    0.7280 C.3   171  HIS171      0.1621
     28  C         16.6290   -1.4910    2.1600 C.2   171  HIS171      0.2264
     29  O         17.4470   -2.1050    2.8450 O.2   171  HIS171     -0.2867
     30  CB        16.9050   -2.2720   -0.2140 C.3   171  HIS171      0.0745
     31  CG        15.5130   -2.7100   -0.5600 C.ar  171  HIS171      0.0817
     32  ND1       14.8930   -2.3590   -1.7400 N.ar  171  HIS171     -0.2268
     33  CD2       14.6300   -3.4870    0.1120 C.ar  171  HIS171      0.1154
     34  CE1       13.6870   -2.8960   -1.7780 C.ar  171  HIS171      0.1986
     35  NE2       13.5020   -3.5850   -0.6650 N.ar  171  HIS171     -0.2212
     36  N         15.4150   -3.6780    4.9270 N.3   173  PHE173     -0.1241
     37  CA        15.2630   -5.1050    5.2270 C.3   173  PHE173      0.1605
     38  C         14.8690   -5.3060    6.7020 C.2   173  PHE173      0.2264
     39  O         15.0250   -6.4070    7.2250 O.2   173  PHE173     -0.2867
     40  CB        16.6250   -5.8100    5.0690 C.3   173  PHE173      0.0534
     41  CG        17.0060   -6.1480    3.6520 C.ar  173  PHE173     -0.0203
     42  CD1       18.1990   -6.8220    3.3990 C.ar  173  PHE173     -0.0042
     43  CD2       16.1930   -5.8100    2.5830 C.ar  173  PHE173     -0.0042
     44  CE1       18.5760   -7.1500    2.1040 C.ar  173  PHE173     -0.0003
     45  CE2       16.5640   -6.1250    1.2830 C.ar  173  PHE173     -0.0003
     46  CZ        17.7570   -6.8030    1.0440 C.ar  173  PHE173     -0.0000
     47  N         11.8710   -5.0850    8.7120 N.3   175  TYR175     -0.1227
     48  CA        10.5670   -5.4440    9.2680 C.3   175  TYR175      0.1736
     49  C         10.6410   -6.3900   10.4690 C.2   175  TYR175      0.2595
     50  O         10.0770   -6.1140   11.5300 O.2   175  TYR175     -0.2718
     51  CB         9.6750   -6.0460    8.1770 C.3   175  TYR175      0.0548
     52  CG         8.1850   -5.8550    8.3830 C.ar  175  TYR175     -0.0200
     53  CD1        7.6580   -5.5890    9.6410 C.ar  175  TYR175     -0.0009
     54  CD2        7.3020   -5.9740    7.3150 C.ar  175  TYR175     -0.0009
     55  CE1        6.2890   -5.4250    9.8240 C.ar  175  TYR175      0.0417
     56  CE2        5.9280   -5.8280    7.4910 C.ar  175  TYR175      0.0417
     57  CZ         5.4300   -5.5480    8.7420 C.ar  175  TYR175      0.1957
     58  OH         4.0690   -5.3900    8.9070 O.3   175  TYR175     -0.2866
     59  N         11.2940   -7.5310   10.2950 N.am  176  ARG176     -0.1980
     60  CA        11.3600   -8.5070   11.3770 C.3   176  ARG176      0.1597
     61  C         12.3120   -8.0970   12.4970 C.2   176  ARG176      0.2287
     62  O         12.2390   -8.6380   13.6030 O.2   176  ARG176     -0.2864
     63  CB        11.7380   -9.8840   10.8340 C.3   176  ARG176      0.0334
     64  CG        13.2230  -10.1470   10.7820 C.3   176  ARG176      0.0492
     65  CD        13.5370  -11.3190    9.8690 C.3   176  ARG176      0.2205
     66  NE        13.2090  -11.0480    8.4700 N.pl3 176  ARG176     -0.0865
     67  CZ        13.3530  -11.9380    7.4940 C.cat 176  ARG176      0.5346
     68  NH1       13.8160  -13.1500    7.7690 N.pl3 176  ARG176      0.1354
     69  NH2       13.0390  -11.6220    6.2460 N.pl3 176  ARG176      0.1354
     70  N         13.2950    2.1540   -2.0910 N.3   197  GLY197     -0.1225
     71  CA        13.2590    0.7120   -1.8960 C.3   197  GLY197      0.1811
     72  C         12.9590    0.2510   -0.4820 C.2   197  GLY197      0.2280
     73  O         13.6240    0.6610    0.4670 O.2   197  GLY197     -0.2866
     74  N         11.0250   -3.3210    1.8760 N.3   199  ASP199     -0.1239
     75  CA        10.3320   -4.6040    1.9560 C.3   199  ASP199      0.1674
     76  C          9.4580   -4.5850    3.2060 C.2   199  ASP199      0.2266
     77  O          8.7580   -5.5540    3.5200 O.2   199  ASP199     -0.2867
     78  CB        11.3160   -5.7770    1.9960 C.3   199  ASP199      0.1410
     79  CG        11.4870   -6.4400    0.6380 C.2   199  ASP199      0.3668
     80  OD1       11.8270   -5.7270   -0.3380 O.co2 199  ASP199     -0.2456
     81  OD2       11.2940   -7.6750    0.5510 O.co2 199  ASP199     -0.2456
     82  N          9.5890   -2.8930   -4.4540 N.3   221  SER221     -0.1202
     83  CA        10.3420   -4.1160   -4.1900 C.3   221  SER221      0.2020
     84  C         10.3920   -4.9920   -5.4420 C.2   221  SER221      0.2618
     85  O          9.7330   -4.7020   -6.4400 O.2   221  SER221     -0.2717
     86  CB         9.7100   -4.8920   -3.0300 C.3   221  SER221      0.2103
     87  OG        10.4940   -6.0180   -2.6800 O.3   221  SER221     -0.2182
     88  N         11.1890   -6.0550   -5.3850 N.am  222  VAL222     -0.1979
     89  CA        11.3160   -7.0000   -6.4920 C.3   222  VAL222      0.1595
     90  C         11.2350   -8.4140   -5.9260 C.2   222  VAL222      0.2287
     91  O         11.4960   -8.6290   -4.7420 O.2   222  VAL222     -0.2864
     92  CB        12.6260   -6.8030   -7.2910 C.3   222  VAL222      0.0276
     93  CG1       12.8120   -5.3420   -7.6910 C.3   222  VAL222      0.0022
     94  CG2       13.8310   -7.3160   -6.4980 C.3   222  VAL222      0.0022
     95  N         12.2110  -11.9870   -4.6870 N.3   224  ALA224     -0.1231
     96  CA        13.4870  -12.4160   -4.1330 C.3   224  ALA224      0.1694
     97  C         13.3620  -13.6900   -3.3130 C.2   224  ALA224      0.2591
     98  O         12.2980  -13.9940   -2.7780 O.2   224  ALA224     -0.2718
     99  CB        14.1010  -11.2980   -3.3010 C.3   224  ALA224      0.0304
    100  N         14.4680  -14.4200   -3.2040 N.am  225  ALA225     -0.1980
    101  CA        14.5110  -15.6670   -2.4500 C.3   225  ALA225      0.1597
    102  C         14.9810  -15.4560   -1.0130 C.2   225  ALA225      0.2287
    103  O         15.6340  -14.4590   -0.7010 O.2   225  ALA225     -0.2864
    104  CB        15.4460  -16.6530   -3.1490 C.3   225  ALA225      0.0319
    105  N         13.3620   -8.0430  -12.4470 N.3   253  PRO253     -0.2116
    106  CA        14.5660   -8.2560  -11.6390 C.3   253  PRO253      0.1372
    107  C         14.2900   -9.2670  -10.5300 C.2   253  PRO253      0.2244
    108  O         13.1690   -9.3600  -10.0270 O.2   253  PRO253     -0.2868
    109  CB        14.8390   -6.8690  -11.0310 C.3   253  PRO253      0.0268
    110  CG        13.9700   -5.9110  -11.7910 C.3   253  PRO253      0.0207
    111  CD        12.7860   -6.7060  -12.2240 C.3   253  PRO253      0.0892
    112  N         16.2810  -11.0360   -6.9610 N.3   255  SER255     -0.1217
    113  CA        17.3890  -11.1500   -6.0170 C.3   255  SER255      0.1889
    114  C         17.4270  -12.5960   -5.5230 C.2   255  SER255      0.2288
    115  O         16.3950  -13.1550   -5.1640 O.2   255  SER255     -0.2866
    116  CB        17.1840  -10.1910   -4.8400 C.3   255  SER255      0.2089
    117  OG        17.8920  -10.6200   -3.6850 O.3   255  SER255     -0.2183
    118  N         18.1280   -5.9360  -19.6400 N.3   284  THR284     -0.1203
    119  CA        18.6870   -4.8820  -18.8140 C.3   284  THR284      0.1994
    120  C         17.6670   -4.4120  -17.7750 C.2   284  THR284      0.2617
    121  O         18.0320   -3.8400  -16.7440 O.2   284  THR284     -0.2717
    122  CB        19.1940   -3.7230  -19.6890 C.3   284  THR284      0.1784
    123  OG1       20.2930   -4.1830  -20.4860 O.3   284  THR284     -0.2211
    124  CG2       19.6460   -2.5480  -18.8240 C.3   284  THR284      0.0376
    125  N         16.3930   -4.6920  -18.0380 N.am  285  GLN285     -0.1979
    126  CA        15.3110   -4.3230  -17.1290 C.3   285  GLN285      0.1601
    127  C         15.0400   -5.4330  -16.1200 C.2   285  GLN285      0.2287
    128  O         14.2440   -5.2600  -15.1970 O.2   285  GLN285     -0.2864
    129  CB        14.0250   -4.0450  -17.9130 C.3   285  GLN285      0.0394
    130  CG        13.9490   -2.6490  -18.5100 C.3   285  GLN285      0.0908
    131  CD        15.0360   -2.4040  -19.5310 C.2   285  GLN285      0.2608
    132  OE1       15.2060   -3.1830  -20.4700 O.2   285  GLN285     -0.2717
    133  NE2       15.7980   -1.3330  -19.3410 N.am  285  GLN285     -0.0878
    134  N         17.6750   -7.7140  -14.3540 N.3   287  PRO287     -0.2116
    135  CA        18.9370   -8.3530  -13.9800 C.3   287  PRO287      0.1372
    136  C         18.7840   -9.3700  -12.8550 C.2   287  PRO287      0.2244
    137  O         17.8140   -9.3440  -12.0910 O.2   287  PRO287     -0.2868
    138  CB        19.7680   -7.1750  -13.4650 C.3   287  PRO287      0.0268
    139  CG        18.7480   -6.2240  -12.9290 C.3   287  PRO287      0.0207
    140  CD        17.6160   -6.3130  -13.9030 C.3   287  PRO287      0.0892
    141  N         20.1600  -10.3850   -9.3790 N.3   289  ILE289     -0.1245
    142  CA        20.8730   -9.6780   -8.3260 C.3   289  ILE289      0.1561
    143  C         21.3590  -10.6760   -7.2830 C.2   289  ILE289      0.2260
    144  O         20.5710  -11.1860   -6.4850 O.2   289  ILE289     -0.2867
    145  CB        20.0180   -8.5390   -7.7340 C.3   289  ILE289      0.0252
    146  CG1       19.5350   -7.6130   -8.8580 C.3   289  ILE289      0.0019
    147  CG2       20.8110   -7.7520   -6.6970 C.3   289  ILE289      0.0019
    148  CD1       18.3380   -6.7810   -8.4930 C.3   289  ILE289      0.0001
    149  N         22.8930  -12.1270   -4.0200 N.3   291  ARG291     -0.1245
    150  CA        22.9240  -11.6510   -2.6450 C.3   291  ARG291      0.1563
    151  C         23.7070  -12.5260   -1.6820 C.2   291  ARG291      0.2260
    152  O         23.2400  -13.5920   -1.2770 O.2   291  ARG291     -0.2867
    153  CB        21.5070  -11.4560   -2.0950 C.3   291  ARG291      0.0307
    154  CG        21.4660  -11.1660   -0.5920 C.3   291  ARG291      0.0489
    155  CD        20.1180  -10.5980   -0.1530 C.3   291  ARG291      0.2205
    156  NE        19.1040  -11.6450   -0.0260 N.pl3 291  ARG291     -0.0865
    157  CZ        18.6710  -12.1420    1.1320 C.cat 291  ARG291      0.5346
    158  NH1       19.1550  -11.6900    2.2770 N.pl3 291  ARG291      0.1354
    159  NH2       17.7530  -13.0980    1.1460 N.pl3 291  ARG291      0.1354
    160  N         24.0140   -7.7550  -11.1730 N.3   329  ARG329     -0.1231
    161  CA        24.3210   -6.8370  -10.0750 C.3   329  ARG329      0.1694
    162  C         24.5040   -7.6160   -8.7740 C.2   329  ARG329      0.2592
    163  O         24.3830   -8.8390   -8.7520 O.2   329  ARG329     -0.2718
    164  CB        23.2140   -5.7870   -9.9030 C.3   329  ARG329      0.0321
    165  CG        23.1300   -4.7550  -11.0310 C.3   329  ARG329      0.0489
    166  CD        24.4110   -3.9640  -11.1580 C.3   329  ARG329      0.2205
    167  NE        24.3550   -2.9410  -12.2070 N.pl3 329  ARG329     -0.0865
    168  CZ        24.8890   -3.0750  -13.4200 C.cat 329  ARG329      0.5346
    169  NH1       25.5020   -4.2010  -13.7660 N.pl3 329  ARG329      0.1354
    170  NH2       24.8110   -2.0830  -14.2920 N.pl3 329  ARG329      0.1354
    171  N         24.7720   -6.8980   -7.6890 N.am  330  VAL330     -0.1966
    172  CA        24.9770   -7.5160   -6.3850 C.3   330  VAL330      0.1727
    173  C         24.3080   -6.6800   -5.3030 C.2   330  VAL330      0.2616
    174  O         24.2920   -5.4530   -5.3840 O.2   330  VAL330     -0.2715
    175  CB        26.4960   -7.6270   -6.0650 C.3   330  VAL330      0.0290
    176  CG1       26.7170   -8.1870   -4.6570 C.3   330  VAL330      0.0023
    177  CG2       27.2140   -8.4670   -7.1150 C.3   330  VAL330      0.0023
    178  N         23.7950   -7.3410   -4.2700 N.am  331  ILE331     -0.1977
    179  CA        23.2420   -6.6330   -3.1180 C.3   331  ILE331      0.1596
    180  C         23.7820   -7.2510   -1.8340 C.2   331  ILE331      0.2287
    181  O         23.6480   -8.4510   -1.6060 O.2   331  ILE331     -0.2864
    182  CB        21.6880   -6.5270   -3.1140 C.3   331  ILE331      0.0276
    183  CG1       21.2360   -5.6510   -1.9370 C.3   331  ILE331      0.0022
    184  CG2       21.0520   -7.8950   -3.0010 C.3   331  ILE331      0.0022
    185  CD1       19.7720   -5.3050   -1.9380 C.3   331  ILE331      0.0001
    186  N         28.0790    1.5130   -9.0730 N.3   356  GLU356     -0.1245
    187  CA        26.8760    1.1520   -9.8210 C.3   356  GLU356      0.1567
    188  C         26.5980   -0.3540   -9.7980 C.2   356  GLU356      0.2260
    189  O         25.4720   -0.7900  -10.0370 O.2   356  GLU356     -0.2867
    190  CB        26.8990    1.7020  -11.2590 C.3   356  GLU356      0.0388
    191  CG        28.1700    1.4490  -12.0430 C.3   356  GLU356      0.1160
    192  CD        28.3730    2.4470  -13.1920 C.2   356  GLU356      0.3649
    193  OE1       29.5100    2.9380  -13.3510 O.co2 356  GLU356     -0.2457
    194  OE2       27.4170    2.7090  -13.9600 O.co2 356  GLU356     -0.2457
    195  N         26.5800   -2.2800   -7.2310 N.3   358  ILE358     -0.1231
    196  CA        26.0090   -2.7230   -5.9750 C.3   358  ILE358      0.1692
    197  C         24.8620   -1.9070   -5.3970 C.2   358  ILE358      0.2591
    198  O         24.6930   -0.7210   -5.6900 O.2   358  ILE358     -0.2718
    199  CB        27.1430   -2.8220   -4.9410 C.3   358  ILE358      0.0266
    200  CG1       26.7960   -3.7930   -3.8140 C.3   358  ILE358      0.0019
    201  CG2       27.5050   -1.4340   -4.4160 C.3   358  ILE358      0.0020
    202  CD1       27.9670   -4.0780   -2.8990 C.3   358  ILE358      0.0001
    203  N         24.1040   -2.5660   -4.5260 N.am  359  ALA359     -0.1980
    204  CA        23.0340   -1.9460   -3.7590 C.3   359  ALA359      0.1597
    205  C         23.1940   -2.5160   -2.3560 C.2   359  ALA359      0.2287
    206  O         23.7850   -3.5830   -2.1780 O.2   359  ALA359     -0.2864
    207  CB        21.6720   -2.3110   -4.3280 C.3   359  ALA359      0.0319
@<TRIPOS>BOND
     1   123   122    1
     2   132   131    2
     3   122   124    1
     4   122   119    1
     5   118   119    1
     6   131   133   am
     7   131   130    1
     8   119   120    1
     9   130   129    1
    10   125   120   am
    11   125   126    1
    12   129   126    1
    13   120   121    2
    14   126   127    1
    15   127   128    2
    16   134   135    1
    17   134   140    1
    18   170   168    1
    19   135   138    1
    20   135   136    1
    21   194   192   ar
    22   140   139    1
    23   169   168    1
    24   138   139    1
    25   168   167    2
    26   193   192   ar
    27   192   191    1
    28   136   137    2
    29   105   111    1
    30   105   106    1
    31   111   110    1
    32   167   166    1
    33   191   190    1
    34   110   109    1
    35   106   109    1
    36   106   107    1
    37   190   187    1
    38   160   161    1
    39   166   165    1
    40   165   164    1
    41   107   108    2
    42     1     2    1
    43   161   164    1
    44   161   162    1
    45   189   188    2
    46   187   188    1
    47   187   186    1
    48     2     3    1
    49   141   142    1
    50   146   148    1
    51   146   145    1
    52   162   163    2
    53   162   171   am
    54    16    15    1
    55    13    15   ar
    56    13    11   ar
    57   142   145    1
    58   142   143    1
    59    15    14   ar
    60     3     4    2
    61    11    10   ar
    62   145   147    1
    63    93    92    1
    64   171   172    1
    65    25    24    1
    66    92    94    1
    67    92    89    1
    68   143   144    2
    69   195   196    1
    70   177   175    1
    71    14    12   ar
    72    24    23    1
    73   112   113    1
    74    10    12   ar
    75    10     9    1
    76    89    90    1
    77    89    88    1
    78    85    84    2
    79   172   175    1
    80   172   173    1
    81     9     6    1
    82   175   176    1
    83   113   114    1
    84   113   116    1
    85   196   197    1
    86   196   199    1
    87    90    91    2
    88   198   197    2
    89    23    22    1
    90   114   115    2
    91    84    88   am
    92    84    83    1
    93   197   203   am
    94   174   173    2
    95   173   178   am
    96    22    21    1
    97     5     6    1
    98   199   201    1
    99   199   200    1
   100     6     7    1
   101   116   117    1
   102    95    96    1
   103   203   204    1
   104    82    83    1
   105   207   204    1
   106     7     8    2
   107     7    17   am
   108   178   179    1
   109    83    86    1
   110    96    97    1
   111    96    99    1
   112   149   150    1
   113    17    18    1
   114   200   202    1
   115   204   205    1
   116    21    18    1
   117    97   100   am
   118    97    98    2
   119    18    19    1
   120   100   101    1
   121   104   101    1
   122   179   182    1
   123   179   180    1
   124   182   184    1
   125   182   183    1
   126    86    87    1
   127   150   153    1
   128   150   151    1
   129   101   102    1
   130   205   206    2
   131   153   154    1
   132    70    71    1
   133   185   183    1
   134    71    72    1
   135   180   181    2
   136    19    20    2
   137    34    32   ar
   138    34    35   ar
   139    32    31   ar
   140   151   152    2
   141   102   103    2
   142    35    33   ar
   143   154   155    1
   144    31    30    1
   145    31    33   ar
   146    72    73    2
   147    80    79   ar
   148    30    27    1
   149   155   156    1
   150   156   157    2
   151    81    79   ar
   152    26    27    1
   153    79    78    1
   154    27    28    1
   155    46    45   ar
   156    46    44   ar
   157   157   159    1
   158   157   158    1
   159    45    43   ar
   160    74    75    1
   161    75    78    1
   162    75    76    1
   163    44    42   ar
   164    28    29    2
   165    43    41   ar
   166    76    77    2
   167    42    41   ar
   168    41    40    1
   169    36    37    1
   170    40    37    1
   171    37    38    1
   172    69    67    1
   173    38    39    2
   174    54    56   ar
   175    54    52   ar
   176    56    57   ar
   177    67    68    1
   178    67    66    2
   179    51    52    1
   180    51    48    1
   181    52    53   ar
   182    66    65    1
   183    47    48    1
   184    57    58    1
   185    57    55   ar
   186    48    49    1
   187    53    55   ar
   188    65    64    1
   189    59    49   am
   190    59    60    1
   191    49    50    2
   192    64    63    1
   193    63    60    1
   194    60    61    1
   195    61    62    2
