@<TRIPOS>MOLECULE
tmp/5lx6A00.pdb
 129 126 0 0 0
SMALL
GASTEIGER

@<TRIPOS>ATOM
      1  N         44.2300   14.7580   70.7660 N.3    70  TYR70      -0.1227
      2  CA        42.9360   14.4350   71.3940 C.3    70  TYR70       0.1736
      3  C         42.6460   15.3270   72.6180 C.2    70  TYR70       0.2595
      4  O         43.5780   15.7650   73.3100 O.2    70  TYR70      -0.2718
      5  CB        42.8800   12.9250   71.7730 C.3    70  TYR70       0.0548
      6  CG        43.0540   12.0200   70.5640 C.ar   70  TYR70      -0.0200
      7  CD1       41.9760   11.7230   69.7320 C.ar   70  TYR70      -0.0009
      8  CD2       44.3090   11.5150   70.2140 C.ar   70  TYR70      -0.0009
      9  CE1       42.1400   10.9510   68.5800 C.ar   70  TYR70       0.0417
     10  CE2       44.4860   10.7520   69.0540 C.ar   70  TYR70       0.0417
     11  CZ        43.4010   10.4960   68.2270 C.ar   70  TYR70       0.1957
     12  OH        43.5510    9.7530   67.0690 O.3    70  TYR70      -0.2866
     13  N         41.3480   15.5770   72.8860 N.am   71  HIS71      -0.1961
     14  CA        40.9100   16.3800   74.0360 C.3    71  HIS71       0.1787
     15  C         39.5940   15.8100   74.5870 C.2    71  HIS71       0.2620
     16  O         38.5310   16.0030   73.9830 O.2    71  HIS71      -0.2715
     17  CB        40.7510   17.8990   73.6780 C.3    71  HIS71       0.0785
     18  CG        40.2640   18.7770   74.8160 C.ar   71  HIS71       0.0821
     19  ND1       41.1530   19.3600   75.7200 N.ar   71  HIS71      -0.2267
     20  CD2       39.0030   19.1220   75.1770 C.ar   71  HIS71       0.1154
     21  CE1       40.4100   20.0420   76.5820 C.ar   71  HIS71       0.1986
     22  NE2       39.1080   19.9210   76.3070 N.ar   71  HIS71      -0.2212
     23  N         39.6740   15.1360   75.7300 N.am   72  GLY72      -0.1954
     24  CA        38.4730   14.6440   76.4010 C.3    72  GLY72       0.1869
     25  C         37.7770   15.7670   77.1470 C.2    72  GLY72       0.2309
     26  O         38.4470   16.6980   77.6320 O.2    72  GLY72      -0.2863
     27  N         39.8510   26.9820   82.2340 N.3    91  CYS91      -0.1235
     28  CA        40.7090   25.8630   82.6730 C.3    91  CYS91       0.1677
     29  C         40.3650   25.3490   84.0840 C.2    91  CYS91       0.2270
     30  O         40.6270   24.1810   84.3740 O.2    91  CYS91      -0.2867
     31  CB        42.1980   26.1990   82.5580 C.3    91  CYS91       0.0956
     32  SG        42.7630   27.5640   83.6100 S.3    91  CYS91      -0.0801
     33  N         41.6080   23.2980   89.3490 N.3    94  ASN94      -0.1225
     34  CA        42.1260   21.9580   89.6240 C.3    94  ASN94       0.1785
     35  C         43.0020   21.3810   88.5050 C.2    94  ASN94       0.2597
     36  O         42.6500   21.4370   87.3270 O.2    94  ASN94      -0.2718
     37  CB        40.9550   20.9960   89.8970 C.3    94  ASN94       0.1169
     38  CG        41.3490   19.5610   90.1700 C.2    94  ASN94       0.2627
     39  OD1       41.9650   19.2400   91.1930 O.2    94  ASN94      -0.2716
     40  ND2       40.9870   18.6650   89.2620 N.am   94  ASN94      -0.0877
     41  N         44.1350   20.7820   88.9170 N.am   95  ALA95      -0.1966
     42  CA        45.0950   20.0190   88.1160 C.3    95  ALA95       0.1728
     43  C         45.6970   20.7670   86.8960 C.2    95  ALA95       0.2616
     44  O         46.0200   20.1110   85.9000 O.2    95  ALA95      -0.2715
     45  CB        44.4560   18.7040   87.6610 C.3    95  ALA95       0.0334
     46  N         45.9410   22.0960   86.9960 N.am   96  THR96      -0.1951
     47  CA        46.5980   22.8640   85.9110 C.3    96  THR96       0.1897
     48  C         48.1270   22.7940   86.1550 C.2    96  THR96       0.2313
     49  O         48.8150   23.8130   86.2910 O.2    96  THR96      -0.2863
     50  CB        46.0470   24.3060   85.8360 C.3    96  THR96       0.1794
     51  OG1       46.0860   24.8990   87.1400 O.3    96  THR96      -0.2208
     52  CG2       44.6280   24.3650   85.2680 C.3    96  THR96       0.0378
     53  N         46.4160   26.8290   80.4920 N.3   101  GLY101     -0.1225
     54  CA        46.1420   26.7030   79.0620 C.3   101  GLY101      0.1811
     55  C         45.1660   25.5730   78.7830 C.2   101  GLY101      0.2280
     56  O         44.5070   25.0860   79.7080 O.2   101  GLY101     -0.2866
     57  N         44.7040   21.7000   77.3640 N.3   103  TYR103     -0.1227
     58  CA        45.5060   20.4670   77.3770 C.3   103  TYR103      0.1736
     59  C         45.0960   19.4670   76.2820 C.2   103  TYR103      0.2595
     60  O         43.8980   19.1980   76.0990 O.2   103  TYR103     -0.2718
     61  CB        45.3960   19.8050   78.7780 C.3   103  TYR103      0.0548
     62  CG        46.1380   20.5380   79.8930 C.ar  103  TYR103     -0.0200
     63  CD1       45.7820   21.8370   80.2650 C.ar  103  TYR103     -0.0009
     64  CD2       47.1680   19.9200   80.5980 C.ar  103  TYR103     -0.0009
     65  CE1       46.4670   22.5150   81.2780 C.ar  103  TYR103      0.0417
     66  CE2       47.8470   20.5840   81.6240 C.ar  103  TYR103      0.0417
     67  CZ        47.5010   21.8850   81.9510 C.ar  103  TYR103      0.1957
     68  OH        48.1860   22.5420   82.9530 O.3   103  TYR103     -0.2866
     69  N         46.0960   18.9220   75.5700 N.am  104  PHE104     -0.1962
     70  CA        45.8950   17.9520   74.4790 C.3   104  PHE104      0.1771
     71  C         46.8130   16.7410   74.6320 C.2   104  PHE104      0.2619
     72  O         47.9670   16.9000   75.0350 O.2   104  PHE104     -0.2715
     73  CB        46.1680   18.6190   73.1110 C.3   104  PHE104      0.0574
     74  CG        45.1840   19.7090   72.7550 C.ar  104  PHE104     -0.0200
     75  CD1       44.0110   19.4090   72.0750 C.ar  104  PHE104     -0.0042
     76  CD2       45.4360   21.0370   73.0940 C.ar  104  PHE104     -0.0042
     77  CE1       43.0790   20.4080   71.7730 C.ar  104  PHE104     -0.0003
     78  CE2       44.5030   22.0430   72.7940 C.ar  104  PHE104     -0.0003
     79  CZ        43.3250   21.7190   72.1330 C.ar  104  PHE104     -0.0000
     80  N         46.3180   15.5270   74.3030 N.am  105  ALA105     -0.1977
     81  CA        47.1140   14.2950   74.3790 C.3   105  ALA105      0.1597
     82  C         47.5380   13.8070   72.9920 C.2   105  ALA105      0.2287
     83  O         46.7380   13.8140   72.0470 O.2   105  ALA105     -0.2864
     84  CB        46.3140   13.1990   75.0840 C.3   105  ALA105      0.0319
     85  N         45.1350    8.3100   76.7400 N.3   110  LEU110     -0.1231
     86  CA        45.1200    9.2680   77.8340 C.3   110  LEU110      0.1693
     87  C         43.7470    9.9940   77.9190 C.2   110  LEU110      0.2592
     88  O         43.1010    9.9490   78.9770 O.2   110  LEU110     -0.2718
     89  CB        46.2860   10.2630   77.6900 C.3   110  LEU110      0.0284
     90  CG        46.5270   11.2160   78.8730 C.3   110  LEU110      0.0019
     91  CD1       46.6750   10.4640   80.2160 C.3   110  LEU110      0.0001
     92  CD2       47.7600   12.0740   78.6220 C.3   110  LEU110      0.0001
     93  N         43.2830   10.6100   76.8100 N.am  111  SER111     -0.1952
     94  CA        42.0290   11.3770   76.8000 C.3   111  SER111      0.1924
     95  C         40.7550   10.5350   77.0610 C.2   111  SER111      0.2314
     96  O         39.7570   11.0900   77.5460 O.2   111  SER111     -0.2863
     97  CB        41.8690   12.1140   75.4760 C.3   111  SER111      0.2116
     98  OG        42.8630   13.1170   75.2970 O.3   111  SER111     -0.2180
     99  N         38.5940   10.3470   84.0500 N.3   115  ARG115     -0.1231
    100  CA        38.9290   11.6230   84.6980 C.3   115  ARG115      0.1694
    101  C         38.9070   12.8090   83.6930 C.2   115  ARG115      0.2592
    102  O         38.6570   13.9380   84.1240 O.2   115  ARG115     -0.2718
    103  CB        40.2770   11.5630   85.4530 C.3   115  ARG115      0.0321
    104  CG        41.5120   11.2940   84.6000 C.3   115  ARG115      0.0489
    105  CD        42.7770   11.3150   85.4470 C.3   115  ARG115      0.2205
    106  NE        43.8630   10.5730   84.8050 N.pl3 115  ARG115     -0.0865
    107  CZ        44.9860   10.2000   85.4150 C.cat 115  ARG115      0.5346
    108  NH1       45.1860   10.4960   86.6950 N.pl3 115  ARG115      0.1354
    109  NH2       45.9130    9.5230   84.7520 N.pl3 115  ARG115      0.1354
    110  N         39.1160   12.5500   82.3730 N.am  116  TYR116     -0.1976
    111  CA        39.1170   13.6040   81.3450 C.3   116  TYR116      0.1639
    112  C         37.8300   13.6030   80.4800 C.2   116  TYR116      0.2290
    113  O         37.3450   14.6870   80.1200 O.2   116  TYR116     -0.2864
    114  CB        40.3800   13.5100   80.4670 C.3   116  TYR116      0.0560
    115  CG        41.6660   13.5660   81.2700 C.ar  116  TYR116     -0.0198
    116  CD1       41.9000   14.5950   82.1830 C.ar  116  TYR116     -0.0009
    117  CD2       42.6550   12.6020   81.1080 C.ar  116  TYR116     -0.0009
    118  CE1       43.0760   14.6460   82.9310 C.ar  116  TYR116      0.0417
    119  CE2       43.8380   12.6440   81.8510 C.ar  116  TYR116      0.0417
    120  CZ        44.0390   13.6650   82.7660 C.ar  116  TYR116      0.1957
    121  OH        45.2060   13.7220   83.4960 O.3   116  TYR116     -0.2866
    122  N         51.9330   15.2490   76.3220 N.3   171  ILE171     -0.1245
    123  CA        50.9050   16.2680   76.6170 C.3   171  ILE171      0.1561
    124  C         51.3950   17.6270   76.1030 C.2   171  ILE171      0.2260
    125  O         52.5490   17.9860   76.3690 O.2   171  ILE171     -0.2867
    126  CB        50.6150   16.3240   78.1580 C.3   171  ILE171      0.0252
    127  CG1       50.0610   14.9890   78.6870 C.3   171  ILE171      0.0019
    128  CG2       49.6830   17.5030   78.5400 C.3   171  ILE171      0.0019
    129  CD1       50.2410   14.7680   80.2440 C.3   171  ILE171      0.0001
@<TRIPOS>BOND
     1    12    11    1
     2    11     9   ar
     3    11    10   ar
     4     9     7   ar
     5    10     8   ar
     6     7     6   ar
     7     8     6   ar
     8     6     5    1
     9     1     2    1
    10     2     5    1
    11     2     3    1
    12    77    75   ar
    13    77    79   ar
    14    83    82    2
    15    75    74   ar
    16    79    78   ar
    17     3    13   am
    18     3     4    2
    19    74    76   ar
    20    74    73    1
    21    78    76   ar
    22    13    14    1
    23    82    81    1
    24    73    70    1
    25    17    14    1
    26    17    18    1
    27    16    15    2
    28    14    15    1
    29    80    81    1
    30    80    71   am
    31    81    84    1
    32    70    71    1
    33    70    69    1
    34    15    23   am
    35    71    72    2
    36    18    20   ar
    37    18    19   ar
    38    20    22   ar
    39    98    97    1
    40    97    94    1
    41    69    59   am
    42    19    21   ar
    43    23    24    1
    44    60    59    2
    45   124   125    2
    46   124   123    1
    47    59    58    1
    48    22    21   ar
    49   122   123    1
    50    24    25    1
    51   123   126    1
    52    85    86    1
    53    94    93    1
    54    94    95    1
    55    93    87   am
    56    95    96    2
    57    25    26    2
    58    57    58    1
    59    58    61    1
    60    89    86    1
    61    89    90    1
    62    86    87    1
    63    87    88    2
    64   126   128    1
    65   126   127    1
    66    92    90    1
    67   127   129    1
    68    61    62    1
    69    55    54    1
    70    55    56    2
    71    90    91    1
    72    54    53    1
    73    62    63   ar
    74    62    64   ar
    75   113   112    2
    76    63    65   ar
    77   114   115    1
    78   114   111    1
    79   112   111    1
    80    64    66   ar
    81   117   115   ar
    82   117   119   ar
    83   115   116   ar
    84    65    67   ar
    85   111   110    1
    86    66    67   ar
    87   119   120   ar
    88    67    68    1
    89   116   118   ar
    90    27    28    1
    91   110   101   am
    92    31    28    1
    93    31    32    1
    94    28    29    1
    95   120   118   ar
    96   120   121    1
    97   101   102    2
    98   101   100    1
    99    99   100    1
   100    29    30    2
   101   104   105    1
   102   104   103    1
   103   100   103    1
   104   109   107    1
   105   106   107    2
   106   106   105    1
   107    52    50    1
   108   107   108    1
   109    50    47    1
   110    50    51    1
   111    44    43    2
   112    47    48    1
   113    47    46    1
   114    48    49    2
   115    43    46   am
   116    43    42    1
   117    36    35    2
   118    45    42    1
   119    42    41    1
   120    35    41   am
   121    35    34    1
   122    40    38   am
   123    33    34    1
   124    34    37    1
   125    37    38    1
   126    38    39    2
