@<TRIPOS>MOLECULE
tmp/5lx7A00.pdb
 107 101 0 0 0
SMALL
GASTEIGER

@<TRIPOS>ATOM
      1  N        -37.5720   21.3560   20.7010 N.3    20  HIS20      -0.1241
      2  CA       -36.3020   20.7880   21.1570 C.3    20  HIS20       0.1621
      3  C        -36.0500   21.0370   22.6470 C.2    20  HIS20       0.2264
      4  O        -35.9330   22.1840   23.0690 O.2    20  HIS20      -0.2867
      5  CB       -35.1540   21.3860   20.3270 C.3    20  HIS20       0.0745
      6  CG       -33.8730   20.6220   20.4210 C.ar   20  HIS20       0.0817
      7  ND1      -33.6020   19.5220   19.6380 N.ar   20  HIS20      -0.2268
      8  CD2      -32.7830   20.8070   21.2000 C.ar   20  HIS20       0.1154
      9  CE1      -32.4010   19.0580   19.9350 C.ar   20  HIS20       0.1986
     10  NE2      -31.8820   19.8210   20.8790 N.ar   20  HIS20      -0.2212
     11  N        -33.5860   19.2920   25.9120 N.3    22  ASN22      -0.1240
     12  CA       -32.4300   18.4300   26.1860 C.3    22  ASN22       0.1653
     13  C        -32.5000   17.7400   27.5710 C.2    22  ASN22       0.2266
     14  O        -31.4780   17.2810   28.0910 O.2    22  ASN22      -0.2867
     15  CB       -31.1630   19.2960   26.0770 C.3    22  ASN22       0.1155
     16  CG       -29.8850   18.4880   25.8870 C.2    22  ASN22       0.2627
     17  OD1      -29.8300   17.5630   25.0780 O.2    22  ASN22      -0.2716
     18  ND2      -28.8310   18.8610   26.6190 N.am   22  ASN22      -0.0877
     19  N        -30.1240   13.3720   21.9800 N.3    68  PHE68      -0.1241
     20  CA       -28.7590   13.7900   21.6700 C.3    68  PHE68       0.1605
     21  C        -27.6980   12.9590   22.3910 C.2    68  PHE68       0.2264
     22  O        -27.8600   12.6010   23.5550 O.2    68  PHE68      -0.2867
     23  CB       -28.6030   15.2850   22.0260 C.3    68  PHE68       0.0534
     24  CG       -27.1890   15.7210   22.3000 C.ar   68  PHE68      -0.0203
     25  CD1      -26.3140   16.0010   21.2580 C.ar   68  PHE68      -0.0042
     26  CD2      -26.7380   15.8710   23.6080 C.ar   68  PHE68      -0.0042
     27  CE1      -25.0130   16.4090   21.5150 C.ar   68  PHE68      -0.0003
     28  CE2      -25.4390   16.2770   23.8720 C.ar   68  PHE68      -0.0003
     29  CZ       -24.5740   16.5470   22.8230 C.ar   68  PHE68      -0.0000
     30  N        -30.0670   14.1740   17.4040 N.3   131  GLU131     -0.1245
     31  CA       -29.3550   15.4030   17.0910 C.3   131  GLU131      0.1567
     32  C        -27.9920   15.1120   16.4670 C.2   131  GLU131      0.2260
     33  O        -26.9640   15.1960   17.1340 O.2   131  GLU131     -0.2867
     34  CB       -29.2300   16.2740   18.3470 C.3   131  GLU131      0.0388
     35  CG       -28.7950   17.7000   18.0520 C.3   131  GLU131      0.1160
     36  CD       -28.9480   18.6330   19.2380 C.2   131  GLU131      0.3649
     37  OE1      -29.0270   18.1620   20.3890 O.co2 131  GLU131     -0.2457
     38  OE2      -28.9850   19.8590   19.0180 O.co2 131  GLU131     -0.2457
     39  N        -24.6910   17.6290   14.4930 N.3   158  HIS158     -0.1226
     40  CA       -24.5530   18.4140   15.7080 C.3   158  HIS158      0.1752
     41  C        -23.4010   19.4080   15.4460 C.2   158  HIS158      0.2596
     42  O        -23.4850   20.1590   14.4760 O.2   158  HIS158     -0.2718
     43  CB       -24.3750   17.5270   16.9420 C.3   158  HIS158      0.0759
     44  CG       -24.3480   18.3030   18.2150 C.ar  158  HIS158      0.0818
     45  ND1      -23.2760   18.2750   19.0800 N.ar  158  HIS158     -0.2268
     46  CD2      -25.2260   19.1950   18.7290 C.ar  158  HIS158      0.1154
     47  CE1      -23.5090   19.0910   20.0890 C.ar  158  HIS158      0.1986
     48  NE2      -24.6840   19.6580   19.9010 N.ar  158  HIS158     -0.2212
     49  N        -22.3200   19.3920   16.2310 N.am  159  ASN159     -0.1974
     50  CA       -21.2160   20.3410   16.0700 C.3   159  ASN159      0.1688
     51  C        -19.9900   19.5910   15.5540 C.2   159  ASN159      0.2292
     52  O        -18.8620   19.8200   15.9960 O.2   159  ASN159     -0.2864
     53  CB       -20.9140   21.0460   17.3950 C.3   159  ASN159      0.1181
     54  CG       -22.0310   21.9770   17.8350 C.2   159  ASN159      0.2629
     55  OD1      -22.7450   22.5500   17.0100 O.2   159  ASN159     -0.2716
     56  ND2      -22.1740   22.1480   19.1450 N.am  159  ASN159     -0.0877
     57  N        -28.1190   23.4130   13.6320 N.3   200  HIS200     -0.1241
     58  CA       -26.7120   22.9580   13.7080 C.3   200  HIS200      0.1621
     59  C        -25.9790   22.7490   12.3690 C.2   200  HIS200      0.2264
     60  O        -24.7570   22.6440   12.3700 O.2   200  HIS200     -0.2867
     61  CB       -26.5610   21.7120   14.6080 C.3   200  HIS200      0.0745
     62  CG       -26.5660   22.0310   16.0660 C.ar  200  HIS200      0.0817
     63  ND1      -25.4050   22.2570   16.7710 N.ar  200  HIS200     -0.2268
     64  CD2      -27.5810   22.1880   16.9480 C.ar  200  HIS200      0.1154
     65  CE1      -25.7020   22.5280   18.0270 C.ar  200  HIS200      0.1986
     66  NE2      -27.0140   22.4930   18.1610 N.ar  200  HIS200     -0.2212
     67  N        -34.3760   24.1810   16.5870 N.3   221  HIS221     -0.1241
     68  CA       -33.9350   25.2430   17.4860 C.3   221  HIS221      0.1621
     69  C        -32.8780   26.1280   16.8120 C.2   221  HIS221      0.2264
     70  O        -31.6740   25.8910   16.9120 O.2   221  HIS221     -0.2867
     71  CB       -33.4620   24.6740   18.8370 C.3   221  HIS221      0.0745
     72  CG       -32.3300   23.7020   18.7400 C.ar  221  HIS221      0.0817
     73  ND1      -32.4130   22.5110   18.0500 N.ar  221  HIS221     -0.2268
     74  CD2      -31.0900   23.7410   19.2750 C.ar  221  HIS221      0.1154
     75  CE1      -31.2660   21.8670   18.1510 C.ar  221  HIS221      0.1986
     76  NE2      -30.4500   22.5900   18.8940 N.ar  221  HIS221     -0.2212
     77  N        -25.3050   29.5660   13.6650 N.3   232  ARG232     -0.1245
     78  CA       -26.4370   28.7040   14.0150 C.3   232  ARG232      0.1563
     79  C        -27.7890   29.3330   13.6800 C.2   232  ARG232      0.2260
     80  O        -28.8310   28.7010   13.8700 O.2   232  ARG232     -0.2867
     81  CB       -26.3900   28.3750   15.5140 C.3   232  ARG232      0.0307
     82  CG       -25.3630   27.3190   15.8700 C.3   232  ARG232      0.0489
     83  CD       -25.9430   25.9370   15.6500 C.3   232  ARG232      0.2205
     84  NE       -26.9270   25.5990   16.6740 N.pl3 232  ARG232     -0.0865
     85  CZ       -28.2360   25.8080   16.5610 C.cat 232  ARG232      0.5346
     86  NH1      -29.0410   25.4670   17.5550 N.pl3 232  ARG232      0.1354
     87  NH2      -28.7440   26.3530   15.4610 N.pl3 232  ARG232      0.1354
     88  N        -31.7210   30.2000   23.1400 N.3   254  LEU254     -0.1245
     89  CA       -30.2850   30.3310   23.4150 C.3   254  LEU254      0.1561
     90  C        -29.8590   31.7990   23.3880 C.2   254  LEU254      0.2260
     91  O        -30.0570   32.4850   22.3890 O.2   254  LEU254     -0.2867
     92  CB       -29.4420   29.5180   22.4240 C.3   254  LEU254      0.0270
     93  CG       -29.4160   27.9960   22.6170 C.3   254  LEU254      0.0019
     94  CD1      -28.7960   27.3330   21.3980 C.3   254  LEU254      0.0001
     95  CD2      -28.6630   27.5930   23.8770 C.3   254  LEU254      0.0001
     96  N        -34.8120   24.8280   23.1030 N.3   291  ASP291     -0.1239
     97  CA       -33.5520   24.2280   23.5340 C.3   291  ASP291      0.1674
     98  C        -33.3250   24.4580   25.0360 C.2   291  ASP291      0.2266
     99  O        -32.2120   24.7640   25.4790 O.2   291  ASP291     -0.2867
    100  CB       -32.3530   24.7100   22.7000 C.3   291  ASP291      0.1410
    101  CG       -31.1020   23.8660   22.9290 C.2   291  ASP291      0.3668
    102  OD1      -31.2270   22.7180   23.4030 O.co2 291  ASP291     -0.2456
    103  OD2      -29.9900   24.3550   22.6530 O.co2 291  ASP291     -0.2456
    104  N        -30.2750   22.9040   26.9800 N.3   294  GLY294     -0.1225
    105  CA       -29.0760   23.0270   26.1570 C.3   294  GLY294      0.1811
    106  C        -28.1950   24.1820   26.5980 C.2   294  GLY294      0.2280
    107  O        -27.2830   24.5790   25.8760 O.2   294  GLY294     -0.2866
@<TRIPOS>BOND
     1    59    60    2
     2    59    58    1
     3    57    58    1
     4    77    78    1
     5    79    80    2
     6    79    78    1
     7    58    61    1
     8    78    81    1
     9    42    41    2
    10    39    40    1
    11    61    62    1
    12    41    40    1
    13    41    49   am
    14    87    85    1
    15    81    82    1
    16    51    52    2
    17    51    50    1
    18    83    82    1
    19    83    84    1
    20    40    43    1
    21    62    63   ar
    22    62    64   ar
    23    50    49    1
    24    50    53    1
    25    32    31    1
    26    32    33    2
    27    85    84    2
    28    85    86    1
    29    67    68    1
    30    63    65   ar
    31    69    70    2
    32    69    68    1
    33    43    44    1
    34    64    66   ar
    35    55    54    2
    36    31    30    1
    37    31    34    1
    38    53    54    1
    39    68    71    1
    40    54    56   am
    41    65    66   ar
    42    73    75   ar
    43    73    72   ar
    44    35    34    1
    45    35    36    1
    46    75    76   ar
    47    44    46   ar
    48    44    45   ar
    49    46    48   ar
    50    72    71    1
    51    72    74   ar
    52    76    74   ar
    53    38    36   ar
    54    45    47   ar
    55    36    37   ar
    56     7     9   ar
    57     7     6   ar
    58    48    47   ar
    59     9    10   ar
    60     5     6    1
    61     5     2    1
    62     6     8   ar
    63     1     2    1
    64    10     8   ar
    65     2     3    1
    66    25    27   ar
    67    25    24   ar
    68    94    93    1
    69    27    29   ar
    70    20    19    1
    71    20    23    1
    72    20    21    1
    73    23    24    1
    74    24    26   ar
    75    91    90    2
    76    21    22    2
    77    92    93    1
    78    92    89    1
    79    93    95    1
    80     3     4    2
    81   103   101   ar
    82   100   101    1
    83   100    97    1
    84    29    28   ar
    85   101   102   ar
    86    96    97    1
    87    88    89    1
    88    90    89    1
    89    97    98    1
    90    26    28   ar
    91    98    99    2
    92    17    16    2
    93   107   106    2
    94    16    15    1
    95    16    18   am
    96    11    12    1
    97    15    12    1
    98   105   106    1
    99   105   104    1
   100    12    13    1
   101    13    14    2
