@<TRIPOS>MOLECULE
tmp/5lx9A09.pdb
 140 130 0 0 0
SMALL
GASTEIGER

@<TRIPOS>ATOM
      1  N         27.9690   16.4770  -28.3890 N.3    82  GLN82      -0.1245
      2  CA        26.7230   16.2010  -27.6760 C.3    82  GLN82       0.1566
      3  C         25.8280   15.2340  -28.4600 C.2    82  GLN82       0.2260
      4  O         25.3230   14.2630  -27.8950 O.2    82  GLN82      -0.2867
      5  CB        26.0020   17.5240  -27.4540 C.3    82  GLN82       0.0367
      6  CG        25.2790   17.6350  -26.1290 C.3    82  GLN82       0.0905
      7  CD        24.7400   19.0330  -25.9740 C.2    82  GLN82       0.2608
      8  OE1       24.3010   19.6790  -26.9330 O.2    82  GLN82      -0.2717
      9  NE2       24.8040   19.5580  -24.7690 N.am   82  GLN82      -0.0878
     10  N         27.1980   11.7380  -28.5200 N.3    85  VAL85      -0.1231
     11  CA        27.0050   11.1280  -27.1970 C.3    85  VAL85       0.1692
     12  C         25.5920   10.5580  -27.0710 C.2    85  VAL85       0.2591
     13  O         25.4520    9.4160  -26.6170 O.2    85  VAL85      -0.2718
     14  CB        27.4010   12.0590  -26.0150 C.3    85  VAL85       0.0266
     15  CG1       27.0340   11.4510  -24.6690 C.3    85  VAL85       0.0020
     16  CG2       28.8900   12.3770  -26.0420 C.3    85  VAL85       0.0020
     17  N         24.5560   11.3120  -27.5010 N.am   86  VAL86      -0.1980
     18  CA        23.1560   10.8450  -27.4080 C.3    86  VAL86       0.1595
     19  C         22.8990    9.6170  -28.2970 C.2    86  VAL86       0.2287
     20  O         22.2930    8.6500  -27.8280 O.2    86  VAL86      -0.2864
     21  CB        22.0770   11.9440  -27.6060 C.3    86  VAL86       0.0276
     22  CG1       22.2530   13.0870  -26.6110 C.3    86  VAL86       0.0022
     23  CG2       22.0220   12.4640  -29.0460 C.3    86  VAL86       0.0022
     24  N         24.6710    6.5030  -26.9450 N.3    89  LEU89      -0.1245
     25  CA        23.8840    5.8580  -25.8940 C.3    89  LEU89       0.1561
     26  C         22.8010    4.9570  -26.4830 C.2    89  LEU89       0.2260
     27  O         22.5370    3.8850  -25.9440 O.2    89  LEU89      -0.2867
     28  CB        23.2810    6.9110  -24.9490 C.3    89  LEU89       0.0270
     29  CG        24.3120    7.6250  -24.0430 C.3    89  LEU89       0.0019
     30  CD1       23.6530    8.6770  -23.1730 C.3    89  LEU89       0.0001
     31  CD2       25.0960    6.6300  -23.1950 C.3    89  LEU89       0.0001
     32  N         24.7530    1.9250  -28.0710 N.3    92  LEU92      -0.1231
     33  CA        25.1940    1.1260  -26.9460 C.3    92  LEU92       0.1693
     34  C         24.0540    0.2460  -26.4240 C.2    92  LEU92       0.2592
     35  O         24.2590   -0.9470  -26.1960 O.2    92  LEU92      -0.2718
     36  CB        25.7200    2.0440  -25.8350 C.3    92  LEU92       0.0284
     37  CG        26.1500    1.3720  -24.5380 C.3    92  LEU92       0.0019
     38  CD1       27.4070    0.5200  -24.7380 C.3    92  LEU92       0.0001
     39  CD2       26.3990    2.3900  -23.4780 C.3    92  LEU92       0.0001
     40  N         22.8730    0.8390  -26.2420 N.am   93  GLY93      -0.1957
     41  CA        21.6860    0.1320  -25.7800 C.3    93  GLY93       0.1869
     42  C         21.2500   -0.9610  -26.7260 C.2    93  GLY93       0.2309
     43  O         20.8510   -2.0250  -26.2740 O.2    93  GLY93      -0.2863
     44  N         24.1840   -3.8320  -26.7090 N.3    96  LEU96      -0.1245
     45  CA        24.1450   -4.6610  -25.4950 C.3    96  LEU96       0.1561
     46  C         22.9580   -5.6070  -25.5240 C.2    96  LEU96       0.2260
     47  O         23.1180   -6.7790  -25.2030 O.2    96  LEU96      -0.2867
     48  CB        24.0750   -3.8160  -24.2250 C.3    96  LEU96       0.0270
     49  CG        25.3380   -3.0840  -23.7970 C.3    96  LEU96       0.0019
     50  CD1       25.0210   -2.1210  -22.6580 C.3    96  LEU96       0.0001
     51  CD2       26.4640   -4.0600  -23.4170 C.3    96  LEU96       0.0001
     52  N         17.5270   -1.7580  -21.6010 N.3   128  LEU128     -0.1245
     53  CA        18.6470   -0.9100  -22.0170 C.3   128  LEU128      0.1561
     54  C         18.4280   -0.3610  -23.4150 C.2   128  LEU128      0.2260
     55  O         18.6480    0.8290  -23.6250 O.2   128  LEU128     -0.2867
     56  CB        19.9800   -1.6440  -21.9090 C.3   128  LEU128      0.0270
     57  CG        20.4880   -1.9440  -20.4820 C.3   128  LEU128      0.0019
     58  CD1       21.6860   -2.8840  -20.5210 C.3   128  LEU128      0.0001
     59  CD2       20.7780   -0.6600  -19.6740 C.3   128  LEU128      0.0001
     60  N         15.6070    2.3080  -22.8690 N.3   131  MET131     -0.1230
     61  CA        16.1520    3.5030  -22.1810 C.3   131  MET131      0.1702
     62  C         17.0440    4.3110  -23.1090 C.2   131  MET131      0.2592
     63  O         16.8810    5.5170  -23.2180 O.2   131  MET131     -0.2718
     64  CB        16.9530    3.1380  -20.9290 C.3   131  MET131      0.0401
     65  CG        16.1230    2.8400  -19.7220 C.3   131  MET131      0.0596
     66  SD        17.0500    1.7280  -18.6330 S.3   131  MET131     -0.1393
     67  CE        18.0450    2.8940  -17.7190 C.3   131  MET131      0.0692
     68  N         17.9450    3.6340  -23.7960 N.am  132  GLY132     -0.1957
     69  CA        18.8510    4.2540  -24.7470 C.3   132  GLY132      0.1869
     70  C         18.1780    4.9050  -25.9370 C.2   132  GLY132      0.2309
     71  O         18.6760    5.9060  -26.4330 O.2   132  GLY132     -0.2863
     72  N         16.8730    8.6240  -25.3000 N.3   135  VAL135     -0.1245
     73  CA        17.8920    9.6640  -25.1590 C.3   135  VAL135      0.1561
     74  C         17.9700   10.5440  -26.4270 C.2   135  VAL135      0.2260
     75  O         17.6020   11.7090  -26.2960 O.2   135  VAL135     -0.2867
     76  CB        19.2640    9.1250  -24.6800 C.3   135  VAL135      0.0252
     77  CG1       20.2920   10.2510  -24.5590 C.3   135  VAL135      0.0019
     78  CG2       19.1150    8.4000  -23.3500 C.3   135  VAL135      0.0019
     79  N         16.1280   14.4270  -26.6600 N.3   139  TYR139     -0.1241
     80  CA        17.1160   15.4470  -26.9980 C.3   139  TYR139      0.1605
     81  C         16.6070   16.3680  -28.1100 C.2   139  TYR139      0.2264
     82  O         16.6300   17.5790  -27.9380 O.2   139  TYR139     -0.2867
     83  CB        18.4710   14.8090  -27.3690 C.3   139  TYR139      0.0534
     84  CG        19.5410   15.8150  -27.7430 C.ar  139  TYR139     -0.0201
     85  CD1       20.2440   16.5060  -26.7570 C.ar  139  TYR139     -0.0009
     86  CD2       19.8490   16.0840  -29.0680 C.ar  139  TYR139     -0.0009
     87  CE1       21.2400   17.4200  -27.0940 C.ar  139  TYR139      0.0417
     88  CE2       20.8130   17.0270  -29.4160 C.ar  139  TYR139      0.0417
     89  CZ        21.5050   17.7000  -28.4220 C.ar  139  TYR139      0.1957
     90  OH        22.4700   18.6310  -28.7520 O.3   139  TYR139     -0.2866
     91  N         12.7410   17.8790  -27.1570 N.3   142  PHE142     -0.1227
     92  CA        12.7400   18.9190  -26.1340 C.3   142  PHE142      0.1736
     93  C         14.0140   19.7710  -26.2150 C.2   142  PHE142      0.2595
     94  O         14.5470   20.2230  -25.1940 O.2   142  PHE142     -0.2718
     95  CB        12.4940   18.3210  -24.7410 C.3   142  PHE142      0.0547
     96  CG        11.0920   17.8000  -24.5390 C.ar  142  PHE142     -0.0202
     97  CD1       10.0190   18.6760  -24.4060 C.ar  142  PHE142     -0.0042
     98  CD2       10.8410   16.4330  -24.4760 C.ar  142  PHE142     -0.0042
     99  CE1        8.7190   18.1930  -24.2240 C.ar  142  PHE142     -0.0003
    100  CE2        9.5420   15.9530  -24.2780 C.ar  142  PHE142     -0.0003
    101  CZ         8.4900   16.8360  -24.1670 C.ar  142  PHE142     -0.0000
    102  N         14.4710   20.0200  -27.4610 N.am  143  TYR143     -0.1976
    103  CA        15.6730   20.7830  -27.7840 C.3   143  TYR143      0.1639
    104  C         15.6900   22.1750  -27.1750 C.2   143  TYR143      0.2290
    105  O         16.7350   22.6190  -26.6890 O.2   143  TYR143     -0.2864
    106  CB        15.8880   20.8630  -29.3040 C.3   143  TYR143      0.0560
    107  CG        17.2980   21.2780  -29.6710 C.ar  143  TYR143     -0.0198
    108  CD1       17.6480   22.6260  -29.7710 C.ar  143  TYR143     -0.0009
    109  CD2       18.2960   20.3300  -29.8830 C.ar  143  TYR143     -0.0009
    110  CE1       18.9590   23.0160  -30.0570 C.ar  143  TYR143      0.0417
    111  CE2       19.6040   20.7070  -30.1800 C.ar  143  TYR143      0.0417
    112  CZ        19.9320   22.0520  -30.2650 C.ar  143  TYR143      0.1957
    113  OH        21.2150   22.4280  -30.5710 O.3   143  TYR143     -0.2866
    114  N         14.4340   22.5860  -21.8120 N.3   146  PRO146     -0.2116
    115  CA        15.3080   21.7070  -21.0040 C.3   146  PRO146      0.1372
    116  C         14.6830   21.0360  -19.7800 C.2   146  PRO146      0.2244
    117  O         15.0830   19.9100  -19.4750 O.2   146  PRO146     -0.2868
    118  CB        16.4670   22.6280  -20.5890 C.3   146  PRO146      0.0268
    119  CG        16.3290   23.8660  -21.4300 C.3   146  PRO146      0.0207
    120  CD        14.8730   23.9950  -21.7240 C.3   146  PRO146      0.0892
    121  N         12.7660   17.7640  -20.8280 N.3   149  CYS149     -0.1235
    122  CA        13.8070   16.8560  -21.3480 C.3   149  CYS149      0.1677
    123  C         14.5250   16.1130  -20.2110 C.2   149  CYS149      0.2270
    124  O         14.6600   14.8910  -20.2460 O.2   149  CYS149     -0.2867
    125  CB        14.7990   17.6100  -22.2300 C.3   149  CYS149      0.0956
    126  SG        16.0860   16.5650  -22.9720 S.3   149  CYS149     -0.0801
    127  N         13.9630   12.0770  -18.8490 N.3   153  LEU153     -0.1245
    128  CA        15.1480   11.2390  -18.8340 C.3   153  LEU153      0.1561
    129  C         15.2260   10.5130  -17.5070 C.2   153  LEU153      0.2260
    130  O         15.5070    9.3160  -17.5010 O.2   153  LEU153     -0.2867
    131  CB        16.4300   12.0320  -19.1110 C.3   153  LEU153      0.0270
    132  CG        16.7470   12.2740  -20.5910 C.3   153  LEU153      0.0019
    133  CD1       17.6920   13.4520  -20.7710 C.3   153  LEU153      0.0001
    134  CD2       17.3040   11.0220  -21.2540 C.3   153  LEU153      0.0001
    135  N         14.6840    6.3240  -17.1520 N.3   157  CYS157     -0.1235
    136  CA        15.7910    5.6750  -16.4670 C.3   157  CYS157      0.1677
    137  C         15.3200    5.0190  -15.1890 C.2   157  CYS157      0.2270
    138  O         15.8020    3.9380  -14.8670 O.2   157  CYS157     -0.2867
    139  CB        16.9370    6.6490  -16.2180 C.3   157  CYS157      0.0956
    140  SG        17.8860    7.0730  -17.7070 S.3   157  CYS157     -0.0801
@<TRIPOS>BOND
     1   113   112    1
     2   112   111   ar
     3   112   110   ar
     4   111   109   ar
     5   110   108   ar
     6   109   107   ar
     7   108   107   ar
     8   107   106    1
     9    88    86   ar
    10    88    89   ar
    11   106   103    1
    12    86    84   ar
    13    23    21    1
    14    90    89    1
    15    10    11    1
    16     3     4    2
    17     3     2    1
    18    89    87   ar
    19     1     2    1
    20    19    20    2
    21    19    18    1
    22    81    82    2
    23    81    80    1
    24    32    33    1
    25   103   102    1
    26   103   104    1
    27    84    83    1
    28    84    85   ar
    29     2     5    1
    30    21    18    1
    31    21    22    1
    32    17    18    1
    33    17    12   am
    34   102    93   am
    35     5     6    1
    36    83    80    1
    37    11    12    1
    38    11    14    1
    39   104   105    2
    40    91    92    1
    41    87    85   ar
    42    12    13    2
    43    80    79    1
    44    33    34    1
    45    33    36    1
    46    24    25    1
    47     8     7    2
    48    42    43    2
    49    42    41    1
    50    44    45    1
    51    26    27    2
    52    26    25    1
    53    71    70    2
    54    74    75    2
    55    74    73    1
    56    34    40   am
    57    34    35    2
    58    40    41    1
    59    93    92    1
    60    93    94    2
    61    92    95    1
    62     6     7    1
    63    16    14    1
    64    14    15    1
    65     7     9   am
    66    70    69    1
    67    25    28    1
    68    36    37    1
    69    46    45    1
    70    46    47    2
    71    45    48    1
    72    72    73    1
    73    73    76    1
    74    28    29    1
    75    69    68    1
    76    95    96    1
    77    38    37    1
    78    76    77    1
    79    76    78    1
    80    96    98   ar
    81    96    97   ar
    82    37    39    1
    83    98   100   ar
    84    97    99   ar
    85   100   101   ar
    86    48    49    1
    87    99   101   ar
    88    29    31    1
    89    29    30    1
    90    49    51    1
    91    49    50    1
    92    68    62   am
    93    55    54    2
    94    54    53    1
    95    63    62    2
    96    62    61    1
    97   126   125    1
    98    60    61    1
    99   125   122    1
   100    61    64    1
   101    53    56    1
   102    53    52    1
   103    56    57    1
   104   114   120    1
   105   114   115    1
   106   120   119    1
   107   119   118    1
   108   122   121    1
   109   122   123    1
   110   134   132    1
   111   115   118    1
   112   115   116    1
   113    64    65    1
   114   133   132    1
   115   132   131    1
   116    58    57    1
   117    57    59    1
   118   124   123    2
   119   116   117    2
   120    65    66    1
   121   131   128    1
   122   127   128    1
   123   128   129    1
   124    66    67    1
   125   140   139    1
   126   129   130    2
   127   135   136    1
   128   136   139    1
   129   136   137    1
   130   137   138    2
