@<TRIPOS>MOLECULE
tmp/5lx9A07.pdb
 100 100 0 0 0
SMALL
GASTEIGER

@<TRIPOS>ATOM
      1  N         23.5710  -11.3390  -36.3960 N.3    57  LEU57      -0.1245
      2  CA        23.7030  -10.4340  -37.5450 C.3    57  LEU57       0.1561
      3  C         23.2490   -8.9920  -37.2230 C.2    57  LEU57       0.2260
      4  O         23.8640   -8.0430  -37.7120 O.2    57  LEU57      -0.2867
      5  CB        22.9360  -10.9550  -38.7690 C.3    57  LEU57       0.0270
      6  CG        23.4370  -12.2570  -39.4390 C.3    57  LEU57       0.0019
      7  CD1       22.4460  -12.7230  -40.4980 C.3    57  LEU57       0.0001
      8  CD2       24.8510  -12.0990  -40.0440 C.3    57  LEU57       0.0001
      9  N         26.1570   -7.1580  -35.0990 N.3    60  VAL60      -0.1231
     10  CA        27.2770   -6.6820  -35.9230 C.3    60  VAL60       0.1692
     11  C         26.8410   -5.4840  -36.7780 C.2    60  VAL60       0.2592
     12  O         27.6110   -4.5420  -36.9420 O.2    60  VAL60      -0.2718
     13  CB        28.0040   -7.7740  -36.7660 C.3    60  VAL60       0.0266
     14  CG1       28.2050   -9.0680  -35.9810 C.3    60  VAL60       0.0020
     15  CG2       27.2790   -8.0520  -38.0810 C.3    60  VAL60       0.0020
     16  N         25.5980   -5.5290  -37.3040 N.am   61  PHE61      -0.1976
     17  CA        25.0180   -4.4730  -38.1240 C.3    61  PHE61       0.1639
     18  C         24.9560   -3.1460  -37.3730 C.2    61  PHE61       0.2290
     19  O         25.3780   -2.1310  -37.9150 O.2    61  PHE61      -0.2864
     20  CB        23.6390   -4.8770  -38.6640 C.3    61  PHE61       0.0560
     21  CG        22.9040   -3.7480  -39.3310 C.ar   61  PHE61      -0.0200
     22  CD1       23.2760   -3.3050  -40.5960 C.ar   61  PHE61      -0.0042
     23  CD2       21.8520   -3.1080  -38.6890 C.ar   61  PHE61      -0.0042
     24  CE1       22.6030   -2.2470  -41.2090 C.ar   61  PHE61      -0.0003
     25  CE2       21.1810   -2.0400  -39.3020 C.ar   61  PHE61      -0.0003
     26  CZ        21.5570   -1.6230  -40.5590 C.ar   61  PHE61      -0.0000
     27  N         28.4560   -1.7980  -36.7870 N.3    64  CYS64      -0.1221
     28  CA        29.0030   -1.1450  -37.9820 C.3    64  CYS64       0.1808
     29  C         28.3250    0.2040  -38.1880 C.2    64  CYS64       0.2601
     30  O         28.9920    1.1440  -38.6050 O.2    64  CYS64      -0.2717
     31  CB        28.8830   -2.0240  -39.2200 C.3    64  CYS64       0.0970
     32  SG        29.9360   -3.5000  -39.1760 S.3    64  CYS64      -0.0800
     33  N         27.0190    0.3090  -37.8560 N.am   65  LEU65      -0.1979
     34  CA        26.2440    1.5480  -37.9550 C.3    65  LEU65       0.1596
     35  C         26.7140    2.5720  -36.9290 C.2    65  LEU65       0.2287
     36  O         26.7420    3.7620  -37.2280 O.2    65  LEU65      -0.2864
     37  CB        24.7640    1.2370  -37.7170 C.3    65  LEU65       0.0297
     38  CG        23.7780    2.0690  -38.4970 C.3    65  LEU65       0.0022
     39  CD1       23.5440    1.4730  -39.8580 C.3    65  LEU65       0.0001
     40  CD2       22.4710    2.1310  -37.7810 C.3    65  LEU65       0.0001
     41  N         29.8220    2.6200  -35.3620 N.3    67  ILE67      -0.1231
     42  CA        31.1980    3.0340  -35.6490 C.3    67  ILE67       0.1692
     43  C         31.1890    4.0840  -36.7590 C.2    67  ILE67       0.2592
     44  O         31.8610    5.0980  -36.6260 O.2    67  ILE67      -0.2718
     45  CB        32.1630    1.8290  -35.9650 C.3    67  ILE67       0.0266
     46  CG1       32.3300    0.8410  -34.7710 C.3    67  ILE67       0.0019
     47  CG2       33.5480    2.2770  -36.5000 C.3    67  ILE67       0.0020
     48  CD1       32.5080    1.4360  -33.3620 C.3    67  ILE67       0.0001
     49  N         30.4230    3.8440  -37.8380 N.am   68  PHE68      -0.1962
     50  CA        30.3240    4.7380  -38.9910 C.3    68  PHE68       0.1771
     51  C         29.7080    6.0850  -38.6410 C.2    68  PHE68       0.2619
     52  O         30.1190    7.0980  -39.1980 O.2    68  PHE68      -0.2715
     53  CB        29.5620    4.0560  -40.1330 C.3    68  PHE68       0.0574
     54  CG        30.4420    3.2710  -41.0840 C.ar   68  PHE68      -0.0200
     55  CD1       30.9580    2.0300  -40.7210 C.ar   68  PHE68      -0.0042
     56  CD2       30.7480    3.7690  -42.3490 C.ar   68  PHE68      -0.0042
     57  CE1       31.7760    1.3060  -41.5990 C.ar   68  PHE68      -0.0003
     58  CE2       31.5690    3.0480  -43.2270 C.ar   68  PHE68      -0.0003
     59  CZ        32.0750    1.8190  -42.8470 C.ar   68  PHE68      -0.0000
     60  N         28.7400    6.0940  -37.7060 N.am   69  TYR69      -0.1974
     61  CA        28.0500    7.2920  -37.2350 C.3    69  TYR69       0.1639
     62  C         29.0220    8.1540  -36.4370 C.2    69  TYR69       0.2290
     63  O         29.0440    9.3740  -36.5720 O.2    69  TYR69      -0.2864
     64  CB        26.8310    6.9200  -36.3570 C.3    69  TYR69       0.0560
     65  CG        25.8380    8.0490  -36.2370 C.ar   69  TYR69      -0.0198
     66  CD1       26.0050    9.0450  -35.2670 C.ar   69  TYR69      -0.0009
     67  CD2       24.7740    8.1700  -37.1100 C.ar   69  TYR69      -0.0009
     68  CE1       25.1400   10.1360  -35.2000 C.ar   69  TYR69       0.0417
     69  CE2       23.8730    9.2250  -37.0200 C.ar   69  TYR69       0.0417
     70  CZ        24.0780   10.2250  -36.0830 C.ar   69  TYR69       0.1957
     71  OH        23.1990   11.2790  -36.0130 O.3    69  TYR69      -0.2866
     72  N         32.2110    8.4420  -36.8580 N.3    71  PHE71      -0.1227
     73  CA        33.1880    9.0520  -37.7640 C.3    71  PHE71       0.1736
     74  C         32.5940    9.9710  -38.8300 C.2    71  PHE71       0.2595
     75  O         33.3200   10.4030  -39.7360 O.2    71  PHE71      -0.2718
     76  CB        34.0750    7.9730  -38.4030 C.3    71  PHE71       0.0547
     77  CG        35.0690    7.4060  -37.4190 C.ar   71  PHE71      -0.0202
     78  CD1       34.7450    6.3080  -36.6330 C.ar   71  PHE71      -0.0042
     79  CD2       36.3190    7.9920  -37.2540 C.ar   71  PHE71      -0.0042
     80  CE1       35.6560    5.7980  -35.7100 C.ar   71  PHE71      -0.0003
     81  CE2       37.2280    7.4920  -36.3190 C.ar   71  PHE71      -0.0003
     82  CZ        36.8970    6.3880  -35.5610 C.ar   71  PHE71      -0.0000
     83  N         31.2980   10.3230  -38.7000 N.am   72  ARG72      -0.1966
     84  CA        30.6440   11.2480  -39.6350 C.3    72  ARG72       0.1714
     85  C         31.2810   12.6400  -39.4710 C.2    72  ARG72       0.2458
     86  O         31.7420   12.9430  -38.3720 O.2    72  ARG72      -0.2730
     87  CB        29.1380   11.3360  -39.3610 C.3    72  ARG72       0.0347
     88  CG        28.4150   10.0250  -39.5690 C.3    72  ARG72       0.0492
     89  CD        27.2630   10.1060  -40.5210 C.3    72  ARG72       0.2205
     90  NE        26.1220   10.8300  -39.9680 N.pl3  72  ARG72      -0.0865
     91  CZ        24.8840   10.3540  -39.9160 C.cat  72  ARG72       0.5346
     92  NH1       23.9040   11.0980  -39.4300 N.pl3  72  ARG72       0.1354
     93  NH2       24.6140    9.1240  -40.3420 N.pl3  72  ARG72       0.1354
     94  N         31.3110   13.4910  -40.5430 N.am   73  PRO73      -0.2727
     95  CA        31.9020   14.8310  -40.3980 C.3    73  PRO73       0.1402
     96  C         31.2250   15.6700  -39.3330 C.2    73  PRO73       0.2269
     97  O         30.0050   15.6740  -39.2200 O.2    73  PRO73      -0.2865
     98  CB        31.7310   15.4500  -41.7920 C.3    73  PRO73       0.0296
     99  CG        31.6170   14.2940  -42.7050 C.3    73  PRO73       0.0237
    100  CD        30.8150   13.2940  -41.9260 C.3    73  PRO73       0.0939
@<TRIPOS>BOND
     1    58    59   ar
     2    58    56   ar
     3    59    57   ar
     4    99   100    1
     5    99    98    1
     6    56    54   ar
     7   100    94    1
     8    98    95    1
     9    57    55   ar
    10    24    22   ar
    11    24    26   ar
    12    54    55   ar
    13    54    53    1
    14    22    21   ar
    15    26    25   ar
    16    94    95    1
    17    94    85   am
    18    89    90    1
    19    89    88    1
    20     7     6    1
    21    95    96    1
    22    93    91    1
    23    53    50    1
    24     8     6    1
    25    90    91    2
    26    91    92    1
    27    39    38    1
    28    75    74    2
    29    84    85    1
    30    84    87    1
    31    84    83    1
    32    88    87    1
    33    85    86    2
    34     6     5    1
    35    96    97    2
    36    21    23   ar
    37    21    20    1
    38    25    23   ar
    39    31    32    1
    40    31    28    1
    41    52    51    2
    42    50    51    1
    43    50    49    1
    44    74    83   am
    45    74    73    1
    46     5     2    1
    47    20    17    1
    48    51    60   am
    49    30    29    2
    50    38    40    1
    51    38    37    1
    52    76    73    1
    53    76    77    1
    54    29    28    1
    55    29    33   am
    56    17    18    1
    57    17    16    1
    58    15    13    1
    59    28    27    1
    60    34    33    1
    61    34    37    1
    62    34    35    1
    63    19    18    2
    64    49    43   am
    65    73    72    1
    66     4     3    2
    67    60    61    1
    68     2     3    1
    69     2     1    1
    70    77    79   ar
    71    77    78   ar
    72    16    11   am
    73    79    81   ar
    74    61    62    1
    75    61    64    1
    76    36    35    2
    77    67    69   ar
    78    67    65   ar
    79    69    70   ar
    80    12    11    2
    81    11    10    1
    82    13    14    1
    83    13    10    1
    84    43    44    2
    85    43    42    1
    86    78    80   ar
    87    63    62    2
    88    47    45    1
    89    64    65    1
    90    81    82   ar
    91    65    66   ar
    92    70    71    1
    93    70    68   ar
    94    45    42    1
    95    45    46    1
    96    10     9    1
    97    80    82   ar
    98    42    41    1
    99    66    68   ar
   100    46    48    1
