@<TRIPOS>MOLECULE
tmp/5lx9A11.pdb
 95 88 0 0 0
SMALL
GASTEIGER

@<TRIPOS>ATOM
      1  N         12.0730    3.9720  -14.6400 N.3   159  LEU159     -0.1245
      2  CA        11.1920    2.8950  -15.0880 C.3   159  LEU159      0.1561
      3  C         12.0120    1.7210  -15.6450 C.2   159  LEU159      0.2260
      4  O         11.6490    0.5640  -15.4180 O.2   159  LEU159     -0.2867
      5  CB        10.2070    3.3870  -16.1560 C.3   159  LEU159      0.0270
      6  CG         8.9830    4.1990  -15.7250 C.3   159  LEU159      0.0019
      7  CD1        8.2560    4.7110  -16.9400 C.3   159  LEU159      0.0001
      8  CD2        8.0170    3.3660  -14.8860 C.3   159  LEU159      0.0001
      9  N         13.7150   -0.2080  -12.7820 N.3   162  ALA162     -0.1231
     10  CA        12.7000   -1.0600  -12.1440 C.3   162  ALA162      0.1694
     11  C         12.4290   -2.3390  -12.9740 C.2   162  ALA162      0.2591
     12  O         12.2500   -3.4060  -12.3940 O.2   162  ALA162     -0.2718
     13  CB        11.4090   -0.2850  -11.9480 C.3   162  ALA162      0.0304
     14  N         12.4200   -2.2320  -14.3180 N.am  163  ALA163     -0.1980
     15  CA        12.2340   -3.3710  -15.2030 C.3   163  ALA163      0.1597
     16  C         13.4590   -4.3070  -15.0800 C.2   163  ALA163      0.2287
     17  O         13.2800   -5.5220  -14.9960 O.2   163  ALA163     -0.2864
     18  CB        12.0560   -2.9000  -16.6390 C.3   163  ALA163      0.0319
     19  N         13.1020   -6.1700  -11.7220 N.3   166  VAL166     -0.1245
     20  CA        12.0480   -7.1770  -11.8510 C.3   166  VAL166      0.1561
     21  C         12.5390   -8.3890  -12.7000 C.2   166  VAL166      0.2260
     22  O         12.1910   -9.5350  -12.4000 O.2   166  VAL166     -0.2867
     23  CB        10.7380   -6.5060  -12.3420 C.3   166  VAL166      0.0252
     24  CG1       10.0560   -7.2760  -13.4610 C.3   166  VAL166      0.0019
     25  CG2        9.7860   -6.2960  -11.1770 C.3   166  VAL166      0.0019
     26  N         14.1660  -11.4300  -10.6820 N.3   169  TRP169     -0.1241
     27  CA        13.2160  -12.2860   -9.9780 C.3   169  TRP169      0.1605
     28  C         13.0210  -13.5520  -10.8060 C.2   169  TRP169      0.2264
     29  O         12.6730  -13.4700  -11.9860 O.2   169  TRP169     -0.2867
     30  CB        11.9020  -11.5050   -9.7970 C.3   169  TRP169      0.0550
     31  CG        10.7830  -12.2150   -9.0920 C.ar  169  TRP169      0.0003
     32  CD1       10.8820  -13.0610   -8.0230 C.ar  169  TRP169      0.0946
     33  CD2        9.3790  -12.0290   -9.3340 C.ar  169  TRP169      0.0152
     34  NE1        9.6260  -13.4660   -7.6240 N.ar  169  TRP169     -0.2442
     35  CE2        8.6850  -12.8280   -8.3920 C.ar  169  TRP169      0.0810
     36  CE3        8.6390  -11.2750  -10.2600 C.ar  169  TRP169      0.0012
     37  CZ2        7.2890  -12.9040   -8.3660 C.ar  169  TRP169      0.0191
     38  CZ3        7.2580  -11.3490  -10.2280 C.ar  169  TRP169      0.0001
     39  CH2        6.5990  -12.1800   -9.3080 C.ar  169  TRP169      0.0015
     40  N         10.7460  -15.9210  -10.7660 N.3   171  MET171     -0.1245
     41  CA         9.3820  -16.2010  -11.2200 C.3   171  MET171      0.1570
     42  C          9.1190  -15.5850  -12.5890 C.2   171  MET171      0.2261
     43  O          8.3990  -16.1770  -13.3960 O.2   171  MET171     -0.2867
     44  CB         8.3530  -15.6520  -10.2310 C.3   171  MET171      0.0387
     45  CG         7.9420  -16.6330   -9.1800 C.3   171  MET171      0.0595
     46  SD         6.6610  -17.7530   -9.7900 S.3   171  MET171     -0.1393
     47  CE         7.0590  -19.2110   -8.8260 C.3   171  MET171      0.0692
     48  N          4.6380  -16.5330  -16.6790 N.3   177  TYR177     -0.1241
     49  CA         4.8720  -15.0870  -16.6380 C.3   177  TYR177      0.1605
     50  C          5.1630  -14.4310  -18.0090 C.2   177  TYR177      0.2264
     51  O          5.4290  -13.2340  -18.0610 O.2   177  TYR177     -0.2867
     52  CB         5.9870  -14.7810  -15.6310 C.3   177  TYR177      0.0534
     53  CG         5.4690  -14.6160  -14.2200 C.ar  177  TYR177     -0.0201
     54  CD1        4.9930  -15.7120  -13.4990 C.ar  177  TYR177     -0.0009
     55  CD2        5.4500  -13.3720  -13.6020 C.ar  177  TYR177     -0.0009
     56  CE1        4.5070  -15.5660  -12.2000 C.ar  177  TYR177      0.0417
     57  CE2        4.9760  -13.2170  -12.3000 C.ar  177  TYR177      0.0417
     58  CZ         4.5060  -14.3190  -11.6040 C.ar  177  TYR177      0.1957
     59  OH         4.0360  -14.1820  -10.3230 O.3   177  TYR177     -0.2866
     60  N          3.2490  -11.4080  -18.5230 N.3   180  VAL180     -0.1245
     61  CA         3.7280  -10.3720  -17.5790 C.3   180  VAL180      0.1561
     62  C          4.9510   -9.6490  -18.2130 C.2   180  VAL180      0.2260
     63  O          5.0160   -8.4200  -18.2220 O.2   180  VAL180     -0.2867
     64  CB         4.0590  -10.9380  -16.1680 C.3   180  VAL180      0.0252
     65  CG1        4.6100   -9.8540  -15.2410 C.3   180  VAL180      0.0019
     66  CG2        2.8370  -11.5980  -15.5450 C.3   180  VAL180      0.0019
     67  N          3.8970   -7.3950  -20.9650 N.3   183  GLY183     -0.1210
     68  CA         3.2840   -6.2240  -20.3420 C.3   183  GLY183      0.1956
     69  C          4.2800   -5.2260  -19.7810 C.2   183  GLY183      0.2611
     70  O          4.1140   -4.0190  -19.9950 O.2   183  GLY183     -0.2717
     71  N          5.3190   -5.7150  -19.0860 N.am  184  VAL184     -0.1979
     72  CA         6.3610   -4.8740  -18.4690 C.3   184  VAL184      0.1595
     73  C          7.1370   -4.1060  -19.5230 C.2   184  VAL184      0.2287
     74  O          7.2790   -2.8800  -19.4160 O.2   184  VAL184     -0.2864
     75  CB         7.3070   -5.6770  -17.5320 C.3   184  VAL184      0.0276
     76  CG1        8.5220   -4.8390  -17.1290 C.3   184  VAL184      0.0022
     77  CG2        6.5690   -6.1760  -16.2940 C.3   184  VAL184      0.0022
     78  N          4.8880   -1.7470  -21.6050 N.3   187  GLY187     -0.1210
     79  CA         4.5810   -0.5750  -20.8010 C.3   187  GLY187      0.1956
     80  C          5.7130    0.4270  -20.8710 C.2   187  GLY187      0.2611
     81  O          5.4770    1.6350  -20.9830 O.2   187  GLY187     -0.2717
     82  N          6.9420   -0.0730  -20.8030 N.am  188  LEU188     -0.1979
     83  CA         8.1520    0.7420  -20.8200 C.3   188  LEU188      0.1596
     84  C          8.2970    1.5380  -22.1210 C.2   188  LEU188      0.2287
     85  O          8.6490    2.7140  -22.0760 O.2   188  LEU188     -0.2864
     86  CB         9.3530   -0.1810  -20.5480 C.3   188  LEU188      0.0297
     87  CG        10.6960    0.4580  -20.2370 C.3   188  LEU188      0.0022
     88  CD1       10.6910    1.1380  -18.8720 C.3   188  LEU188      0.0001
     89  CD2       11.7710   -0.5720  -20.2830 C.3   188  LEU188      0.0001
     90  N          5.3600    3.9990  -22.3980 N.3   191  SER191     -0.1217
     91  CA         5.4260    5.1320  -21.4610 C.3   191  SER191      0.1889
     92  C          5.8690    6.4110  -22.1940 C.2   191  SER191      0.2288
     93  O          5.6700    7.5020  -21.6680 O.2   191  SER191     -0.2866
     94  CB         6.3460    4.8140  -20.2760 C.3   191  SER191      0.2089
     95  OG         7.7100    4.8230  -20.6750 O.3   191  SER191     -0.2183
@<TRIPOS>BOND
     1    90    91    1
     2    92    93    2
     3    92    91    1
     4    84    85    2
     5    84    83    1
     6    78    79    1
     7    91    94    1
     8    81    80    2
     9    67    68    1
    10    80    82   am
    11    80    79    1
    12    83    82    1
    13    83    86    1
    14    95    94    1
    15    86    87    1
    16    68    69    1
    17    89    87    1
    18    87    88    1
    19    70    69    2
    20    69    71   am
    21    73    74    2
    22    73    72    1
    23    71    72    1
    24    60    61    1
    25    72    75    1
    26    63    62    2
    27    62    61    1
    28    51    50    2
    29    50    49    1
    30    61    64    1
    31    75    76    1
    32    75    77    1
    33     7     6    1
    34    48    49    1
    35    18    15    1
    36    49    52    1
    37    64    66    1
    38    64    65    1
    39     5     6    1
    40     5     2    1
    41     6     8    1
    42     3     4    2
    43     3     2    1
    44    52    53    1
    45    15    16    1
    46    15    14    1
    47     2     1    1
    48    16    17    2
    49    14    11   am
    50    53    55   ar
    51    53    54   ar
    52    55    57   ar
    53    54    56   ar
    54    24    23    1
    55    43    42    2
    56    11    12    2
    57    11    10    1
    58     9    10    1
    59    21    22    2
    60    21    20    1
    61    42    41    1
    62    23    20    1
    63    23    25    1
    64    57    58   ar
    65    56    58   ar
    66    10    13    1
    67    29    28    2
    68    20    19    1
    69    58    59    1
    70    41    40    1
    71    41    44    1
    72    28    27    1
    73    26    27    1
    74    36    38   ar
    75    36    33   ar
    76    44    45    1
    77    38    39   ar
    78    27    30    1
    79    30    31    1
    80    46    45    1
    81    46    47    1
    82    33    31   ar
    83    33    35   ar
    84    39    37   ar
    85    31    32   ar
    86    35    37   ar
    87    35    34   ar
    88    32    34   ar
