@<TRIPOS>MOLECULE
tmp/5lx9A06.pdb
 113 109 0 0 0
SMALL
GASTEIGER

@<TRIPOS>ATOM
      1  N         26.7110   -2.3840  -34.7210 N.3    63  LEU63      -0.1245
      2  CA        28.0790   -2.0920  -34.3480 C.3    63  LEU63       0.1561
      3  C         28.7790   -1.4030  -35.5310 C.2    63  LEU63       0.2260
      4  O         29.5520   -0.4730  -35.3010 O.2    63  LEU63      -0.2867
      5  CB        28.7840   -3.3830  -33.9160 C.3    63  LEU63       0.0270
      6  CG        30.2370   -3.3040  -33.4610 C.3    63  LEU63       0.0019
      7  CD1       30.4070   -2.4140  -32.2170 C.3    63  LEU63       0.0001
      8  CD2       30.7710   -4.6890  -33.2090 C.3    63  LEU63       0.0001
      9  N         27.0370    2.0930  -35.7260 N.3    66  GLY66      -0.1210
     10  CA        27.5040    2.8920  -34.6010 C.3    66  GLY66       0.1956
     11  C         28.9020    3.4380  -34.8000 C.2    66  GLY66       0.2611
     12  O         29.1580    4.5880  -34.4380 O.2    66  GLY66      -0.2717
     13  N         29.8220    2.6200  -35.3620 N.am   67  ILE67      -0.1979
     14  CA        31.1980    3.0340  -35.6490 C.3    67  ILE67       0.1595
     15  C         31.1890    4.0840  -36.7590 C.2    67  ILE67       0.2287
     16  O         31.8610    5.0980  -36.6260 O.2    67  ILE67      -0.2864
     17  CB        32.1630    1.8290  -35.9650 C.3    67  ILE67       0.0276
     18  CG1       32.3300    0.8410  -34.7710 C.3    67  ILE67       0.0022
     19  CG2       33.5480    2.2770  -36.5000 C.3    67  ILE67       0.0022
     20  CD1       32.5080    1.4360  -33.3620 C.3    67  ILE67       0.0001
     21  N         29.8400    7.4960  -35.6170 N.3    70  MET70      -0.1230
     22  CA        30.8620    8.1220  -34.7940 C.3    70  MET70       0.1702
     23  C         31.9120    8.9060  -35.6330 C.2    70  MET70       0.2592
     24  O         32.3930    9.9320  -35.1780 O.2    70  MET70      -0.2718
     25  CB        31.5460    7.0430  -33.9680 C.3    70  MET70       0.0401
     26  CG        31.3810    7.2150  -32.4940 C.3    70  MET70       0.0596
     27  SD        33.0020    7.0920  -31.6970 S.3    70  MET70      -0.1393
     28  CE        33.6600    5.5460  -32.4570 C.3    70  MET70       0.0692
     29  N         32.2110    8.4420  -36.8580 N.am   71  PHE71      -0.1962
     30  CA        33.1880    9.0520  -37.7640 C.3    71  PHE71       0.1771
     31  C         32.5940    9.9710  -38.8300 C.2    71  PHE71       0.2619
     32  O         33.3200   10.4030  -39.7360 O.2    71  PHE71      -0.2715
     33  CB        34.0750    7.9730  -38.4030 C.3    71  PHE71       0.0574
     34  CG        35.0690    7.4060  -37.4190 C.ar   71  PHE71      -0.0200
     35  CD1       34.7450    6.3080  -36.6330 C.ar   71  PHE71      -0.0042
     36  CD2       36.3190    7.9920  -37.2540 C.ar   71  PHE71      -0.0042
     37  CE1       35.6560    5.7980  -35.7100 C.ar   71  PHE71      -0.0003
     38  CE2       37.2280    7.4920  -36.3190 C.ar   71  PHE71      -0.0003
     39  CZ        36.8970    6.3880  -35.5610 C.ar   71  PHE71      -0.0000
     40  N         31.2980   10.3230  -38.7000 N.am   72  ARG72      -0.1964
     41  CA        30.6440   11.2480  -39.6350 C.3    72  ARG72       0.1714
     42  C         31.2810   12.6400  -39.4710 C.2    72  ARG72       0.2458
     43  O         31.7420   12.9430  -38.3720 O.2    72  ARG72      -0.2730
     44  CB        29.1380   11.3360  -39.3610 C.3    72  ARG72       0.0347
     45  CG        28.4150   10.0250  -39.5690 C.3    72  ARG72       0.0492
     46  CD        27.2630   10.1060  -40.5210 C.3    72  ARG72       0.2205
     47  NE        26.1220   10.8300  -39.9680 N.pl3  72  ARG72      -0.0865
     48  CZ        24.8840   10.3540  -39.9160 C.cat  72  ARG72       0.5346
     49  NH1       23.9040   11.0980  -39.4300 N.pl3  72  ARG72       0.1354
     50  NH2       24.6140    9.1240  -40.3420 N.pl3  72  ARG72       0.1354
     51  N         31.3110   13.4910  -40.5430 N.am   73  PRO73      -0.2716
     52  CA        31.9020   14.8310  -40.3980 C.3    73  PRO73       0.1536
     53  C         31.2250   15.6700  -39.3330 C.2    73  PRO73       0.2599
     54  O         30.0050   15.6740  -39.2200 O.2    73  PRO73      -0.2715
     55  CB        31.7310   15.4500  -41.7920 C.3    73  PRO73       0.0310
     56  CG        31.6170   14.2940  -42.7050 C.3    73  PRO73       0.0237
     57  CD        30.8150   13.2940  -41.9260 C.3    73  PRO73       0.0939
     58  N         32.0380   16.3570  -38.5330 N.am   74  ASN74      -0.1959
     59  CA        31.5880   17.2320  -37.4620 C.3    74  ASN74       0.1819
     60  C         30.7960   18.4400  -37.9590 C.2    74  ASN74       0.2621
     61  O         29.9950   18.9770  -37.1980 O.2    74  ASN74      -0.2715
     62  CB        32.7670   17.6770  -36.6090 C.3    74  ASN74       0.1195
     63  CG        33.3460   16.5550  -35.7710 C.2    74  ASN74       0.2630
     64  OD1       32.7000   15.5590  -35.4480 O.2    74  ASN74      -0.2716
     65  ND2       34.5880   16.7040  -35.4110 N.am   74  ASN74      -0.0877
     66  N         30.9910   18.8450  -39.2350 N.am   75  ILE75      -0.1977
     67  CA        30.2580   19.9590  -39.8490 C.3    75  ILE75       0.1596
     68  C         28.7560   19.6780  -39.9820 C.2    75  ILE75       0.2287
     69  O         27.9560   20.6070  -39.8930 O.2    75  ILE75      -0.2864
     70  CB        30.8660   20.4280  -41.2020 C.3    75  ILE75       0.0276
     71  CG1       31.1590   19.2470  -42.1650 C.3    75  ILE75       0.0022
     72  CG2       32.0980   21.3020  -40.9800 C.3    75  ILE75       0.0022
     73  CD1       30.0280   18.9540  -43.1720 C.3    75  ILE75       0.0001
     74  N         26.7020   13.0760  -30.8840 N.3    84  LYS84      -0.1245
     75  CA        27.3360   11.7640  -30.9720 C.3    84  LYS84       0.1561
     76  C         27.2020   11.0150  -29.6550 C.2    84  LYS84       0.2260
     77  O         26.9970    9.7970  -29.6790 O.2    84  LYS84      -0.2867
     78  CB        28.7830   11.8480  -31.4560 C.3    84  LYS84       0.0271
     79  CG        28.8690   12.0460  -32.9650 C.3    84  LYS84       0.0035
     80  CD        30.2930   12.1300  -33.4630 C.3    84  LYS84       0.0206
     81  CE        30.3240   12.5170  -34.9200 C.3    84  LYS84       0.1093
     82  NZ        31.7200   12.6500  -35.4400 N.3    84  LYS84      -0.1314
     83  N         25.2820    7.6630  -29.4020 N.3    88  GLY88      -0.1225
     84  CA        26.1860    6.6650  -28.8370 C.3    88  GLY88       0.1811
     85  C         25.4920    5.8470  -27.7760 C.2    88  GLY88       0.2280
     86  O         25.6560    4.6400  -27.7400 O.2    88  GLY88      -0.2866
     87  N         22.9700    3.4640  -29.6740 N.3    91  PHE91      -0.1227
     88  CA        23.7460    2.3620  -30.2600 C.3    91  PHE91       0.1736
     89  C         24.2500    1.3910  -29.1980 C.2    91  PHE91       0.2595
     90  O         24.1440    0.1770  -29.3810 O.2    91  PHE91      -0.2718
     91  CB        24.9360    2.8920  -31.0450 C.3    91  PHE91       0.0547
     92  CG        24.5360    3.5010  -32.3530 C.ar   91  PHE91      -0.0202
     93  CD1       23.9380    2.7250  -33.3460 C.ar   91  PHE91      -0.0042
     94  CD2       24.7800    4.8460  -32.6160 C.ar   91  PHE91      -0.0042
     95  CE1       23.5630    3.2970  -34.5650 C.ar   91  PHE91      -0.0003
     96  CE2       24.4000    5.4180  -33.8350 C.ar   91  PHE91      -0.0003
     97  CZ        23.7910    4.6400  -34.7970 C.ar   91  PHE91      -0.0000
     98  N         24.7530    1.9250  -28.0710 N.am   92  LEU92      -0.1980
     99  CA        25.1940    1.1260  -26.9460 C.3    92  LEU92       0.1596
    100  C         24.0540    0.2460  -26.4240 C.2    92  LEU92       0.2287
    101  O         24.2590   -0.9470  -26.1960 O.2    92  LEU92      -0.2864
    102  CB        25.7200    2.0440  -25.8350 C.3    92  LEU92       0.0297
    103  CG        26.1500    1.3720  -24.5380 C.3    92  LEU92       0.0022
    104  CD1       27.4070    0.5200  -24.7380 C.3    92  LEU92       0.0001
    105  CD2       26.3990    2.3900  -23.4780 C.3    92  LEU92       0.0001
    106  N         23.2480   -2.4990  -29.1110 N.3    95  ILE95      -0.1245
    107  CA        24.3310   -3.4970  -29.1560 C.3    95  ILE95       0.1561
    108  C         24.3260   -4.3920  -27.9240 C.2    95  ILE95       0.2260
    109  O         24.4710   -5.6020  -28.0880 O.2    95  ILE95      -0.2867
    110  CB        25.7000   -2.8310  -29.4080 C.3    95  ILE95       0.0252
    111  CG1       25.7170   -2.1400  -30.7780 C.3    95  ILE95       0.0019
    112  CG2       26.8570   -3.8430  -29.2930 C.3    95  ILE95       0.0019
    113  CD1       26.7630   -0.9810  -30.9060 C.3    95  ILE95       0.0001
@<TRIPOS>BOND
     1    73    71    1
     2    56    57    1
     3    56    55    1
     4    71    70    1
     5    57    51    1
     6    55    52    1
     7    70    72    1
     8    70    67    1
     9    51    52    1
    10    51    42   am
    11    46    47    1
    12    46    45    1
    13    52    53    1
    14    50    48    1
    15    68    69    2
    16    68    67    1
    17    47    48    2
    18    48    49    1
    19    67    66    1
    20    32    31    2
    21    41    42    1
    22    41    44    1
    23    41    40    1
    24    45    44    1
    25    42    43    2
    26    53    54    2
    27    53    58   am
    28    66    60   am
    29    31    40   am
    30    31    30    1
    31    58    59    1
    32    33    30    1
    33    33    34    1
    34    60    59    1
    35    60    61    2
    36    30    29    1
    37    59    62    1
    38    34    36   ar
    39    34    35   ar
    40    36    38   ar
    41    29    23   am
    42    15    16    2
    43    15    14    1
    44    35    37   ar
    45    62    63    1
    46    19    17    1
    47    38    39   ar
    48    17    14    1
    49    17    18    1
    50    63    64    2
    51    63    65   am
    52     9    10    1
    53    37    39   ar
    54    14    13    1
    55    23    24    2
    56    23    22    1
    57    21    22    1
    58     3     4    2
    59     3     2    1
    60    82    81    1
    61    13    11   am
    62    81    80    1
    63    11    10    1
    64    11    12    2
    65    97    95   ar
    66    97    96   ar
    67    22    25    1
    68    18    20    1
    69     1     2    1
    70    95    93   ar
    71     2     5    1
    72    25    26    1
    73     5     6    1
    74    96    94   ar
    75    80    79    1
    76     6     8    1
    77     6     7    1
    78    93    92   ar
    79    79    78    1
    80    94    92   ar
    81    26    27    1
    82    28    27    1
    83    92    91    1
    84    78    75    1
    85    91    88    1
    86    75    74    1
    87    75    76    1
    88   113   111    1
    89   111   110    1
    90    88    87    1
    91    88    89    1
    92    77    76    2
    93   110   112    1
    94   110   107    1
    95    83    84    1
    96    90    89    2
    97    89    98   am
    98   107   106    1
    99   107   108    1
   100    84    85    1
   101   109   108    2
   102    98    99    1
   103    85    86    2
   104    99   100    1
   105    99   102    1
   106   100   101    2
   107   102   103    1
   108   104   103    1
   109   103   105    1
