@<TRIPOS>MOLECULE
tmp/5lxiA01.pdb
 80 79 0 0 0
SMALL
GASTEIGER

@<TRIPOS>ATOM
      1  N          3.9120   11.1430    6.8440 N.3    57  VAL57      -0.1231
      2  CA         4.4230    9.7830    6.6560 C.3    57  VAL57       0.1692
      3  C          3.9170    9.2050    5.3540 C.2    57  VAL57       0.2592
      4  O          4.6760    8.5690    4.5860 O.2    57  VAL57      -0.2718
      5  CB         3.9810    8.9050    7.8330 C.3    57  VAL57       0.0266
      6  CG1        4.3670    7.4540    7.5730 C.3    57  VAL57       0.0020
      7  CG2        4.6130    9.4510    9.1000 C.3    57  VAL57       0.0020
      8  N          2.6550    9.4510    5.0340 N.am   58  GLY58      -0.1957
      9  CA         2.0990    9.0110    3.7660 C.3    58  GLY58       0.1869
     10  C          2.8460    9.5580    2.5640 C.2    58  GLY58       0.2309
     11  O          3.1860    8.8090    1.6420 O.2    58  GLY58      -0.2863
     12  N          6.2260    7.9790    2.3040 N.3    61  TYR61      -0.1241
     13  CA         6.0350    6.6570    1.7710 C.3    61  TYR61       0.1605
     14  C          6.0350    6.6610    0.2370 C.2    61  TYR61       0.2264
     15  O          6.7370    5.8460   -0.3950 O.2    61  TYR61      -0.2867
     16  CB         4.7500    6.0950    2.4170 C.3    61  TYR61       0.0534
     17  CG         4.2760    4.7980    1.8390 C.ar   61  TYR61      -0.0201
     18  CD1        4.8530    3.5560    2.2110 C.ar   61  TYR61      -0.0009
     19  CD2        3.2840    4.7990    0.8810 C.ar   61  TYR61      -0.0009
     20  CE1        4.4080    2.3770    1.6080 C.ar   61  TYR61       0.0417
     21  CE2        2.8250    3.6310    0.2900 C.ar   61  TYR61       0.0417
     22  CZ         3.3930    2.4270    0.6650 C.ar   61  TYR61       0.1957
     23  OH         2.9260    1.2900    0.0300 O.3    61  TYR61      -0.2866
     24  N          3.2850   -4.3510   -3.0940 N.3    75  ALA75      -0.1231
     25  CA         2.9790   -3.7930   -1.7820 C.3    75  ALA75       0.1694
     26  C          4.2250   -3.2450   -1.0840 C.2    75  ALA75       0.2592
     27  O          5.3420   -3.7260   -1.2680 O.2    75  ALA75      -0.2718
     28  CB         2.3500   -4.8680   -0.8870 C.3    75  ALA75       0.0304
     29  N          4.0330   -2.2520   -0.2140 N.am   76  LEU76      -0.1966
     30  CA         5.1250   -1.8010    0.6210 C.3    76  LEU76       0.1728
     31  C          4.5180   -1.3070    1.9360 C.2    76  LEU76       0.2616
     32  O          3.4970   -0.5880    1.9490 O.2    76  LEU76      -0.2715
     33  CB         5.9490   -0.6730   -0.0160 C.3    76  LEU76       0.0311
     34  CG         7.3280   -0.4040    0.6240 C.3    76  LEU76       0.0022
     35  CD1        8.3080   -1.5590    0.3340 C.3    76  LEU76       0.0001
     36  CD2        7.8950    0.9510    0.1460 C.3    76  LEU76       0.0001
     37  N          5.2060   -1.6180    3.0070 N.am   77  PHE77      -0.1960
     38  CA         4.8220   -1.1700    4.3580 C.3    77  PHE77       0.1771
     39  C          6.0550   -0.6180    5.0710 C.2    77  PHE77       0.2619
     40  O          7.1610   -1.0950    4.8610 O.2    77  PHE77      -0.2715
     41  CB         4.3120   -2.3770    5.1860 C.3    77  PHE77       0.0574
     42  CG         3.0660   -3.0160    4.6320 C.ar   77  PHE77      -0.0200
     43  CD1        1.7980   -2.5940    5.0810 C.ar   77  PHE77      -0.0042
     44  CD2        3.1230   -4.0460    3.7030 C.ar   77  PHE77      -0.0042
     45  CE1        0.6540   -3.1580    4.5830 C.ar   77  PHE77      -0.0003
     46  CE2        1.9570   -4.6540    3.2150 C.ar   77  PHE77      -0.0003
     47  CZ         0.7020   -4.1990    3.6490 C.ar   77  PHE77      -0.0000
     48  N          5.8830    0.3820    5.9310 N.am   78  PHE78      -0.1974
     49  CA         6.9230    0.8770    6.8190 C.3    78  PHE78       0.1639
     50  C          6.7630    0.3170    8.2340 C.2    78  PHE78       0.2290
     51  O          5.6370    0.0840    8.6930 O.2    78  PHE78      -0.2864
     52  CB         6.8100    2.3970    6.9770 C.3    78  PHE78       0.0560
     53  CG         7.3790    3.2160    5.8220 C.ar   78  PHE78      -0.0200
     54  CD1        8.1890    2.6770    4.8220 C.ar   78  PHE78      -0.0042
     55  CD2        7.0520    4.5610    5.7710 C.ar   78  PHE78      -0.0042
     56  CE1        8.6970    3.5290    3.7930 C.ar   78  PHE78      -0.0003
     57  CE2        7.5650    5.3910    4.7470 C.ar   78  PHE78      -0.0003
     58  CZ         8.3620    4.8440    3.7660 C.ar   78  PHE78      -0.0000
     59  N          3.7210   -0.3480   12.3460 N.3    84  ILE84      -0.1231
     60  CA         3.4030    0.3430   11.1090 C.3    84  ILE84       0.1678
     61  C          2.8200    1.7060   11.4460 C.2    84  ILE84       0.2434
     62  O          1.7830    1.7930   12.1390 O.2    84  ILE84      -0.2733
     63  CB         2.4310   -0.4410   10.2350 C.3    84  ILE84       0.0265
     64  CG1        3.0340   -1.8120    9.8850 C.3    84  ILE84       0.0019
     65  CG2        2.2740    0.3500    8.9310 C.3    84  ILE84       0.0020
     66  CD1        2.0360   -2.6990    9.2120 C.3    84  ILE84       0.0001
     67  N          3.4650    2.7960   11.0470 N.am   85  PRO85      -0.2729
     68  CA         3.0230    4.1370   11.4830 C.3    85  PRO85       0.1401
     69  C          1.7950    4.6130   10.7230 C.2    85  PRO85       0.2269
     70  O          1.5180    4.1510    9.6080 O.2    85  PRO85      -0.2865
     71  CB         4.2400    5.0110   11.1500 C.3    85  PRO85       0.0296
     72  CG         4.7950    4.3850    9.9060 C.3    85  PRO85       0.0237
     73  CD         4.6610    2.8620   10.1640 C.3    85  PRO85       0.0939
     74  N         -0.4240    7.0480    8.3460 N.3    87  THR87      -0.1218
     75  CA        -0.0270    7.8620    7.1990 C.3    87  THR87       0.1862
     76  C         -0.2510    9.3370    7.4310 C.2    87  THR87       0.2287
     77  O          0.4140   10.1420    6.7960 O.2    87  THR87      -0.2866
     78  CB        -0.7660    7.4720    5.9130 C.3    87  THR87       0.1770
     79  OG1       -2.1890    7.6680    6.0680 O.3    87  THR87      -0.2211
     80  CG2       -0.4770    6.0390    5.5730 C.3    87  THR87       0.0375
@<TRIPOS>BOND
     1    24    25    1
     2    25    26    1
     3    25    28    1
     4    27    26    2
     5    26    29   am
     6    15    14    2
     7    29    30    1
     8    33    30    1
     9    33    34    1
    10    23    22    1
    11    36    34    1
    12    14    13    1
    13    21    22   ar
    14    21    19   ar
    15    35    34    1
    16    30    31    1
    17    22    20   ar
    18    19    17   ar
    19    20    18   ar
    20    11    10    2
    21    13    12    1
    22    13    16    1
    23    17    18   ar
    24    17    16    1
    25    31    32    2
    26    31    37   am
    27    10     9    1
    28    37    38    1
    29    46    47   ar
    30    46    44   ar
    31    47    45   ar
    32    44    42   ar
    33     9     8    1
    34    58    56   ar
    35    58    57   ar
    36    56    54   ar
    37    38    39    1
    38    38    41    1
    39    45    43   ar
    40     4     3    2
    41    42    43   ar
    42    42    41    1
    43    57    55   ar
    44    54    53   ar
    45    40    39    2
    46     8     3   am
    47    39    48   am
    48     3     2    1
    49    80    78    1
    50    55    53   ar
    51    53    52    1
    52    78    79    1
    53    78    75    1
    54    48    49    1
    55     2     1    1
    56     2     5    1
    57    77    76    2
    58    49    52    1
    59    49    50    1
    60    75    76    1
    61    75    74    1
    62     6     5    1
    63     5     7    1
    64    50    51    2
    65    65    63    1
    66    66    64    1
    67    70    69    2
    68    64    63    1
    69    72    73    1
    70    72    71    1
    71    73    67    1
    72    63    60    1
    73    69    68    1
    74    67    61   am
    75    67    68    1
    76    60    61    1
    77    60    59    1
    78    71    68    1
    79    61    62    2
