@<TRIPOS>MOLECULE
tmp/5lxiA00.pdb
 129 127 0 0 0
SMALL
GASTEIGER

@<TRIPOS>ATOM
      1  N         22.9610    0.5770    9.0590 N.3     5  TYR5       -0.1241
      2  CA        23.5690    1.8710    9.3220 C.3     5  TYR5        0.1605
      3  C         24.1950    1.8970   10.7020 C.2     5  TYR5        0.2264
      4  O         25.2770    2.4610   10.8920 O.2     5  TYR5       -0.2867
      5  CB        22.5230    2.9830    9.2170 C.3     5  TYR5        0.0534
      6  CG        23.1130    4.3890    9.3290 C.ar    5  TYR5       -0.0201
      7  CD1       23.7290    4.9860    8.2320 C.ar    5  TYR5       -0.0009
      8  CD2       23.0410    5.1030   10.5110 C.ar    5  TYR5       -0.0009
      9  CE1       24.2800    6.2460    8.3120 C.ar    5  TYR5        0.0417
     10  CE2       23.5860    6.3960   10.6060 C.ar    5  TYR5        0.0417
     11  CZ        24.2000    6.9470    9.5010 C.ar    5  TYR5        0.1957
     12  OH        24.7340    8.2160    9.5840 O.3     5  TYR5       -0.2866
     13  N         28.4920    2.5460   11.1030 N.3     9  HIS9       -0.1241
     14  CA        29.0840    3.7040   11.7490 C.3     9  HIS9        0.1621
     15  C         29.0680    3.5710   13.2670 C.2     9  HIS9        0.2264
     16  O         28.0410    3.2190   13.8450 O.2     9  HIS9       -0.2867
     17  CB        28.3030    4.9570   11.3620 C.3     9  HIS9        0.0745
     18  CG        28.2370    5.1820    9.8900 C.ar    9  HIS9        0.0817
     19  ND1       29.3020    5.6810    9.1670 N.ar    9  HIS9       -0.2268
     20  CD2       27.2410    4.9720    9.0020 C.ar    9  HIS9        0.1154
     21  CE1       28.9560    5.7720    7.8940 C.ar    9  HIS9        0.1986
     22  NE2       27.7130    5.3400    7.7660 N.ar    9  HIS9       -0.2212
     23  N         29.8390    8.5290   16.6180 N.3    13  TYR13      -0.1227
     24  CA        29.8500    9.4300   15.4750 C.3    13  TYR13       0.1736
     25  C         28.4470    9.7200   14.9880 C.2    13  TYR13       0.2595
     26  O         28.1770   10.8290   14.5110 O.2    13  TYR13      -0.2718
     27  CB        30.6960    8.8320   14.3570 C.3    13  TYR13       0.0548
     28  CG        32.1520    8.7880   14.7220 C.ar   13  TYR13      -0.0200
     29  CD1       32.7090    9.7820   15.5120 C.ar   13  TYR13      -0.0009
     30  CD2       32.9660    7.7470   14.3020 C.ar   13  TYR13      -0.0009
     31  CE1       34.0420    9.7560   15.8560 C.ar   13  TYR13       0.0417
     32  CE2       34.3010    7.7100   14.6440 C.ar   13  TYR13       0.0417
     33  CZ        34.8300    8.7150   15.4210 C.ar   13  TYR13       0.1957
     34  OH        36.1560    8.6930   15.7700 O.3    13  TYR13      -0.2866
     35  N         27.5520    8.7370   15.1010 N.am   14  ARG14      -0.1980
     36  CA        26.1570    8.9500   14.7300 C.3    14  ARG14       0.1597
     37  C         25.4920    9.9570   15.6620 C.2    14  ARG14       0.2287
     38  O         24.7890   10.8700   15.2110 O.2    14  ARG14      -0.2864
     39  CB        25.4060    7.6140   14.7420 C.3    14  ARG14       0.0334
     40  CG        25.8390    6.6590   13.6430 C.3    14  ARG14       0.0492
     41  CD        25.0170    5.3690   13.6220 C.3    14  ARG14       0.2205
     42  NE        25.3700    4.4350   14.6900 N.pl3  14  ARG14      -0.0865
     43  CZ        24.5500    4.0720   15.6740 C.cat  14  ARG14       0.5346
     44  NH1       23.3260    4.5680   15.7340 N.pl3  14  ARG14       0.1354
     45  NH2       24.9490    3.2040   16.5970 N.pl3  14  ARG14       0.1354
     46  N         26.8670   13.5210   15.0360 N.3    17  GLU17      -0.1245
     47  CA        26.2150   14.0740   13.8570 C.3    17  GLU17       0.1567
     48  C         24.7570   14.4020   14.1460 C.2    17  GLU17       0.2260
     49  O         24.2820   15.4970   13.8280 O.2    17  GLU17      -0.2867
     50  CB        26.3240   13.1230   12.6640 C.3    17  GLU17       0.0388
     51  CG        25.8120   13.7740   11.3970 C.3    17  GLU17       0.1160
     52  CD        26.0410   12.9430   10.1510 C.2    17  GLU17       0.3649
     53  OE1       25.8290   11.7150   10.2050 O.co2  17  GLU17      -0.2457
     54  OE2       26.4420   13.5270    9.1140 O.co2  17  GLU17      -0.2457
     55  N         23.1260   18.0250   13.3010 N.3    21  ILE21      -0.1245
     56  CA        22.2490   18.2110   12.1600 C.3    21  ILE21       0.1561
     57  C         20.9040   18.7880   12.5690 C.2    21  ILE21       0.2260
     58  O         20.2440   19.4570   11.7610 O.2    21  ILE21      -0.2867
     59  CB        22.1160   16.8750   11.4040 C.3    21  ILE21       0.0252
     60  CG1       22.0600   17.0980    9.8980 C.3    21  ILE21       0.0019
     61  CG2       20.8520   16.1100   11.8340 C.3    21  ILE21       0.0019
     62  CD1       23.3290   17.6450    9.3180 C.3    21  ILE21       0.0001
     63  N         16.5870   13.8940   10.5550 N.3    30  PRO30      -0.2116
     64  CA        17.4570   12.8520    9.9550 C.3    30  PRO30       0.1372
     65  C         16.8620   11.4580   10.1080 C.2    30  PRO30       0.2244
     66  O         16.4790   11.0530   11.2050 O.2    30  PRO30      -0.2868
     67  CB        18.7450   12.9680   10.7640 C.3    30  PRO30       0.0268
     68  CG        18.2760   13.4500   12.1030 C.3    30  PRO30       0.0207
     69  CD        17.0440   14.3240   11.8850 C.3    30  PRO30       0.0892
     70  N         20.1530    4.9270   -1.6770 N.3    46  LYS46      -0.1231
     71  CA        20.4880    5.8590   -0.6100 C.3    46  LYS46       0.1693
     72  C         19.6420    5.5250    0.6090 C.2    46  LYS46       0.2592
     73  O         18.4280    5.3300    0.4860 O.2    46  LYS46      -0.2718
     74  CB        20.1440    7.2860   -1.0610 C.3    46  LYS46       0.0285
     75  CG        20.9920    8.3770   -0.4490 C.3    46  LYS46       0.0035
     76  CD        22.2680    8.5650   -1.2640 C.3    46  LYS46       0.0206
     77  CE        21.9820    8.9380   -2.7340 C.3    46  LYS46       0.1093
     78  NZ        23.2210    9.1770   -3.5660 N.3    46  LYS46      -0.1314
     79  N         20.2690    5.4750    1.7860 N.am   47  ARG47      -0.1966
     80  CA        19.5430    5.1420    3.0240 C.3    47  ARG47       0.1729
     81  C         19.4750    6.2910    4.0120 C.2    47  ARG47       0.2616
     82  O         18.7120    6.2320    4.9690 O.2    47  ARG47      -0.2715
     83  CB        20.1510    3.9250    3.7250 C.3    47  ARG47       0.0348
     84  CG        21.5650    4.1590    4.2240 C.3    47  ARG47       0.0492
     85  CD        22.1940    2.8690    4.7650 C.3    47  ARG47       0.2205
     86  NE        23.6060    3.1390    4.9690 N.pl3  47  ARG47      -0.0865
     87  CZ        24.4800    2.2690    5.4720 C.cat  47  ARG47       0.5346
     88  NH1       24.0740    1.0530    5.8540 N.pl3  47  ARG47       0.1354
     89  NH2       25.7520    2.6120    5.5950 N.pl3  47  ARG47       0.1354
     90  N         20.2350    7.3400    3.7910 N.am   48  LYS48      -0.1963
     91  CA        20.3940    8.4040    4.7750 C.3    48  LYS48       0.1728
     92  C         19.7790    9.7060    4.2540 C.2    48  LYS48       0.2616
     93  O         20.2790   10.2790    3.2700 O.2    48  LYS48      -0.2715
     94  CB        21.8850    8.6220    5.0360 C.3    48  LYS48       0.0311
     95  CG        22.1580    9.5440    6.2160 C.3    48  LYS48       0.0038
     96  CD        23.6770    9.6120    6.4400 C.3    48  LYS48       0.0206
     97  CE        24.0810   10.6630    7.4590 C.3    48  LYS48       0.1093
     98  NZ        25.5130   10.4480    7.8070 N.3    48  LYS48      -0.1314
     99  N         18.7700   10.2130    4.9540 N.am   49  TYR49      -0.1960
    100  CA        17.9690   11.3330    4.4580 C.3    49  TYR49       0.1771
    101  C         17.8270   12.4300    5.4930 C.2    49  TYR49       0.2619
    102  O         17.8360   12.1850    6.6990 O.2    49  TYR49      -0.2715
    103  CB        16.5420   10.8440    4.0880 C.3    49  TYR49       0.0574
    104  CG        16.5460    9.8660    2.9410 C.ar   49  TYR49      -0.0198
    105  CD1       16.4600   10.3160    1.6430 C.ar   49  TYR49      -0.0009
    106  CD2       16.6990    8.4920    3.1750 C.ar   49  TYR49      -0.0009
    107  CE1       16.4840    9.4290    0.5900 C.ar   49  TYR49       0.0417
    108  CE2       16.7360    7.6080    2.1250 C.ar   49  TYR49       0.0417
    109  CZ        16.6200    8.0720    0.8320 C.ar   49  TYR49       0.1957
    110  OH        16.6660    7.1900   -0.2470 O.3    49  TYR49      -0.2866
    111  N         17.7330   13.6810    5.0050 N.am   50  LEU50      -0.1977
    112  CA        17.1730   14.7660    5.8120 C.3    50  LEU50       0.1596
    113  C         15.7960   15.0780    5.2410 C.2    50  LEU50       0.2287
    114  O         15.6810   15.4430    4.0690 O.2    50  LEU50      -0.2864
    115  CB        18.1150   15.9690    5.7630 C.3    50  LEU50       0.0297
    116  CG        19.2780   15.9130    6.7330 C.3    50  LEU50       0.0022
    117  CD1       20.1960   17.0580    6.3860 C.3    50  LEU50       0.0001
    118  CD2       18.7660   16.0840    8.1690 C.3    50  LEU50       0.0001
    119  N         18.6800    9.8910   15.4490 N.3   104  PHE104     -0.1241
    120  CA        18.1760    9.4790   14.1460 C.3   104  PHE104      0.1605
    121  C         16.8410    8.7430   14.3060 C.2   104  PHE104      0.2264
    122  O         16.6010    8.0740   15.3190 O.2   104  PHE104     -0.2867
    123  CB        19.1980    8.5830   13.4290 C.3   104  PHE104      0.0534
    124  CG        20.2850    9.3500   12.7240 C.ar  104  PHE104     -0.0203
    125  CD1       20.2600    9.5180   11.3420 C.ar  104  PHE104     -0.0042
    126  CD2       21.3230    9.9170   13.4430 C.ar  104  PHE104     -0.0042
    127  CE1       21.2640   10.2750   10.7010 C.ar  104  PHE104     -0.0003
    128  CE2       22.3320   10.6490   12.7950 C.ar  104  PHE104     -0.0003
    129  CZ        22.2800   10.8140   11.4250 C.ar  104  PHE104     -0.0000
@<TRIPOS>BOND
     1    78    77    1
     2    77    76    1
     3    70    71    1
     4    76    75    1
     5    74    71    1
     6    74    75    1
     7    71    72    1
     8   110   109    1
     9    73    72    2
    10   107   109   ar
    11   107   105   ar
    12    72    79   am
    13   109   108   ar
    14   105   104   ar
    15    79    80    1
    16   108   106   ar
    17   104   106   ar
    18   104   103    1
    19    80    83    1
    20    80    81    1
    21    93    92    2
    22    83    84    1
    23    90    81   am
    24    90    91    1
    25    81    82    2
    26   114   113    2
    27   103   100    1
    28    84    85    1
    29    92    91    1
    30    92    99   am
    31   100    99    1
    32   100   101    1
    33    85    86    1
    34    91    94    1
    35    86    87    2
    36   111   101   am
    37   111   112    1
    38    94    95    1
    39   113   112    1
    40    87    89    1
    41    87    88    1
    42   101   102    2
    43   115   112    1
    44   115   116    1
    45    95    96    1
    46   117   116    1
    47    96    97    1
    48   116   118    1
    49    97    98    1
    50    22    21   ar
    51    22    20   ar
    52    21    19   ar
    53     7     9   ar
    54     7     6   ar
    55     9    11   ar
    56    20    18   ar
    57     1     2    1
    58    54    52   ar
    59    19    18   ar
    60     5     2    1
    61     5     6    1
    62    62    60    1
    63     2     3    1
    64     6     8   ar
    65    11    12    1
    66    11    10   ar
    67    18    17    1
    68    60    59    1
    69    64    65    1
    70    64    63    1
    71    64    67    1
    72    65    66    2
    73    52    53   ar
    74    52    51    1
    75     8    10   ar
    76    63    69    1
    77   127   125   ar
    78   127   129   ar
    79     3     4    2
    80    67    68    1
    81    13    14    1
    82   125   124   ar
    83    17    14    1
    84    51    50    1
    85    59    61    1
    86    59    56    1
    87   129   128   ar
    88    14    15    1
    89    58    57    2
    90    69    68    1
    91    56    57    1
    92    56    55    1
    93    50    47    1
    94   124   123    1
    95   124   126   ar
    96   128   126   ar
    97    15    16    2
    98   123   120    1
    99    41    40    1
   100    41    42    1
   101    40    39    1
   102    49    48    2
   103    47    48    1
   104    47    46    1
   105   120   121    1
   106   120   119    1
   107    30    32   ar
   108    30    28   ar
   109   121   122    2
   110    27    28    1
   111    27    24    1
   112    26    25    2
   113    32    33   ar
   114    42    43    2
   115    28    29   ar
   116    36    39    1
   117    36    35    1
   118    36    37    1
   119    25    35   am
   120    25    24    1
   121    38    37    2
   122    33    34    1
   123    33    31   ar
   124    24    23    1
   125    29    31   ar
   126    43    44    1
   127    43    45    1
