@<TRIPOS>MOLECULE
tmp/5lxmA03.pdb
 104 98 0 0 0
SMALL
GASTEIGER

@<TRIPOS>ATOM
      1  N         55.9240   -7.0070   13.1460 N.3    18  LYS18      -0.1231
      2  CA        57.3720   -6.9600   12.9870 C.3    18  LYS18       0.1693
      3  C         57.8000   -6.0120   11.8710 C.2    18  LYS18       0.2592
      4  O         58.9470   -5.5680   11.8330 O.2    18  LYS18      -0.2718
      5  CB        57.9210   -8.3630   12.7160 C.3    18  LYS18       0.0285
      6  CG        57.6950   -9.3230   13.8650 C.3    18  LYS18       0.0035
      7  CD        58.4290  -10.6400   13.6410 C.3    18  LYS18       0.0206
      8  CE        57.5890  -11.6680   12.8760 C.3    18  LYS18       0.1093
      9  NZ        56.5110  -12.3250   13.7010 N.3    18  LYS18      -0.1314
     10  N         56.8770   -5.7040   10.9650 N.am   19  PHE19      -0.1976
     11  CA        57.1970   -4.8770    9.8060 C.3    19  PHE19       0.1639
     12  C         56.1550   -3.7900    9.5670 C.2    19  PHE19       0.2290
     13  O         56.1510   -3.1410    8.5220 O.2    19  PHE19      -0.2864
     14  CB        57.3340   -5.7490    8.5580 C.3    19  PHE19       0.0560
     15  CG        58.3790   -6.8190    8.6790 C.ar   19  PHE19      -0.0200
     16  CD1       59.7010   -6.5540    8.3600 C.ar   19  PHE19      -0.0042
     17  CD2       58.0410   -8.0900    9.1110 C.ar   19  PHE19      -0.0042
     18  CE1       60.6650   -7.5370    8.4700 C.ar   19  PHE19      -0.0003
     19  CE2       59.0020   -9.0760    9.2230 C.ar   19  PHE19      -0.0003
     20  CZ        60.3150   -8.7990    8.9020 C.ar   19  PHE19      -0.0000
     21  N         46.3440   -4.6670    7.2660 N.3    37  LYS37      -0.1245
     22  CA        47.7130   -4.9620    7.6630 C.3    37  LYS37       0.1561
     23  C         48.6970   -4.2120    6.7730 C.2    37  LYS37       0.2260
     24  O         48.7780   -4.4580    5.5680 O.2    37  LYS37      -0.2867
     25  CB        47.9720   -6.4680    7.6080 C.3    37  LYS37       0.0271
     26  CG        49.3360   -6.8930    8.1250 C.3    37  LYS37       0.0035
     27  CD        49.4160   -8.4050    8.2430 C.3    37  LYS37       0.0206
     28  CE        50.7660   -8.8520    8.7730 C.3    37  LYS37       0.1093
     29  NZ        50.8160  -10.3310    8.9650 N.3    37  LYS37      -0.1314
     30  N         52.5150   -3.1460    5.7630 N.3    39  LEU39      -0.1245
     31  CA        53.9090   -3.5730    5.8240 C.3    39  LEU39       0.1561
     32  C         54.8020   -2.6660    4.9870 C.2    39  LEU39       0.2260
     33  O         54.5580   -2.4740    3.7990 O.2    39  LEU39      -0.2867
     34  CB        54.0500   -5.0160    5.3410 C.3    39  LEU39       0.0270
     35  CG        53.1330   -6.0580    5.9760 C.3    39  LEU39       0.0019
     36  CD1       53.3970   -7.4180    5.3640 C.3    39  LEU39       0.0001
     37  CD2       53.3290   -6.0990    7.4820 C.3    39  LEU39       0.0001
     38  N         60.8800   -5.0520    4.9320 N.3    44  LEU44      -0.1245
     39  CA        60.7450   -6.3910    4.3700 C.3    44  LEU44       0.1561
     40  C         61.9450   -6.7770    3.5120 C.2    44  LEU44       0.2260
     41  O         62.4860   -7.8750    3.6410 O.2    44  LEU44      -0.2867
     42  CB        59.4670   -6.4900    3.5380 C.3    44  LEU44       0.0270
     43  CG        58.1530   -6.3980    4.3110 C.3    44  LEU44       0.0019
     44  CD1       56.9830   -6.2990    3.3490 C.3    44  LEU44       0.0001
     45  CD2       57.9960   -7.5960    5.2330 C.3    44  LEU44       0.0001
     46  N         62.5440  -10.9860    3.5770 N.3    49  VAL49      -0.1245
     47  CA        61.4300  -11.8970    3.8150 C.3    49  VAL49       0.1561
     48  C         60.2660  -11.6120    2.8710 C.2    49  VAL49       0.2260
     49  O         59.1210  -11.9590    3.1630 O.2    49  VAL49      -0.2867
     50  CB        60.9290  -11.8090    5.2670 C.3    49  VAL49       0.0252
     51  CG1       61.9760  -12.3550    6.2250 C.3    49  VAL49       0.0019
     52  CG2       60.5670  -10.3740    5.6170 C.3    49  VAL49       0.0019
     53  N         58.4080  -14.5680    1.7550 N.3    52  GLN52      -0.1231
     54  CA        57.5320  -15.1030    2.7780 C.3    52  GLN52       0.1698
     55  C         56.1970  -14.3600    2.7670 C.2    52  GLN52       0.2592
     56  O         55.1480  -14.9500    3.0290 O.2    52  GLN52      -0.2718
     57  CB        58.2020  -15.0110    4.1500 C.3    52  GLN52       0.0381
     58  CG        57.5490  -15.8630    5.2130 C.3    52  GLN52       0.0905
     59  CD        57.6050  -17.3500    4.9130 C.2    52  GLN52       0.2608
     60  OE1       58.6600  -17.8900    4.5820 O.2    52  GLN52      -0.2717
     61  NE2       56.4640  -18.0190    5.0310 N.am   52  GLN52      -0.0878
     62  N         56.2390  -13.0680    2.4520 N.am   53  LEU53      -0.1980
     63  CA        55.0160  -12.2790    2.3280 C.3    53  LEU53       0.1596
     64  C         54.1830  -12.7650    1.1450 C.2    53  LEU53       0.2287
     65  O         52.9510  -12.7680    1.2000 O.2    53  LEU53      -0.2864
     66  CB        55.3320  -10.7900    2.1690 C.3    53  LEU53       0.0297
     67  CG        54.1130   -9.8990    1.9030 C.3    53  LEU53       0.0022
     68  CD1       53.0610  -10.0800    2.9960 C.3    53  LEU53       0.0001
     69  CD2       54.5140   -8.4390    1.7740 C.3    53  LEU53       0.0001
     70  N         52.4530  -15.7230    2.4660 N.3    56  GLU56      -0.1245
     71  CA        51.3660  -15.3380    3.3660 C.3    56  GLU56       0.1567
     72  C         50.1280  -14.9110    2.5830 C.2    56  GLU56       0.2260
     73  O         49.0140  -15.3400    2.8830 O.2    56  GLU56      -0.2867
     74  CB        51.8060  -14.2090    4.3080 C.3    56  GLU56       0.0388
     75  CG        50.6940  -13.6890    5.2200 C.3    56  GLU56       0.1160
     76  CD        51.1440  -12.5420    6.1150 C.2    56  GLU56       0.3649
     77  OE1       52.3220  -12.1360    6.0240 O.co2  56  GLU56      -0.2457
     78  OE2       50.3170  -12.0440    6.9070 O.co2  56  GLU56      -0.2457
     79  N         47.6340  -14.6240   10.7200 N.3   149  ASP149     -0.1239
     80  CA        49.0620  -14.4240   10.4840 C.3   149  ASP149      0.1674
     81  C         49.7380  -15.6420    9.8570 C.2   149  ASP149      0.2266
     82  O         50.3850  -16.4320   10.5440 O.2   149  ASP149     -0.2867
     83  CB        49.7730  -14.0490   11.7880 C.3   149  ASP149      0.1410
     84  CG        51.2430  -13.7340   11.5780 C.2   149  ASP149      0.3668
     85  OD1       51.6360  -13.4480   10.4250 O.co2 149  ASP149     -0.2456
     86  OD2       52.0040  -13.7640   12.5680 O.co2 149  ASP149     -0.2456
     87  N         52.2250  -15.4630    8.0810 N.3   151  GLY151     -0.1210
     88  CA        53.4930  -14.8570    7.7260 C.3   151  GLY151      0.1956
     89  C         54.7010  -15.7620    7.8620 C.2   151  GLY151      0.2611
     90  O         55.8110  -15.3510    7.5470 O.2   151  GLY151     -0.2717
     91  N         54.4970  -16.9820    8.3470 N.am  152  TRP152     -0.1976
     92  CA        55.5750  -17.9670    8.4060 C.3   152  TRP152      0.1640
     93  C         55.1830  -19.2480    7.6800 C.2   152  TRP152      0.2290
     94  O         55.9490  -20.2140    7.6470 O.2   152  TRP152     -0.2864
     95  CB        55.9450  -18.2950    9.8580 C.3   152  TRP152      0.0576
     96  CG        56.9480  -17.3730   10.4740 C.ar  152  TRP152      0.0006
     97  CD1       56.7700  -16.5960   11.5830 C.ar  152  TRP152      0.0946
     98  CD2       58.2940  -17.1390   10.0350 C.ar  152  TRP152      0.0152
     99  NE1       57.9170  -15.8900   11.8570 N.ar  152  TRP152     -0.2442
    100  CE2       58.8670  -16.2070   10.9240 C.ar  152  TRP152      0.0810
    101  CE3       59.0670  -17.6240    8.9760 C.ar  152  TRP152      0.0012
    102  CZ2       60.1760  -15.7490   10.7840 C.ar  152  TRP152      0.0191
    103  CZ3       60.3670  -17.1700    8.8410 C.ar  152  TRP152      0.0001
    104  CH2       60.9070  -16.2420    9.7390 C.ar  152  TRP152      0.0015
@<TRIPOS>BOND
     1    64    65    2
     2    64    63    1
     3    53    54    1
     4    69    67    1
     5    67    66    1
     6    67    68    1
     7    66    63    1
     8    63    62    1
     9    62    55   am
    10    70    71    1
    11    72    73    2
    12    72    71    1
    13    55    54    1
    14    55    56    2
    15    54    57    1
    16    48    49    2
    17    48    47    1
    18    44    43    1
    19    71    74    1
    20    40    41    2
    21    40    39    1
    22    42    43    1
    23    42    39    1
    24    46    47    1
    25    33    32    2
    26    47    50    1
    27    57    58    1
    28    74    75    1
    29    43    45    1
    30    39    38    1
    31    60    59    2
    32    59    61   am
    33    59    58    1
    34    32    31    1
    35    75    76    1
    36    50    52    1
    37    50    51    1
    38    34    31    1
    39    34    35    1
    40    36    35    1
    41    24    23    2
    42    30    31    1
    43    35    37    1
    44    77    76   ar
    45    76    78   ar
    46    23    22    1
    47    21    22    1
    48    90    89    2
    49    25    22    1
    50    25    26    1
    51    94    93    2
    52    93    92    1
    53    88    89    1
    54    88    87    1
    55    89    91   am
    56    26    27    1
    57    27    28    1
    58    91    92    1
    59    16    18   ar
    60    16    15   ar
    61    92    95    1
    62    18    20   ar
    63    13    12    2
    64    14    15    1
    65    14    11    1
    66    15    17   ar
    67    28    29    1
    68   103   101   ar
    69   103   104   ar
    70    20    19   ar
    71   101    98   ar
    72    17    19   ar
    73    12    11    1
    74   104   102   ar
    75    11    10    1
    76    81    80    1
    77    81    82    2
    78    95    96    1
    79    98    96   ar
    80    98   100   ar
    81    85    84   ar
    82    96    97   ar
    83    80    79    1
    84    80    83    1
    85   102   100   ar
    86   100    99   ar
    87    10     3   am
    88    84    83    1
    89    84    86   ar
    90    97    99   ar
    91     4     3    2
    92     3     2    1
    93     5     2    1
    94     5     6    1
    95     8     7    1
    96     8     9    1
    97     2     1    1
    98     7     6    1
