@<TRIPOS>MOLECULE
tmp/5lxpA00.pdb
 99 99 0 0 0
SMALL
GASTEIGER

@<TRIPOS>ATOM
      1  N        -22.9880  -11.8480    8.2150 N.3    72  HIS72      -0.1226
      2  CA       -23.4660  -12.9340    7.3680 C.3    72  HIS72       0.1752
      3  C        -24.8450  -12.5710    6.8790 C.2    72  HIS72       0.2596
      4  O        -25.8020  -12.5700    7.6630 O.2    72  HIS72      -0.2718
      5  CB       -23.4890  -14.3070    8.0990 C.3    72  HIS72       0.0759
      6  CG       -23.8940  -15.4410    7.1890 C.ar   72  HIS72       0.0818
      7  ND1      -22.9560  -16.1500    6.4600 N.ar   72  HIS72      -0.2268
      8  CD2      -25.1290  -15.8770    6.8370 C.ar   72  HIS72       0.1154
      9  CE1      -23.6330  -17.0340    5.7490 C.ar   72  HIS72       0.1986
     10  NE2      -24.9400  -16.9110    5.9430 N.ar   72  HIS72      -0.2212
     11  N        -24.9390  -12.2960    5.5810 N.am   73  GLY73      -0.1957
     12  CA       -26.1990  -11.9940    4.9320 C.3    73  GLY73       0.1869
     13  C        -26.8680  -13.2910    4.5630 C.2    73  GLY73       0.2309
     14  O        -26.1900  -14.2520    4.1800 O.2    73  GLY73      -0.2863
     15  N        -13.1060  -20.9200   -0.9760 N.3    90  TYR90      -0.1241
     16  CA       -12.2320  -21.2310    0.1530 C.3    90  TYR90       0.1605
     17  C        -12.7220  -22.4670    0.9610 C.2    90  TYR90       0.2264
     18  O        -12.0150  -22.9050    1.8730 O.2    90  TYR90      -0.2867
     19  CB       -12.0550  -20.0030    1.0760 C.3    90  TYR90       0.0534
     20  CG       -11.4420  -18.8010    0.3870 C.ar   90  TYR90      -0.0201
     21  CD1      -10.0710  -18.7270    0.1560 C.ar   90  TYR90      -0.0009
     22  CD2      -12.2350  -17.7400   -0.0440 C.ar   90  TYR90      -0.0009
     23  CE1       -9.5040  -17.6350   -0.5010 C.ar   90  TYR90       0.0417
     24  CE2      -11.6800  -16.6400   -0.6970 C.ar   90  TYR90       0.0417
     25  CZ       -10.3130  -16.5930   -0.9280 C.ar   90  TYR90       0.1957
     26  OH        -9.7580  -15.5180   -1.5800 O.3    90  TYR90      -0.2866
     27  N        -19.3840  -18.7380    5.1850 N.3    95  TYR95      -0.1227
     28  CA       -18.6620  -17.4960    4.9150 C.3    95  TYR95       0.1736
     29  C        -19.1050  -16.3750    5.8310 C.2    95  TYR95       0.2595
     30  O        -20.2910  -16.2250    6.1040 O.2    95  TYR95      -0.2718
     31  CB       -18.9020  -17.0800    3.4640 C.3    95  TYR95       0.0548
     32  CG       -18.0580  -17.8240    2.4620 C.ar   95  TYR95      -0.0200
     33  CD1      -18.4020  -19.1070    2.0460 C.ar   95  TYR95      -0.0009
     34  CD2      -16.9180  -17.2420    1.9160 C.ar   95  TYR95      -0.0009
     35  CE1      -17.6150  -19.8050    1.1320 C.ar   95  TYR95       0.0417
     36  CE2      -16.1370  -17.9190    0.9810 C.ar   95  TYR95       0.0417
     37  CZ       -16.4880  -19.2020    0.5940 C.ar   95  TYR95       0.1957
     38  OH       -15.7150  -19.8740   -0.3150 O.3    95  TYR95      -0.2866
     39  N        -18.1640  -15.5440    6.2630 N.am   96  PHE96      -0.1962
     40  CA       -18.4610  -14.3950    7.1130 C.3    96  PHE96       0.1771
     41  C        -17.6170  -13.2190    6.6470 C.2    96  PHE96       0.2619
     42  O        -16.4630  -13.4170    6.2620 O.2    96  PHE96      -0.2715
     43  CB       -18.1970  -14.6980    8.6150 C.3    96  PHE96       0.0574
     44  CG       -19.0130  -15.8320    9.1690 C.ar   96  PHE96      -0.0200
     45  CD1      -20.2980  -15.6090    9.6690 C.ar   96  PHE96      -0.0042
     46  CD2      -18.4960  -17.1350    9.2060 C.ar   96  PHE96      -0.0042
     47  CE1      -21.0670  -16.6790   10.1710 C.ar   96  PHE96      -0.0003
     48  CE2      -19.2500  -18.1920    9.7260 C.ar   96  PHE96      -0.0003
     49  CZ       -20.5390  -17.9620   10.1920 C.ar   96  PHE96      -0.0000
     50  N        -18.1900  -12.0130    6.6400 N.am   97  ALA97      -0.1977
     51  CA       -17.4630  -10.8330    6.1840 C.3    97  ALA97       0.1597
     52  C        -17.0870   -9.9080    7.3500 C.2    97  ALA97       0.2287
     53  O        -17.8380   -9.7800    8.3230 O.2    97  ALA97      -0.2864
     54  CB       -18.3030  -10.0730    5.1690 C.3    97  ALA97       0.0319
     55  N        -20.1960   -5.9220    2.2900 N.3   102  TYR102     -0.1227
     56  CA       -19.9830   -7.1510    1.5370 C.3   102  TYR102      0.1736
     57  C        -21.2080   -8.1120    1.6770 C.2   102  TYR102      0.2596
     58  O        -21.7090   -8.6250    0.6750 O.2   102  TYR102     -0.2718
     59  CB       -18.6880   -7.8280    2.0120 C.3   102  TYR102      0.0548
     60  CG       -18.2260   -8.9100    1.0650 C.ar  102  TYR102     -0.0200
     61  CD1      -18.6880  -10.2160    1.1910 C.ar  102  TYR102     -0.0009
     62  CD2      -17.3780   -8.6160   -0.0030 C.ar  102  TYR102     -0.0009
     63  CE1      -18.3030  -11.2090    0.2930 C.ar  102  TYR102      0.0417
     64  CE2      -16.9560   -9.6120   -0.8870 C.ar  102  TYR102      0.0417
     65  CZ       -17.4150  -10.9130   -0.7260 C.ar  102  TYR102      0.1957
     66  OH       -17.0380  -11.9140   -1.5870 O.3   102  TYR102     -0.2866
     67  N        -21.7010   -8.2980    2.9160 N.am  103  SER103     -0.1952
     68  CA       -22.8540   -9.1270    3.2560 C.3   103  SER103      0.1924
     69  C        -24.2080   -8.5030    2.8070 C.2   103  SER103      0.2314
     70  O        -25.1860   -9.2470    2.6360 O.2   103  SER103     -0.2863
     71  CB       -22.8870   -9.3660    4.7660 C.3   103  SER103      0.2116
     72  OG       -21.7930  -10.1850    5.1500 O.3   103  SER103     -0.2180
     73  N        -26.9440  -10.9210   -3.5110 N.3   107  THR107     -0.1203
     74  CA       -26.6410  -12.3560   -3.6840 C.3   107  THR107      0.1994
     75  C        -26.6800  -13.0830   -2.3310 C.2   107  THR107      0.2617
     76  O        -26.9870  -14.2750   -2.2780 O.2   107  THR107     -0.2717
     77  CB       -25.2470  -12.5560   -4.3520 C.3   107  THR107      0.1784
     78  OG1      -25.1380  -11.7380   -5.5220 O.3   107  THR107     -0.2211
     79  CG2      -24.9710  -14.0160   -4.7320 C.3   107  THR107      0.0376
     80  N        -26.3660  -12.3650   -1.2410 N.am  108  TYR108     -0.1975
     81  CA       -26.3070  -12.9520    0.1010 C.3   108  TYR108      0.1639
     82  C        -27.5550  -12.6190    0.9030 C.2   108  TYR108      0.2290
     83  O        -28.2860  -13.5320    1.2750 O.2   108  TYR108     -0.2864
     84  CB       -25.0280  -12.5010    0.8330 C.3   108  TYR108      0.0560
     85  CG       -23.7790  -12.6850   -0.0050 C.ar  108  TYR108     -0.0198
     86  CD1      -23.4970  -13.9080   -0.6180 C.ar  108  TYR108     -0.0009
     87  CD2      -22.8700  -11.6420   -0.1780 C.ar  108  TYR108     -0.0009
     88  CE1      -22.3730  -14.0710   -1.4270 C.ar  108  TYR108      0.0417
     89  CE2      -21.7420  -11.7930   -0.9890 C.ar  108  TYR108      0.0417
     90  CZ       -21.4780  -13.0220   -1.5790 C.ar  108  TYR108      0.1957
     91  OH       -20.3480  -13.1980   -2.3340 O.3   108  TYR108     -0.2866
     92  N        -12.6170  -11.5820    4.7120 N.3   163  LEU163     -0.1245
     93  CA       -13.5980  -12.6410    4.9210 C.3   163  LEU163      0.1561
     94  C        -12.9780  -13.8640    5.5860 C.2   163  LEU163      0.2260
     95  O        -11.7750  -14.1020    5.4710 O.2   163  LEU163     -0.2867
     96  CB       -14.3130  -13.0430    3.6110 C.3   163  LEU163      0.0270
     97  CG       -13.5090  -13.6530    2.4730 C.3   163  LEU163      0.0019
     98  CD1      -13.4780  -15.1950    2.5870 C.3   163  LEU163      0.0001
     99  CD2      -14.1120  -13.2560    1.1240 C.3   163  LEU163      0.0001
@<TRIPOS>BOND
     1    78    77    1
     2    79    77    1
     3    77    74    1
     4    74    73    1
     5    74    75    1
     6    91    90    1
     7    75    76    2
     8    75    80   am
     9    66    65    1
    10    26    25    1
    11    90    88   ar
    12    90    89   ar
    13    88    86   ar
    14    80    81    1
    15    89    87   ar
    16    15    16    1
    17    25    24   ar
    18    25    23   ar
    19    64    65   ar
    20    64    62   ar
    21    65    63   ar
    22    24    22   ar
    23    86    85   ar
    24    23    21   ar
    25    38    37    1
    26    87    85   ar
    27    22    20   ar
    28    85    84    1
    29    62    60   ar
    30    81    84    1
    31    81    82    1
    32    16    17    1
    33    16    19    1
    34    21    20   ar
    35    63    61   ar
    36    20    19    1
    37    37    36   ar
    38    37    35   ar
    39    58    57    2
    40    82    83    2
    41    17    18    2
    42    36    34   ar
    43    60    61   ar
    44    60    59    1
    45    99    97    1
    46    35    33   ar
    47    56    57    1
    48    56    59    1
    49    56    55    1
    50    57    67   am
    51    34    32   ar
    52    33    32   ar
    53    32    31    1
    54    97    98    1
    55    97    96    1
    56    70    69    2
    57    69    68    1
    58    67    68    1
    59    68    71    1
    60    31    28    1
    61    96    93    1
    62    14    13    2
    63    13    12    1
    64    92    93    1
    65    71    72    1
    66    28    27    1
    67    28    29    1
    68    93    94    1
    69    12    11    1
    70    54    51    1
    71    95    94    2
    72    11     3   am
    73     9    10   ar
    74     9     7   ar
    75    29    30    2
    76    29    39   am
    77    10     8   ar
    78    51    50    1
    79    51    52    1
    80    42    41    2
    81    39    40    1
    82     7     6   ar
    83    50    41   am
    84    41    40    1
    85     8     6   ar
    86     3     2    1
    87     3     4    2
    88    40    43    1
    89     6     5    1
    90    52    53    2
    91     2     5    1
    92     2     1    1
    93    43    44    1
    94    44    46   ar
    95    44    45   ar
    96    46    48   ar
    97    45    47   ar
    98    48    49   ar
    99    47    49   ar
