@<TRIPOS>MOLECULE
tmp/5lxsD01.pdb
 176 168 0 0 0
SMALL
GASTEIGER

@<TRIPOS>ATOM
      1  N         10.0700    5.6230  -42.9260 N.3    23  VAL23      -0.1245
      2  CA         9.0050    5.8540  -41.9550 C.3    23  VAL23       0.1561
      3  C          9.1770    7.2040  -41.2670 C.2    23  VAL23       0.2260
      4  O          8.2070    7.9560  -41.1060 O.2    23  VAL23      -0.2867
      5  CB         8.9400    4.7010  -40.9370 C.3    23  VAL23       0.0252
      6  CG1        8.0330    5.0720  -39.7720 C.3    23  VAL23       0.0019
      7  CG2        8.4330    3.4290  -41.6070 C.3    23  VAL23       0.0019
      8  N          3.9230  -12.4310  -35.9160 N.3   211  CYS211     -0.1235
      9  CA         3.2500  -12.5820  -37.2050 C.3   211  CYS211      0.1677
     10  C          2.4540  -13.8800  -37.2740 C.2   211  CYS211      0.2270
     11  O          1.3180  -13.8950  -37.7610 O.2   211  CYS211     -0.2867
     12  CB         4.2700  -12.5370  -38.3410 C.3   211  CYS211      0.0956
     13  SG         5.0460  -10.9460  -38.5780 S.3   211  CYS211     -0.0801
     14  N         -1.0090  -12.6170  -35.1760 N.3   215  LEU215     -0.1245
     15  CA        -1.6210  -12.0910  -36.3890 C.3   215  LEU215      0.1561
     16  C         -2.0550  -13.1760  -37.3660 C.2   215  LEU215      0.2260
     17  O         -2.5500  -12.8460  -38.4490 O.2   215  LEU215     -0.2867
     18  CB        -0.6560  -11.1320  -37.0850 C.3   215  LEU215      0.0270
     19  CG         0.0850  -10.2050  -36.1260 C.3   215  LEU215      0.0019
     20  CD1        1.1330   -9.3960  -36.8670 C.3   215  LEU215      0.0001
     21  CD2       -0.8840   -9.2990  -35.3850 C.3   215  LEU215      0.0001
     22  N         -0.6880  -14.9610  -39.4780 N.3   217  LEU217     -0.1245
     23  CA        -0.0640  -15.0200  -40.7950 C.3   217  LEU217      0.1561
     24  C          0.6540  -16.3570  -40.9470 C.2   217  LEU217      0.2260
     25  O          1.5850  -16.6580  -40.1920 O.2   217  LEU217     -0.2867
     26  CB         0.9050  -13.8550  -40.9900 C.3   217  LEU217      0.0270
     27  CG         0.3330  -12.4500  -40.7820 C.3   217  LEU217      0.0019
     28  CD1        1.3150  -11.3930  -41.2550 C.3   217  LEU217      0.0001
     29  CD2       -1.0040  -12.2950  -41.4850 C.3   217  LEU217      0.0001
     30  N          9.0180   -8.4640  -45.3300 N.3   223  GLY223     -0.1210
     31  CA         8.2330   -7.2420  -45.2840 C.3   223  GLY223      0.1956
     32  C          7.3280   -7.1810  -44.0680 C.2   223  GLY223      0.2611
     33  O          7.1530   -6.1190  -43.4660 O.2   223  GLY223     -0.2717
     34  N          6.7430   -8.3200  -43.6900 N.am  224  ASP224     -0.1973
     35  CA         5.9570   -8.3770  -42.4620 C.3   224  ASP224      0.1709
     36  C          6.8340   -8.1270  -41.2430 C.2   224  ASP224      0.2293
     37  O          6.4830   -7.3320  -40.3640 O.2   224  ASP224     -0.2864
     38  CB         5.2560   -9.7300  -42.3470 C.3   224  ASP224      0.1436
     39  CG         4.2100   -9.9370  -43.4220 C.2   224  ASP224      0.3671
     40  OD1        3.3720   -9.0320  -43.6150 O.co2 224  ASP224     -0.2456
     41  OD2        4.2320  -11.0010  -44.0790 O.co2 224  ASP224     -0.2456
     42  N          8.0500   -4.3840  -40.9700 N.3   227  HIS227     -0.1226
     43  CA         7.0670   -3.4320  -40.4640 C.3   227  HIS227      0.1752
     44  C          7.1450   -3.3440  -38.9460 C.2   227  HIS227      0.2595
     45  O          7.1410   -2.2480  -38.3720 O.2   227  HIS227     -0.2718
     46  CB         5.6580   -3.8240  -40.9120 C.3   227  HIS227      0.0759
     47  CG         5.2580   -3.2450  -42.2340 C.ar  227  HIS227      0.0818
     48  ND1        5.6880   -3.7630  -43.4370 N.ar  227  HIS227     -0.2268
     49  CD2        4.4650   -2.1910  -42.5420 C.ar  227  HIS227      0.1154
     50  CE1        5.1790   -3.0540  -44.4290 C.ar  227  HIS227      0.1986
     51  NE2        4.4310   -2.0960  -43.9120 N.ar  227  HIS227     -0.2212
     52  N          7.2260   -4.5000  -38.2790 N.am  228  LEU228     -0.1980
     53  CA         7.3790   -4.5140  -36.8270 C.3   228  LEU228      0.1596
     54  C          8.6400   -3.7730  -36.4050 C.2   228  LEU228      0.2287
     55  O          8.6270   -3.0110  -35.4320 O.2   228  LEU228     -0.2864
     56  CB         7.4060   -5.9550  -36.3140 C.3   228  LEU228      0.0297
     57  CG         6.1560   -6.8160  -36.5300 C.3   228  LEU228      0.0022
     58  CD1        6.4590   -8.2760  -36.2380 C.3   228  LEU228      0.0001
     59  CD2        4.9980   -6.3330  -35.6650 C.3   228  LEU228      0.0001
     60  N         10.3180   -1.3650  -38.1140 N.3   230  SER230     -0.1202
     61  CA        10.1820    0.0660  -38.3740 C.3   230  SER230      0.2020
     62  C          9.2110    0.7170  -37.3950 C.2   230  SER230      0.2618
     63  O          9.4670    1.8240  -36.9040 O.2   230  SER230     -0.2717
     64  CB         9.7350    0.3030  -39.8170 C.3   230  SER230      0.2103
     65  OG         8.4280   -0.1970  -40.0420 O.3   230  SER230     -0.2182
     66  N          8.0900    0.0500  -37.1010 N.am  231  ALA231     -0.1979
     67  CA         7.1850    0.5570  -36.0750 C.3   231  ALA231      0.1597
     68  C          7.9020    0.6930  -34.7380 C.2   231  ALA231      0.2287
     69  O          7.7670    1.7120  -34.0500 O.2   231  ALA231     -0.2864
     70  CB         5.9660   -0.3570  -35.9450 C.3   231  ALA231      0.0319
     71  N          5.8170   -3.1590  -28.6490 N.3   270  PHE270     -0.1241
     72  CA         4.9310   -2.2900  -29.4060 C.3   270  PHE270      0.1605
     73  C          3.4920   -2.7180  -29.1690 C.2   270  PHE270      0.2264
     74  O          3.2060   -3.8960  -28.9400 O.2   270  PHE270     -0.2867
     75  CB         5.2610   -2.3240  -30.9070 C.3   270  PHE270      0.0534
     76  CG         4.4280   -1.3810  -31.7430 C.ar  270  PHE270     -0.0203
     77  CD1        4.8540   -0.0800  -31.9770 C.ar  270  PHE270     -0.0042
     78  CD2        3.2340   -1.8010  -32.3100 C.ar  270  PHE270     -0.0042
     79  CE1        4.0980    0.7890  -32.7500 C.ar  270  PHE270     -0.0003
     80  CE2        2.4680   -0.9380  -33.0830 C.ar  270  PHE270     -0.0003
     81  CZ         2.9000    0.3590  -33.3030 C.ar  270  PHE270     -0.0000
     82  N         -0.6390   -1.1600  -30.6250 N.3   272  PRO272     -0.2102
     83  CA        -1.3490   -2.4420  -30.6310 C.3   272  PRO272      0.1504
     84  C         -0.7830   -3.4500  -31.6260 C.2   272  PRO272      0.2576
     85  O         -0.4300   -3.0850  -32.7470 O.2   272  PRO272     -0.2718
     86  CB        -2.7710   -2.0410  -31.0300 C.3   272  PRO272      0.0282
     87  CG        -2.5660   -0.8880  -31.9610 C.3   272  PRO272      0.0208
     88  CD        -1.3410   -0.1470  -31.4370 C.3   272  PRO272      0.0893
     89  N         -0.7010   -4.7090  -31.2090 N.am  273  LEU273     -0.1966
     90  CA        -0.3740   -5.8230  -32.0950 C.3   273  LEU273      0.1728
     91  C         -1.6070   -6.7170  -32.1210 C.2   273  LEU273      0.2617
     92  O         -1.8230   -7.5170  -31.2060 O.2   273  LEU273     -0.2715
     93  CB         0.8640   -6.5820  -31.6240 C.3   273  LEU273      0.0311
     94  CG         2.1960   -5.8380  -31.6790 C.3   273  LEU273      0.0022
     95  CD1        3.2980   -6.6720  -31.0460 C.3   273  LEU273      0.0001
     96  CD2        2.5480   -5.4750  -33.1140 C.3   273  LEU273      0.0001
     97  N         -2.4220   -6.5690  -33.1610 N.am  274  THR274     -0.1937
     98  CA        -3.6870   -7.2780  -33.2390 C.3   274  THR274      0.2028
     99  C         -3.9270   -7.7480  -34.6660 C.2   274  THR274      0.2643
    100  O         -3.5260   -7.0950  -35.6340 O.2   274  THR274     -0.2714
    101  CB        -4.8510   -6.3960  -32.7640 C.3   274  THR274      0.1808
    102  OG1       -6.0910   -7.0730  -32.9970 O.3   274  THR274     -0.2208
    103  CG2       -4.8530   -5.0610  -33.4920 C.3   274  THR274      0.0379
    104  N         -4.5770   -8.9010  -34.7830 N.am  275  SER275     -0.1935
    105  CA        -4.8720   -9.4600  -36.0910 C.3   275  SER275      0.2055
    106  C         -5.9220   -8.6170  -36.8090 C.2   275  SER275      0.2642
    107  O         -6.7150   -7.8970  -36.1950 O.2   275  SER275     -0.2714
    108  CB        -5.3530  -10.9060  -35.9640 C.3   275  SER275      0.2130
    109  OG        -6.5410  -10.9810  -35.1970 O.3   275  SER275     -0.2179
    110  N         -5.9070   -8.7090  -38.1340 N.am  276  ARG276     -0.1977
    111  CA        -6.8770   -7.9970  -38.9540 C.3   276  ARG276      0.1597
    112  C         -8.2760   -8.5280  -38.6610 C.2   276  ARG276      0.2287
    113  O         -8.5570   -9.7120  -38.8760 O.2   276  ARG276     -0.2864
    114  CB        -6.5270   -8.1620  -40.4310 C.3   276  ARG276      0.0334
    115  CG        -7.2570   -7.2160  -41.3630 C.3   276  ARG276      0.0492
    116  CD        -6.5180   -5.8990  -41.5340 C.3   276  ARG276      0.2205
    117  NE        -5.3370   -6.0450  -42.3780 N.pl3 276  ARG276     -0.0865
    118  CZ        -4.5670   -5.0310  -42.7590 C.cat 276  ARG276      0.5346
    119  NH1       -4.8590   -3.7970  -42.3710 N.pl3 276  ARG276      0.1354
    120  NH2       -3.5050   -5.2500  -43.5250 N.pl3 276  ARG276      0.1354
    121  N        -10.3420   -4.9410  -35.1910 N.3   279  GLN279     -0.1231
    122  CA       -10.5920   -3.5070  -35.2590 C.3   279  GLN279      0.1698
    123  C        -12.0820   -3.1890  -35.3520 C.2   279  GLN279      0.2592
    124  O        -12.5080   -2.1060  -34.9340 O.2   279  GLN279     -0.2718
    125  CB        -9.8450   -2.9210  -36.4560 C.3   279  GLN279      0.0381
    126  CG       -10.1920   -3.6120  -37.7750 C.3   279  GLN279      0.0905
    127  CD        -8.9740   -4.1010  -38.5390 C.2   279  GLN279      0.2608
    128  OE1       -8.3570   -5.1000  -38.1690 O.2   279  GLN279     -0.2717
    129  NE2       -8.6280   -3.4020  -39.6160 N.am  279  GLN279     -0.0878
    130  N        -12.8840   -4.1120  -35.8970 N.am  280  GLN280     -0.1979
    131  CA       -14.3160   -3.8630  -36.0440 C.3   280  GLN280      0.1601
    132  C        -15.0260   -3.8030  -34.6990 C.2   280  GLN280      0.2287
    133  O        -16.0310   -3.0950  -34.5610 O.2   280  GLN280     -0.2864
    134  CB       -14.9720   -4.9540  -36.8930 C.3   280  GLN280      0.0394
    135  CG       -14.2050   -5.3890  -38.1230 C.3   280  GLN280      0.0908
    136  CD       -14.8620   -6.5760  -38.8120 C.2   280  GLN280      0.2608
    137  OE1      -16.0450   -6.5320  -39.1570 O.2   280  GLN280     -0.2717
    138  NE2      -14.1010   -7.6490  -38.9990 N.am  280  GLN280     -0.0878
    139  N         -8.8690    0.4790  -29.4540 N.3   284  LEU284     -0.1245
    140  CA        -7.9780    0.2870  -28.3180 C.3   284  LEU284      0.1561
    141  C         -8.0490    1.4840  -27.3780 C.2   284  LEU284      0.2260
    142  O         -7.9170    2.6360  -27.8050 O.2   284  LEU284     -0.2867
    143  CB        -6.5390    0.0740  -28.7940 C.3   284  LEU284      0.0270
    144  CG        -6.1270   -1.3280  -29.2570 C.3   284  LEU284      0.0019
    145  CD1       -6.5260   -2.3780  -28.2250 C.3   284  LEU284      0.0001
    146  CD2       -6.6960   -1.6650  -30.6340 C.3   284  LEU284      0.0001
    147  N          1.9760    7.2240  -35.0900 N.3   358  PRO358     -0.2102
    148  CA         2.4820    6.6160  -36.3240 C.3   358  PRO358      0.1504
    149  C          1.4910    6.8060  -37.4620 C.2   358  PRO358      0.2576
    150  O          0.3190    7.1330  -37.2560 O.2   358  PRO358     -0.2718
    151  CB         2.6370    5.1330  -35.9610 C.3   358  PRO358      0.0282
    152  CG         2.7040    5.1010  -34.4680 C.3   358  PRO358      0.0208
    153  CD         1.8580    6.2450  -33.9950 C.3   358  PRO358      0.0893
    154  N          1.9800    6.6010  -38.6810 N.am  359  ARG359     -0.1966
    155  CA         1.1370    6.7620  -39.8570 C.3   359  ARG359      0.1729
    156  C         -0.0250    5.7770  -39.8010 C.2   359  ARG359      0.2617
    157  O          0.1740    4.5820  -39.5730 O.2   359  ARG359     -0.2715
    158  CB         1.9700    6.5480  -41.1230 C.3   359  ARG359      0.0348
    159  CG         1.3400    7.0370  -42.4240 C.3   359  ARG359      0.0492
    160  CD         2.2210    6.6420  -43.6070 C.3   359  ARG359      0.2205
    161  NE         1.8520    7.3220  -44.8460 N.pl3 359  ARG359     -0.0865
    162  CZ         2.4960    7.1710  -46.0020 C.cat 359  ARG359      0.5346
    163  NH1        3.5440    6.3610  -46.0800 N.pl3 359  ARG359      0.1354
    164  NH2        2.0920    7.8300  -47.0800 N.pl3 359  ARG359      0.1354
    165  N         -1.2450    6.2880  -39.9740 N.am  360  GLY360     -0.1940
    166  CA        -2.4290    5.4500  -40.0270 C.3   360  GLY360      0.2014
    167  C         -2.9880    4.9750  -38.6970 C.2   360  GLY360      0.2638
    168  O         -3.9610    4.2100  -38.6970 O.2   360  GLY360     -0.2714
    169  N         -2.4210    5.3910  -37.5660 N.am  361  LEU361     -0.1977
    170  CA        -2.9210    4.9980  -36.2540 C.3   361  LEU361      0.1596
    171  C         -3.3780    6.2280  -35.4800 C.2   361  LEU361      0.2287
    172  O         -2.7510    7.2890  -35.5580 O.2   361  LEU361     -0.2864
    173  CB        -1.8520    4.2500  -35.4400 C.3   361  LEU361      0.0297
    174  CG        -1.3910    2.8650  -35.9080 C.3   361  LEU361      0.0022
    175  CD1       -0.4150    2.2590  -34.9020 C.3   361  LEU361      0.0001
    176  CD2       -2.5710    1.9380  -36.1290 C.3   361  LEU361      0.0001
@<TRIPOS>BOND
     1   164   162    1
     2   163   162    1
     3   162   161    2
     4    30    31    1
     5    31    32    1
     6   161   160    1
     7    50    51   ar
     8    50    48   ar
     9    41    39   ar
    10    32    34   am
    11    32    33    2
    12    51    49   ar
    13    34    35    1
    14    40    39   ar
    15   160   159    1
    16   120   118    1
    17    48    47   ar
    18    39    38    1
    19     1     2    1
    20   118   117    2
    21   118   119    1
    22    49    47   ar
    23    35    38    1
    24    35    36    1
    25   159   158    1
    26   117   116    1
    27    47    46    1
    28     2     3    1
    29     2     5    1
    30     7     5    1
    31   116   115    1
    32    29    27    1
    33   115   114    1
    34     3     4    2
    35    28    27    1
    36    36    37    2
    37   158   155    1
    38    26    23    1
    39    26    27    1
    40    42    43    1
    41    24    23    1
    42    24    25    2
    43     5     6    1
    44    46    43    1
    45    23    22    1
    46    43    44    1
    47   114   111    1
    48    65    64    1
    49   166   165    1
    50   166   167    1
    51   165   156   am
    52   155   156    1
    53   155   154    1
    54    64    61    1
    55   156   157    2
    56   129   127   am
    57   137   136    2
    58   138   136   am
    59   111   112    1
    60   111   110    1
    61    44    45    2
    62    44    52   am
    63   113   112    2
    64   136   135    1
    65   168   167    2
    66   167   169   am
    67   154   149   am
    68    13    12    1
    69   127   128    2
    70   127   126    1
    71    17    16    2
    72    61    60    1
    73    61    62    1
    74    12     9    1
    75    52    53    1
    76   110   106   am
    77   135   134    1
    78   126   125    1
    79    11    10    2
    80   169   170    1
    81   149   150    2
    82   149   148    1
    83    62    66   am
    84    62    63    2
    85    16    15    1
    86    10     9    1
    87     9     8    1
    88    66    67    1
    89    18    15    1
    90    18    19    1
    91   134   131    1
    92    20    19    1
    93    53    54    1
    94    53    56    1
    95   106   107    2
    96   106   105    1
    97    57    56    1
    98    57    58    1
    99    57    59    1
   100   125   122    1
   101    54    55    2
   102    15    14    1
   103   148   151    1
   104   148   147    1
   105   170   171    1
   106   170   173    1
   107   176   174    1
   108    19    21    1
   109   105   108    1
   110   105   104    1
   111    67    70    1
   112    67    68    1
   113   131   130    1
   114   131   132    1
   115   108   109    1
   116   151   152    1
   117   174   173    1
   118   174   175    1
   119   130   123   am
   120   100    99    2
   121   172   171    2
   122   123   122    1
   123   123   124    2
   124   122   121    1
   125   147   153    1
   126   104    99   am
   127    68    69    2
   128   132   133    2
   129    99    98    1
   130   152   153    1
   131   103   101    1
   132    81    80   ar
   133    81    79   ar
   134    98    97    1
   135    98   101    1
   136    97    91   am
   137    96    94    1
   138    80    78   ar
   139   102   101    1
   140    79    77   ar
   141    85    84    2
   142    78    76   ar
   143    91    90    1
   144    91    92    2
   145    90    93    1
   146    90    89    1
   147    77    76   ar
   148    87    88    1
   149    87    86    1
   150    76    75    1
   151    94    93    1
   152    94    95    1
   153    84    89   am
   154    84    83    1
   155    88    82    1
   156    86    83    1
   157    75    72    1
   158   146   144    1
   159    83    82    1
   160   139   140    1
   161    72    73    1
   162    72    71    1
   163   144   143    1
   164   144   145    1
   165    73    74    2
   166   143   140    1
   167   140   141    1
   168   142   141    2
