@<TRIPOS>MOLECULE
tmp/5lxtD01.pdb
 161 155 0 0 0
SMALL
GASTEIGER

@<TRIPOS>ATOM
      1  N          3.8470  -12.1740  -35.9000 N.3   211  CYS211     -0.1235
      2  CA         3.2150  -12.2630  -37.2150 C.3   211  CYS211      0.1677
      3  C          2.3870  -13.5310  -37.3710 C.2   211  CYS211      0.2270
      4  O          1.2820  -13.5000  -37.9170 O.2   211  CYS211     -0.2867
      5  CB         4.2680  -12.2040  -38.3200 C.3   211  CYS211      0.0956
      6  SG         5.0030  -10.5850  -38.5570 S.3   211  CYS211     -0.0801
      7  N         -0.9630  -12.0420  -35.4870 N.3   215  LEU215     -0.1245
      8  CA        -1.4930  -11.4730  -36.7230 C.3   215  LEU215      0.1561
      9  C         -1.9970  -12.5330  -37.6920 C.2   215  LEU215      0.2260
     10  O         -2.4600  -12.2090  -38.7860 O.2   215  LEU215     -0.2867
     11  CB        -0.4270  -10.6190  -37.4030 C.3   215  LEU215      0.0270
     12  CG         0.2290   -9.6430  -36.4330 C.3   215  LEU215      0.0019
     13  CD1        1.1850   -8.7130  -37.1550 C.3   215  LEU215      0.0001
     14  CD2       -0.8430   -8.8650  -35.6840 C.3   215  LEU215      0.0001
     15  N         -0.5090  -14.6370  -39.6410 N.3   217  LEU217     -0.1245
     16  CA         0.1460  -14.7480  -40.9390 C.3   217  LEU217      0.1561
     17  C          0.8310  -16.1060  -41.0510 C.2   217  LEU217      0.2260
     18  O          1.8050  -16.3760  -40.3480 O.2   217  LEU217     -0.2867
     19  CB         1.1650  -13.6230  -41.1500 C.3   217  LEU217      0.0270
     20  CG         0.6870  -12.1760  -41.0100 C.3   217  LEU217      0.0019
     21  CD1        1.7750  -11.2120  -41.4610 C.3   217  LEU217      0.0001
     22  CD2       -0.5920  -11.9390  -41.7860 C.3   217  LEU217      0.0001
     23  N          9.1970   -8.3570  -45.2880 N.3   223  GLY223     -0.1210
     24  CA         8.3680   -7.1650  -45.3110 C.3   223  GLY223      0.1956
     25  C          7.5210   -7.0080  -44.0560 C.2   223  GLY223      0.2611
     26  O          7.4890   -5.9270  -43.4610 O.2   223  GLY223     -0.2717
     27  N          6.8350   -8.0770  -43.6540 N.am  224  ASP224     -0.1973
     28  CA         6.0280   -8.0580  -42.4320 C.3   224  ASP224      0.1709
     29  C          6.8870   -7.8220  -41.1960 C.2   224  ASP224      0.2293
     30  O          6.5500   -6.9910  -40.3440 O.2   224  ASP224     -0.2864
     31  CB         5.2550   -9.3670  -42.2680 C.3   224  ASP224      0.1436
     32  CG         4.2860   -9.6160  -43.4070 C.2   224  ASP224      0.3671
     33  OD1        3.4700   -8.7180  -43.7000 O.co2 224  ASP224     -0.2456
     34  OD2        4.3480  -10.7050  -44.0130 O.co2 224  ASP224     -0.2456
     35  N          8.1040   -4.1860  -40.9250 N.3   227  HIS227     -0.1226
     36  CA         7.1030   -3.2260  -40.4740 C.3   227  HIS227      0.1752
     37  C          7.1190   -3.1450  -38.9560 C.2   227  HIS227      0.2595
     38  O          7.0640   -2.0550  -38.3860 O.2   227  HIS227     -0.2718
     39  CB         5.7030   -3.5970  -40.9680 C.3   227  HIS227      0.0759
     40  CG         5.3110   -2.9050  -42.2340 C.ar  227  HIS227      0.0818
     41  ND1        5.5490   -3.4410  -43.4820 N.ar  227  HIS227     -0.2268
     42  CD2        4.7050   -1.7130  -42.4460 C.ar  227  HIS227      0.1154
     43  CE1        5.0990   -2.6130  -44.4080 C.ar  227  HIS227      0.1986
     44  NE2        4.5840   -1.5560  -43.8060 N.ar  227  HIS227     -0.2212
     45  N          7.1930   -4.3030  -38.3050 N.am  228  LEU228     -0.1980
     46  CA         7.3050   -4.3460  -36.8510 C.3   228  LEU228      0.1596
     47  C          8.5650   -3.6080  -36.4060 C.2   228  LEU228      0.2287
     48  O          8.5350   -2.8320  -35.4550 O.2   228  LEU228     -0.2864
     49  CB         7.3180   -5.7910  -36.3440 C.3   228  LEU228      0.0297
     50  CG         6.0700   -6.6460  -36.6230 C.3   228  LEU228      0.0022
     51  CD1        6.2870   -8.0750  -36.1530 C.3   228  LEU228      0.0001
     52  CD2        4.8320   -6.0560  -35.9580 C.3   228  LEU228      0.0001
     53  N         10.3240   -1.2150  -38.0160 N.3   230  SER230     -0.1202
     54  CA        10.2680    0.2240  -38.2690 C.3   230  SER230      0.2020
     55  C          9.2590    0.9080  -37.3420 C.2   230  SER230      0.2618
     56  O          9.5120    2.0050  -36.8550 O.2   230  SER230     -0.2717
     57  CB         9.9410    0.5160  -39.7370 C.3   230  SER230      0.2103
     58  OG         8.6390    0.0910  -40.0910 O.3   230  SER230     -0.2182
     59  N          8.1250    0.2650  -37.0820 N.am  231  ALA231     -0.1979
     60  CA         7.1860    0.8080  -36.1060 C.3   231  ALA231      0.1597
     61  C          7.8850    0.9920  -34.7670 C.2   231  ALA231      0.2287
     62  O          7.7040    2.0020  -34.0810 O.2   231  ALA231     -0.2864
     63  CB         5.9830   -0.0990  -35.9500 C.3   231  ALA231      0.0319
     64  N          5.6960   -2.8630  -28.5650 N.3   270  PHE270     -0.1241
     65  CA         4.8340   -1.9620  -29.3240 C.3   270  PHE270      0.1605
     66  C          3.3610   -2.3330  -29.1620 C.2   270  PHE270      0.2264
     67  O          3.0100   -3.5080  -29.0220 O.2   270  PHE270     -0.2867
     68  CB         5.2200   -1.9740  -30.8130 C.3   270  PHE270      0.0534
     69  CG         4.4150   -1.0120  -31.6660 C.ar  270  PHE270     -0.0203
     70  CD1        3.1910   -1.3830  -32.1900 C.ar  270  PHE270     -0.0042
     71  CD2        4.8930    0.2670  -31.9370 C.ar  270  PHE270     -0.0042
     72  CE1        2.4450   -0.5000  -32.9640 C.ar  270  PHE270     -0.0003
     73  CE2        4.1560    1.1550  -32.7150 C.ar  270  PHE270     -0.0003
     74  CZ         2.9300    0.7670  -33.2280 C.ar  270  PHE270     -0.0000
     75  N         -0.6670   -0.7530  -30.7420 N.3   272  PRO272     -0.2102
     76  CA        -1.3410   -2.0540  -30.7020 C.3   272  PRO272      0.1504
     77  C         -0.7950   -3.0850  -31.6950 C.2   272  PRO272      0.2576
     78  O         -0.3490   -2.7260  -32.7870 O.2   272  PRO272     -0.2718
     79  CB        -2.7810   -1.6930  -31.0700 C.3   272  PRO272      0.0282
     80  CG        -2.6140   -0.5750  -32.0530 C.3   272  PRO272      0.0208
     81  CD        -1.4200    0.2240  -31.5510 C.3   272  PRO272      0.0893
     82  N         -0.8400   -4.3550  -31.3030 N.am  273  LEU273     -0.1966
     83  CA        -0.5680   -5.4670  -32.2070 C.3   273  LEU273      0.1728
     84  C         -1.8480   -6.2840  -32.2690 C.2   273  LEU273      0.2617
     85  O         -2.1980   -7.0080  -31.3300 O.2   273  LEU273     -0.2715
     86  CB         0.6170   -6.3170  -31.7380 C.3   273  LEU273      0.0311
     87  CG         2.0010   -5.6610  -31.7350 C.3   273  LEU273      0.0022
     88  CD1        3.0420   -6.5600  -31.0780 C.3   273  LEU273      0.0001
     89  CD2        2.4350   -5.3020  -33.1510 C.3   273  LEU273      0.0001
     90  N         -2.5660   -6.1300  -33.3690 N.am  274  THR274     -0.1937
     91  CA        -3.8830   -6.7220  -33.5020 C.3   274  THR274      0.2028
     92  C         -4.0610   -7.1870  -34.9360 C.2   274  THR274      0.2643
     93  O         -3.5010   -6.5960  -35.8570 O.2   274  THR274     -0.2714
     94  CB        -4.9870   -5.7210  -33.1170 C.3   274  THR274      0.1808
     95  OG1       -4.8040   -4.5020  -33.8490 O.3   274  THR274     -0.2208
     96  CG2       -4.9200   -5.4050  -31.6260 C.3   274  THR274      0.0379
     97  N         -4.8180   -8.2580  -35.1280 N.am  275  SER275     -0.1935
     98  CA        -5.0340   -8.7720  -36.4730 C.3   275  SER275      0.2055
     99  C         -6.0090   -7.8780  -37.2310 C.2   275  SER275      0.2643
    100  O         -6.8040   -7.1570  -36.6220 O.2   275  SER275     -0.2714
    101  CB        -5.5520  -10.2110  -36.4270 C.3   275  SER275      0.2130
    102  OG        -6.7370  -10.2990  -35.6570 O.3   275  SER275     -0.2179
    103  N         -5.9290   -7.9210  -38.5580 N.am  276  ARG276     -0.1963
    104  CA        -6.8480   -7.1880  -39.4170 C.3   276  ARG276      0.1729
    105  C         -8.2960   -7.4870  -39.0580 C.2   276  ARG276      0.2617
    106  O         -8.6840   -8.6470  -38.9070 O.2   276  ARG276     -0.2715
    107  CB        -6.5980   -7.5320  -40.8880 C.3   276  ARG276      0.0348
    108  CG        -5.5720   -6.6480  -41.5670 C.3   276  ARG276      0.0492
    109  CD        -6.2400   -5.4820  -42.2760 C.3   276  ARG276      0.2205
    110  NE        -5.3940   -4.2910  -42.2820 N.pl3 276  ARG276     -0.0865
    111  CZ        -4.2610   -4.1790  -42.9670 C.cat 276  ARG276      0.5346
    112  NH1       -3.8210   -5.1930  -43.7020 N.pl3 276  ARG276      0.1354
    113  NH2       -3.5660   -3.0530  -42.9140 N.pl3 276  ARG276      0.1354
    114  N         -9.0890   -6.4320  -38.9180 N.am  277  GLY277     -0.1940
    115  CA       -10.5080   -6.5860  -38.6610 C.3   277  GLY277      0.2014
    116  C        -10.7680   -7.2660  -37.3360 C.2   277  GLY277      0.2639
    117  O        -11.6120   -8.1560  -37.2340 O.2   277  GLY277     -0.2714
    118  N        -10.0260   -6.8470  -36.3190 N.am  278  SER278     -0.1949
    119  CA       -10.2080   -7.3660  -34.9740 C.3   278  SER278      0.1924
    120  C        -10.0210   -6.2360  -33.9690 C.2   278  SER278      0.2314
    121  O        -10.2050   -5.0650  -34.3080 O.2   278  SER278     -0.2863
    122  CB        -9.2260   -8.5090  -34.6720 C.3   278  SER278      0.2116
    123  OG        -8.6330   -8.9620  -35.8950 O.3   278  SER278     -0.2180
    124  N         -8.9080   -0.0600  -27.9230 N.3   279  LEU279     -0.1245
    125  CA        -7.8690    0.9350  -28.1650 C.3   279  LEU279      0.1561
    126  C         -7.9860    2.1030  -27.1840 C.2   279  LEU279      0.2260
    127  O         -7.7920    3.2630  -27.5500 O.2   279  LEU279     -0.2867
    128  CB        -7.9400    1.4420  -29.6080 C.3   279  LEU279      0.0270
    129  CG        -6.7900    2.3290  -30.0930 C.3   279  LEU279      0.0019
    130  CD1       -5.5020    1.5250  -30.2540 C.3   279  LEU279      0.0001
    131  CD2       -7.1640    3.0390  -31.3860 C.3   279  LEU279      0.0001
    132  N          2.0970    7.7200  -34.9270 N.3   353  PRO353     -0.2102
    133  CA         2.6270    7.1050  -36.1490 C.3   353  PRO353      0.1504
    134  C          1.6380    7.2530  -37.2890 C.2   353  PRO353      0.2576
    135  O          0.4590    7.5340  -37.0540 O.2   353  PRO353     -0.2718
    136  CB         2.7990    5.6270  -35.7700 C.3   353  PRO353      0.0282
    137  CG         2.7750    5.5960  -34.2750 C.3   353  PRO353      0.0208
    138  CD         1.8890    6.7330  -33.8560 C.3   353  PRO353      0.0893
    139  N          2.1120    7.0590  -38.5130 N.am  354  ARG354     -0.1966
    140  CA         1.2570    7.1630  -39.6790 C.3   354  ARG354      0.1729
    141  C          0.1320    6.1370  -39.5940 C.2   354  ARG354      0.2617
    142  O          0.3670    4.9810  -39.2500 O.2   354  ARG354     -0.2715
    143  CB         2.0800    6.9640  -40.9520 C.3   354  ARG354      0.0348
    144  CG         1.3430    7.2200  -42.2460 C.3   354  ARG354      0.0492
    145  CD         2.2490    6.8490  -43.4070 C.3   354  ARG354      0.2205
    146  NE         1.8480    7.4770  -44.6600 N.pl3 354  ARG354     -0.0865
    147  CZ         2.5660    7.4240  -45.7770 C.cat 354  ARG354      0.5346
    148  NH1        2.1350    8.0240  -46.8780 N.pl3 354  ARG354      0.1354
    149  NH2        3.7230    6.7720  -45.7880 N.pl3 354  ARG354      0.1354
    150  N         -1.0900    6.5760  -39.8780 N.am  355  GLY355     -0.1940
    151  CA        -2.2390    5.6870  -39.9130 C.3   355  GLY355      0.2014
    152  C         -2.8360    5.2800  -38.5740 C.2   355  GLY355      0.2638
    153  O         -3.8050    4.5280  -38.5410 O.2   355  GLY355     -0.2714
    154  N         -2.2750    5.7680  -37.4710 N.am  356  LEU356     -0.1977
    155  CA        -2.7800    5.4110  -36.1460 C.3   356  LEU356      0.1596
    156  C         -3.2190    6.6320  -35.3420 C.2   356  LEU356      0.2287
    157  O         -2.5640    7.6730  -35.3730 O.2   356  LEU356     -0.2864
    158  CB        -1.7180    4.6420  -35.3480 C.3   356  LEU356      0.0297
    159  CG        -1.4130    3.1820  -35.6880 C.3   356  LEU356      0.0022
    160  CD1       -0.3840    2.6120  -34.7130 C.3   356  LEU356      0.0001
    161  CD2       -2.6880    2.3460  -35.6750 C.3   356  LEU356      0.0001
@<TRIPOS>BOND
     1   148   147    1
     2   149   147    1
     3   147   146    2
     4    24    23    1
     5    24    25    1
     6   146   145    1
     7    43    44   ar
     8    43    41   ar
     9    25    27   am
    10    25    26    2
    11    34    32   ar
    12    44    42   ar
    13   112   111    1
    14    33    32   ar
    15    27    28    1
    16    41    40   ar
    17    32    31    1
    18   145   144    1
    19   111   113    1
    20   111   110    2
    21    42    40   ar
    22    28    31    1
    23    28    29    1
    24   110   109    1
    25   109   108    1
    26   144   143    1
    27    40    39    1
    28    22    20    1
    29   108   107    1
    30    21    20    1
    31    29    30    2
    32    19    20    1
    33    19    16    1
    34    17    16    1
    35    17    18    2
    36    39    36    1
    37   143   140    1
    38    16    15    1
    39    35    36    1
    40   107   104    1
    41    36    37    1
    42    58    57    1
    43   151   150    1
    44   151   152    1
    45   150   141   am
    46    57    54    1
    47   140   141    1
    48   140   139    1
    49   141   142    2
    50   104   105    1
    51   104   103    1
    52   105   114   am
    53   105   106    2
    54    37    38    2
    55    37    45   am
    56   114   115    1
    57    10     9    2
    58   115   116    1
    59   152   153    2
    60   152   154   am
    61   103    99   am
    62     6     5    1
    63   139   134   am
    64     5     2    1
    65    45    46    1
    66    54    53    1
    67    54    55    1
    68     4     3    2
    69     9     8    1
    70   154   155    1
    71    11     8    1
    72    11    12    1
    73     3     2    1
    74    55    59   am
    75    55    56    2
    76   116   117    2
    77   116   118   am
    78   134   135    2
    79   134   133    1
    80    99   100    2
    81    99    98    1
    82     2     1    1
    83    13    12    1
    84    59    60    1
    85    46    47    1
    86    46    49    1
    87     8     7    1
    88    50    49    1
    89    50    51    1
    90    50    52    1
    91    98   101    1
    92    98    97    1
    93    12    14    1
    94   101   102    1
    95    47    48    2
    96   118   119    1
    97   133   136    1
    98   133   132    1
    99   155   158    1
   100   155   156    1
   101    60    63    1
   102    60    61    1
   103   123   122    1
   104    93    92    2
   105   136   137    1
   106   159   161    1
   107   159   158    1
   108   159   160    1
   109   157   156    2
   110    97    92   am
   111   119   122    1
   112   119   120    1
   113    92    91    1
   114   132   138    1
   115    61    62    2
   116   121   120    2
   117   137   138    1
   118    95    94    1
   119    91    90    1
   120    91    94    1
   121    90    84   am
   122    74    72   ar
   123    74    73   ar
   124    89    87    1
   125    94    96    1
   126    72    70   ar
   127    78    77    2
   128    73    71   ar
   129    84    83    1
   130    84    85    2
   131    83    86    1
   132    83    82    1
   133    70    69   ar
   134    80    81    1
   135    80    79    1
   136    71    69   ar
   137    86    87    1
   138    87    88    1
   139    77    82   am
   140    77    76    1
   141    69    68    1
   142    81    75    1
   143   131   129    1
   144    79    76    1
   145    68    65    1
   146    75    76    1
   147   130   129    1
   148   129   128    1
   149   128   125    1
   150    65    66    1
   151    65    64    1
   152    66    67    2
   153   125   124    1
   154   125   126    1
   155   127   126    2
