@<TRIPOS>MOLECULE
tmp/5ly7A00.pdb
 156 145 0 0 0
SMALL
GASTEIGER

@<TRIPOS>ATOM
      1  N        204.6630  -11.3180   69.7440 N.3    32  ILE32      -0.1245
      2  CA       204.8030  -11.0520   71.1770 C.3    32  ILE32       0.1561
      3  C        204.9620  -12.3630   71.9580 C.2    32  ILE32       0.2260
      4  O        204.3770  -13.3950   71.6000 O.2    32  ILE32      -0.2867
      5  CB       203.6410  -10.1770   71.6970 C.3    32  ILE32       0.0252
      6  CG1      203.9340   -9.6830   73.1060 C.3    32  ILE32       0.0019
      7  CG2      202.3020  -10.8930   71.6360 C.3    32  ILE32       0.0019
      8  CD1      203.1100   -8.4920   73.4760 C.3    32  ILE32       0.0001
      9  N        205.0560  -14.5680   75.7010 N.3    34  PHE34      -0.1241
     10  CA       204.5160  -14.6170   77.0560 C.3    34  PHE34       0.1605
     11  C        205.3060  -15.5580   77.9370 C.2    34  PHE34       0.2264
     12  O        206.4290  -15.9130   77.5980 O.2    34  PHE34      -0.2867
     13  CB       203.0540  -15.0090   77.0100 C.3    34  PHE34       0.0534
     14  CG       202.2560  -14.0700   76.2180 C.ar   34  PHE34      -0.0203
     15  CD1      201.9300  -12.8460   76.7340 C.ar   34  PHE34      -0.0042
     16  CD2      201.8890  -14.3630   74.9380 C.ar   34  PHE34      -0.0042
     17  CE1      201.2120  -11.9550   75.9940 C.ar   34  PHE34      -0.0003
     18  CE2      201.1620  -13.4680   74.2050 C.ar   34  PHE34      -0.0003
     19  CZ       200.8220  -12.2760   74.7350 C.ar   34  PHE34      -0.0000
     20  N        206.1750   -8.2760   77.3630 N.3    63  ASP63      -0.1239
     21  CA       205.6720   -7.4340   78.4620 C.3    63  ASP63       0.1674
     22  C        206.6330   -7.4970   79.6450 C.2    63  ASP63       0.2266
     23  O        206.3860   -8.2040   80.6270 O.2    63  ASP63      -0.2867
     24  CB       204.2730   -7.8440   78.9410 C.3    63  ASP63       0.1410
     25  CG       203.1490   -7.2510   78.1050 C.2    63  ASP63       0.3668
     26  OD1      203.2030   -6.0520   77.7200 O.co2  63  ASP63      -0.2456
     27  OD2      202.1570   -7.9790   77.9170 O.co2  63  ASP63      -0.2456
     28  N        207.8680  -11.1790   82.3730 N.3    71  ARG71      -0.1245
     29  CA       207.8260  -12.5400   81.8270 C.3    71  ARG71       0.1563
     30  C        209.1950  -13.2220   81.8730 C.2    71  ARG71       0.2260
     31  O        209.3000  -14.3790   82.2910 O.2    71  ARG71      -0.2867
     32  CB       207.3350  -12.5610   80.3790 C.3    71  ARG71       0.0307
     33  CG       206.1100  -11.7290   80.0420 C.3    71  ARG71       0.0489
     34  CD       204.9120  -11.9320   80.9420 C.3    71  ARG71       0.2205
     35  NE       203.7250  -11.3440   80.3230 N.pl3  71  ARG71      -0.0865
     36  CZ       202.5960  -11.0570   80.9550 C.cat  71  ARG71       0.5346
     37  NH1      202.4980  -11.1890   82.2790 N.pl3  71  ARG71       0.1354
     38  NH2      201.5830  -10.5570   80.2590 N.pl3  71  ARG71       0.1354
     39  N        207.1180   -3.2280   76.1080 N.3   115  PHE115     -0.1241
     40  CA       206.0780   -2.2180   76.2100 C.3   115  PHE115      0.1605
     41  C        206.1300   -1.6420   77.6030 C.2   115  PHE115      0.2264
     42  O        205.5070   -2.1500   78.5440 O.2   115  PHE115     -0.2867
     43  CB       204.7050   -2.7810   75.9110 C.3   115  PHE115      0.0534
     44  CG       204.5590   -3.2820   74.5240 C.ar  115  PHE115     -0.0203
     45  CD1      205.0020   -2.5240   73.4470 C.ar  115  PHE115     -0.0042
     46  CD2      203.9250   -4.4840   74.2810 C.ar  115  PHE115     -0.0042
     47  CE1      204.8500   -2.9700   72.1460 C.ar  115  PHE115     -0.0003
     48  CE2      203.7640   -4.9390   72.9850 C.ar  115  PHE115     -0.0003
     49  CZ       204.2280   -4.1830   71.9130 C.ar  115  PHE115     -0.0000
     50  N        193.6660   -3.3150   87.3230 N.3   128  VAL128     -0.1245
     51  CA       194.8380   -3.6440   86.5080 C.3   128  VAL128      0.1561
     52  C        196.0290   -2.7170   86.6840 C.2   128  VAL128      0.2260
     53  O        197.1400   -3.0990   86.3200 O.2   128  VAL128     -0.2867
     54  CB       194.4870   -3.7070   85.0200 C.3   128  VAL128      0.0252
     55  CG1      193.7600   -4.9820   84.7520 C.3   128  VAL128      0.0019
     56  CG2      193.6580   -2.4970   84.6200 C.3   128  VAL128      0.0019
     57  N        201.6810   -1.1320   89.1230 N.3   132  ARG132     -0.1245
     58  CA       202.3990   -0.8710   87.8750 C.3   132  ARG132      0.1563
     59  C        202.6160    0.6210   87.6790 C.2   132  ARG132      0.2260
     60  O        203.6020    1.0230   87.0780 O.2   132  ARG132     -0.2867
     61  CB       201.6750   -1.4720   86.6680 C.3   132  ARG132      0.0307
     62  CG       201.4410   -2.9640   86.7520 C.3   132  ARG132      0.0489
     63  CD       200.4250   -3.4060   85.7300 C.3   132  ARG132      0.2205
     64  NE       200.8120   -3.3770   84.3300 N.pl3 132  ARG132     -0.0865
     65  CZ       199.9770   -3.6890   83.3380 C.cat 132  ARG132      0.5346
     66  NH1      198.7040   -3.9700   83.6010 N.pl3 132  ARG132      0.1354
     67  NH2      200.3700   -3.6450   82.0780 N.pl3 132  ARG132      0.1354
     68  N        201.9270    3.0460   77.6720 N.3   162  LYS162     -0.1231
     69  CA       200.5880    2.4820   77.7170 C.3   162  LYS162      0.1693
     70  C        200.0060    2.8940   79.0440 C.2   162  LYS162      0.2592
     71  O        200.7750    3.0640   79.9470 O.2   162  LYS162     -0.2718
     72  CB       200.6740    0.9710   77.5480 C.3   162  LYS162      0.0285
     73  CG       201.4730    0.3130   78.6240 C.3   162  LYS162      0.0035
     74  CD       201.6740   -1.1570   78.3980 C.3   162  LYS162      0.0206
     75  CE       202.2810   -1.7750   79.6410 C.3   162  LYS162      0.1093
     76  NZ       202.4700   -3.2360   79.4790 N.3   162  LYS162     -0.1314
     77  N        198.6920    3.1160   79.1830 N.am  163  HIS163     -0.1976
     78  CA       197.6810    3.0020   78.1120 C.3   163  HIS163      0.1656
     79  C        196.8910    4.2850   77.8750 C.2   163  HIS163      0.2291
     80  O        196.1350    4.7280   78.7240 O.2   163  HIS163     -0.2864
     81  CB       196.6830    1.8740   78.3990 C.3   163  HIS163      0.0771
     82  CG       197.3220    0.6180   78.9080 C.ar  163  HIS163      0.0820
     83  ND1      197.7470    0.4720   80.2140 N.ar  163  HIS163     -0.2267
     84  CD2      197.6550   -0.5320   78.2730 C.ar  163  HIS163      0.1154
     85  CE1      198.2920   -0.7220   80.3650 C.ar  163  HIS163      0.1986
     86  NE2      198.2530   -1.3480   79.2020 N.ar  163  HIS163     -0.2212
     87  N        194.4070    4.4220   82.0360 N.3   167  HIS167     -0.1241
     88  CA       193.6100    3.3390   82.5610 C.3   167  HIS167      0.1621
     89  C        193.4100    3.5020   84.0570 C.2   167  HIS167      0.2264
     90  O        192.7310    2.6830   84.6740 O.2   167  HIS167     -0.2867
     91  CB       194.3200    2.0190   82.2450 C.3   167  HIS167      0.0745
     92  CG       193.4110    0.9260   81.7910 C.ar  167  HIS167      0.0817
     93  ND1      192.4890    0.3250   82.6230 N.ar  167  HIS167     -0.2268
     94  CD2      193.2610    0.3440   80.5820 C.ar  167  HIS167      0.1154
     95  CE1      191.8270   -0.5950   81.9480 C.ar  167  HIS167      0.1986
     96  NE2      192.2780   -0.6040   80.7070 N.ar  167  HIS167     -0.2212
     97  N        188.0790   -3.9640   84.7520 N.3   173  ASP173     -0.1225
     98  CA       189.2150   -4.5500   84.0460 C.3   173  ASP173      0.1805
     99  C        188.9250   -4.6930   82.5550 C.2   173  ASP173      0.2598
    100  O        187.8350   -5.0820   82.1340 O.2   173  ASP173     -0.2718
    101  CB       189.5890   -5.9200   84.6110 C.3   173  ASP173      0.1424
    102  CG       190.8930   -6.4550   84.0290 C.2   173  ASP173      0.3668
    103  OD1      191.4050   -5.8740   83.0440 O.co2 173  ASP173     -0.2456
    104  OD2      191.3810   -7.5000   84.5180 O.co2 173  ASP173     -0.2456
    105  N        189.9600   -4.4420   81.7700 N.am  174  SER174     -0.1952
    106  CA       189.8690   -4.3710   80.3260 C.3   174  SER174      0.1924
    107  C        189.9270   -5.7530   79.6680 C.2   174  SER174      0.2314
    108  O        189.5530   -5.8970   78.4990 O.2   174  SER174     -0.2863
    109  CB       190.9890   -3.4490   79.8300 C.3   174  SER174      0.2116
    110  OG       190.8660   -3.1500   78.4640 O.3   174  SER174     -0.2180
    111  N        200.1760    2.7410   73.1890 N.3   207  MET207     -0.1245
    112  CA       199.1130    1.7480   73.1360 C.3   207  MET207      0.1570
    113  C        197.8300    2.2820   73.7520 C.2   207  MET207      0.2261
    114  O        197.7840    2.5080   74.9600 O.2   207  MET207     -0.2867
    115  CB       199.5640    0.5140   73.8810 C.3   207  MET207      0.0387
    116  CG       198.6310   -0.6630   73.8380 C.3   207  MET207      0.0595
    117  SD       199.4290   -2.0820   74.6040 S.3   207  MET207     -0.1393
    118  CE       200.8620   -2.3460   73.5540 C.3   207  MET207      0.0692
    119  N        196.0940   -2.0810   71.6280 N.3   245  ASP245     -0.1225
    120  CA       196.1270   -3.0140   72.7340 C.3   245  ASP245      0.1805
    121  C        195.5270   -4.3370   72.2610 C.2   245  ASP245      0.2597
    122  O        194.8530   -4.3990   71.2230 O.2   245  ASP245     -0.2718
    123  CB       195.3830   -2.4370   73.9400 C.3   245  ASP245      0.1424
    124  CG       195.8130   -3.0780   75.2560 C.2   245  ASP245      0.3668
    125  OD1      196.0250   -4.3140   75.2740 O.co2 245  ASP245     -0.2456
    126  OD2      195.9430   -2.3530   76.2710 O.co2 245  ASP245     -0.2456
    127  N        195.7840   -5.3950   73.0310 N.am  246  ASP246     -0.1974
    128  CA       195.4150   -6.7570   72.6490 C.3   246  ASP246      0.1709
    129  C        193.9520   -6.8450   72.2220 C.2   246  ASP246      0.2293
    130  O        193.0650   -6.5200   72.9900 O.2   246  ASP246     -0.2864
    131  CB       195.7040   -7.7070   73.8140 C.3   246  ASP246      0.1436
    132  CG       195.4380   -9.1710   73.4760 C.2   246  ASP246      0.3671
    133  OD1      195.4510   -9.5530   72.2760 O.co2 246  ASP246     -0.2456
    134  OD2      195.2390   -9.9540   74.4370 O.co2 246  ASP246     -0.2456
    135  N        190.9670   -9.2280   74.0330 N.3   249  MET249     -0.1245
    136  CA       190.3350   -8.9450   75.3270 C.3   249  MET249      0.1570
    137  C        188.9050   -8.4540   75.1480 C.2   249  MET249      0.2261
    138  O        188.4700   -8.1130   74.0490 O.2   249  MET249     -0.2867
    139  CB       191.1040   -7.8900   76.1120 C.3   249  MET249      0.0387
    140  CG       192.5640   -7.8000   75.7780 C.3   249  MET249      0.0595
    141  SD       193.3910   -6.5260   76.7410 S.3   249  MET249     -0.1393
    142  CE       193.5760   -7.4440   78.2400 C.3   249  MET249      0.0692
    143  N        197.2700   -5.8800   67.6910 N.3   274  LEU274     -0.1245
    144  CA       197.7010   -6.9900   68.5420 C.3   274  LEU274      0.1561
    145  C        196.5870   -8.0030   68.7210 C.2   274  LEU274      0.2260
    146  O        195.5820   -7.7150   69.3750 O.2   274  LEU274     -0.2867
    147  CB       198.1440   -6.4970   69.9110 C.3   274  LEU274      0.0270
    148  CG       199.6490   -6.4730   70.0840 C.3   274  LEU274      0.0019
    149  CD1      200.2780   -5.3910   69.2110 C.3   274  LEU274      0.0001
    150  CD2      199.9230   -6.2040   71.5370 C.3   274  LEU274      0.0001
    151  N        196.3560  -11.6660   70.4280 N.3   276  CYS276     -0.1235
    152  CA       197.0550  -12.6450   71.2390 C.3   276  CYS276      0.1677
    153  C        196.0870  -13.6720   71.7780 C.2   276  CYS276      0.2270
    154  O        194.8960  -13.4100   71.9560 O.2   276  CYS276     -0.2867
    155  CB       197.7940  -11.9940   72.4090 C.3   276  CYS276      0.0956
    156  SG       198.4980  -10.3750   72.0430 S.3   276  CYS276     -0.0801
@<TRIPOS>BOND
     1   143   144    1
     2   144   145    1
     3   144   147    1
     4   145   146    2
     5   149   148    1
     6     1     2    1
     7   147   148    1
     8   148   150    1
     9   151   152    1
    10     2     5    1
    11     2     3    1
    12   122   121    2
    13   152   153    1
    14   152   155    1
    15     4     3    2
    16   119   120    1
    17     7     5    1
    18     5     6    1
    19   153   154    2
    20    49    47   ar
    21    49    48   ar
    22   156   155    1
    23    47    45   ar
    24   129   128    1
    25   129   130    2
    26   121   120    1
    27   121   127   am
    28   133   132   ar
    29   128   127    1
    30   128   131    1
    31   120   123    1
    32    48    46   ar
    33     6     8    1
    34   112   111    1
    35   112   113    1
    36   112   115    1
    37    45    44   ar
    38   132   131    1
    39   132   134   ar
    40   118   117    1
    41   113   114    2
    42   116   115    1
    43   116   117    1
    44   123   124    1
    45   135   136    1
    46   138   137    2
    47    18    19   ar
    48    18    16   ar
    49    46    44   ar
    50    44    43    1
    51    19    17   ar
    52    16    14   ar
    53   137   136    1
    54   124   125   ar
    55   124   126   ar
    56   136   139    1
    57     9    10    1
    58   140   139    1
    59   140   141    1
    60    43    40    1
    61    17    15   ar
    62    39    40    1
    63    40    41    1
    64    14    15   ar
    65    14    13    1
    66   141   142    1
    67    13    10    1
    68    10    11    1
    69    20    21    1
    70    72    69    1
    71    72    73    1
    72    12    11    2
    73    41    42    2
    74    68    69    1
    75    69    70    1
    76    26    25   ar
    77    79    78    1
    78    79    80    2
    79    27    25   ar
    80    25    24    1
    81    78    81    1
    82    78    77    1
    83    84    82   ar
    84    84    86   ar
    85    74    73    1
    86    74    75    1
    87    81    82    1
    88    21    24    1
    89    21    22    1
    90   110   109    1
    91   108   107    2
    92    82    83   ar
    93    70    77   am
    94    70    71    2
    95    86    85   ar
    96    76    75    1
    97    22    23    2
    98   107   106    1
    99   109   106    1
   100    33    32    1
   101    33    34    1
   102    83    85   ar
   103    38    36    1
   104    35    34    1
   105    35    36    2
   106   106   105    1
   107    32    29    1
   108    94    96   ar
   109    94    92   ar
   110    96    95   ar
   111    36    37    1
   112   105    99   am
   113    92    91    1
   114    92    93   ar
   115    29    30    1
   116    29    28    1
   117    30    31    2
   118    95    93   ar
   119    87    88    1
   120    67    65    1
   121   100    99    2
   122    91    88    1
   123    99    98    1
   124    88    89    1
   125   103   102   ar
   126    65    66    1
   127    65    64    2
   128   102   104   ar
   129   102   101    1
   130    98   101    1
   131    98    97    1
   132    89    90    2
   133    64    63    1
   134    56    54    1
   135    55    54    1
   136    54    51    1
   137    63    62    1
   138    53    52    2
   139    51    52    1
   140    51    50    1
   141    61    62    1
   142    61    58    1
   143    60    59    2
   144    59    58    1
   145    58    57    1
