@<TRIPOS>MOLECULE
tmp/5ly9A00.pdb
 85 80 0 0 0
SMALL
GASTEIGER

@<TRIPOS>ATOM
      1  N         50.9990   72.8570   27.1570 N.3    38  ASN38      -0.1240
      2  CA        50.6460   72.0510   28.3400 C.3    38  ASN38       0.1653
      3  C         51.7280   72.0510   29.4210 C.2    38  ASN38       0.2266
      4  O         51.4370   72.2340   30.6150 O.2    38  ASN38      -0.2867
      5  CB        50.2960   70.6130   27.9780 C.3    38  ASN38       0.1155
      6  CG        48.9000   70.4600   27.3980 C.2    38  ASN38       0.2627
      7  OD1       48.1170   71.4300   27.2900 O.2    38  ASN38      -0.2716
      8  ND2       48.5640   69.2400   27.0800 N.am   38  ASN38      -0.0877
      9  N         51.5160   75.4490   31.0260 N.3    41  LYS41      -0.1231
     10  CA        50.3770   75.5910   31.9070 C.3    41  LYS41       0.1693
     11  C         50.6810   74.9360   33.2570 C.2    41  LYS41       0.2591
     12  O         50.2420   75.4350   34.2890 O.2    41  LYS41      -0.2718
     13  CB        49.1600   74.9130   31.2940 C.3    41  LYS41       0.0285
     14  CG        48.6320   75.7050   30.1110 C.3    41  LYS41       0.0035
     15  CD        47.4030   75.0090   29.5320 C.3    41  LYS41       0.0206
     16  CE        46.9070   75.7980   28.3220 C.3    41  LYS41       0.1093
     17  NZ        45.8210   75.0610   27.6580 N.3    41  LYS41      -0.1314
     18  N         51.3710   73.7960   33.2440 N.am   42  ILE42      -0.1980
     19  CA        51.7180   73.1120   34.4940 C.3    42  ILE42       0.1595
     20  C         52.7940   73.8650   35.2330 C.2    42  ILE42       0.2287
     21  O         52.7420   73.9510   36.5050 O.2    42  ILE42      -0.2864
     22  CB        52.0790   71.6340   34.2480 C.3    42  ILE42       0.0276
     23  CG1       50.8830   70.8810   33.6410 C.3    42  ILE42       0.0022
     24  CG2       52.3830   70.8820   35.5170 C.3    42  ILE42       0.0022
     25  CD1       51.2980   69.5450   33.1150 C.3    42  ILE42       0.0001
     26  N         51.0540   76.6110   37.0110 N.3    45  ALA45      -0.1245
     27  CA        50.4140   76.1340   38.2210 C.3    45  ALA45       0.1562
     28  C         51.4270   75.9570   39.3600 C.2    45  ALA45       0.2260
     29  O         51.1440   76.3360   40.5190 O.2    45  ALA45      -0.2867
     30  CB        49.6580   74.8580   37.9620 C.3    45  ALA45       0.0290
     31  N         52.0150   79.4480   40.6460 N.3    48  LYS48      -0.1245
     32  CA        50.8940   80.0190   41.4170 C.3    48  LYS48       0.1561
     33  C         50.9090   79.4870   42.8080 C.2    48  LYS48       0.2260
     34  O         50.7820   80.2410   43.7620 O.2    48  LYS48      -0.2867
     35  CB        49.5350   79.7970   40.7420 C.3    48  LYS48       0.0271
     36  CG        49.4670   80.5540   39.4360 C.3    48  LYS48       0.0035
     37  CD        48.1120   80.5890   38.7990 C.3    48  LYS48       0.0206
     38  CE        48.1670   80.5610   37.2990 C.3    48  LYS48       0.1093
     39  NZ        46.8410   80.8610   36.7190 N.3    48  LYS48      -0.1314
     40  N         52.9950   69.6810   40.6850 N.3    72  PHE72      -0.1241
     41  CA        53.0810   70.4160   39.4240 C.3    72  PHE72       0.1605
     42  C         54.5260   70.5560   38.9540 C.2    72  PHE72       0.2264
     43  O         54.8080   70.4320   37.7600 O.2    72  PHE72      -0.2867
     44  CB        52.4590   71.8330   39.5630 C.3    72  PHE72       0.0534
     45  CG        50.9620   71.8180   39.7620 C.ar   72  PHE72      -0.0203
     46  CD1       50.1410   71.1520   38.8930 C.ar   72  PHE72      -0.0042
     47  CD2       50.3760   72.5320   40.7950 C.ar   72  PHE72      -0.0042
     48  CE1       48.7290   71.1090   39.0510 C.ar   72  PHE72      -0.0003
     49  CE2       48.9890   72.4820   41.0030 C.ar   72  PHE72      -0.0003
     50  CZ        48.1870   71.7760   40.1490 C.ar   72  PHE72      -0.0000
     51  N         52.2710   64.8240   29.3380 N.3   264  TYR264     -0.1227
     52  CA        52.0510   66.2420   29.1710 C.3   264  TYR264      0.1736
     53  C         50.7130   66.7240   29.6990 C.2   264  TYR264      0.2596
     54  O         50.3440   67.8550   29.4330 O.2   264  TYR264     -0.2718
     55  CB        52.1870   66.6490   27.6630 C.3   264  TYR264      0.0548
     56  CG        53.3740   65.9840   27.0020 C.ar  264  TYR264     -0.0200
     57  CD1       54.6760   66.2070   27.4460 C.ar  264  TYR264     -0.0009
     58  CD2       53.1930   65.0980   25.9120 C.ar  264  TYR264     -0.0009
     59  CE1       55.7300   65.5380   26.8530 C.ar  264  TYR264      0.0417
     60  CE2       54.2430   64.4810   25.2950 C.ar  264  TYR264      0.0417
     61  CZ        55.5440   64.6800   25.7590 C.ar  264  TYR264      0.1957
     62  OH        56.6140   64.0470   25.2070 O.3   264  TYR264     -0.2866
     63  N         50.0830   65.9120   30.5720 N.am  265  THR265     -0.1939
     64  CA        48.7980   66.2540   31.1430 C.3   265  THR265      0.2028
     65  C         48.7980   65.9160   32.5960 C.2   265  THR265      0.2642
     66  O         49.6480   65.1510   33.0670 O.2   265  THR265     -0.2714
     67  CB        47.6560   65.4350   30.4680 C.3   265  THR265      0.1808
     68  OG1       48.0240   64.0650   30.3920 O.3   265  THR265     -0.2208
     69  CG2       47.4220   65.9140   29.0550 C.3   265  THR265      0.0379
     70  N         47.8800   66.5240   33.3160 N.am  266  ASN266     -0.1971
     71  CA        47.6520   66.1930   34.7110 C.3   266  ASN266      0.1688
     72  C         47.1720   64.7700   34.8920 C.2   266  ASN266      0.2292
     73  O         46.4580   64.1990   34.0630 O.2   266  ASN266     -0.2864
     74  CB        46.6450   67.1760   35.2930 C.3   266  ASN266      0.1181
     75  CG        47.2190   68.6010   35.5060 C.2   266  ASN266      0.2629
     76  OD1       48.3240   68.8090   36.0850 O.2   266  ASN266     -0.2716
     77  ND2       46.4360   69.5870   35.1230 N.am  266  ASN266     -0.0877
     78  N         43.1880   74.5430   45.1540 N.3   316  LEU316     -0.1245
     79  CA        43.5990   75.1980   43.9040 C.3   316  LEU316      0.1561
     80  C         42.7560   76.4960   43.7220 C.2   316  LEU316      0.2260
     81  O         43.2540   77.5190   43.2170 O.2   316  LEU316     -0.2867
     82  CB        43.4250   74.2750   42.7450 C.3   316  LEU316      0.0270
     83  CG        44.3260   73.0310   42.7720 C.3   316  LEU316      0.0019
     84  CD1       43.9630   72.0400   41.6500 C.3   316  LEU316      0.0001
     85  CD2       45.7530   73.4340   42.7090 C.3   316  LEU316      0.0001
@<TRIPOS>BOND
     1    62    61    1
     2    60    61   ar
     3    60    58   ar
     4    61    59   ar
     5    58    56   ar
     6    59    57   ar
     7    56    57   ar
     8    56    55    1
     9     8     6   am
    10     1     2    1
    11     7     6    2
    12     6     5    1
    13    17    16    1
    14    55    52    1
    15     5     2    1
    16    16    15    1
    17     2     3    1
    18    69    67    1
    19    52    51    1
    20    52    53    1
    21     3     4    2
    22    54    53    2
    23    15    14    1
    24    53    63   am
    25    14    13    1
    26    68    67    1
    27    67    64    1
    28    63    64    1
    29     9    10    1
    30    64    65    1
    31    13    10    1
    32    10    11    1
    33    65    66    2
    34    65    70   am
    35    25    23    1
    36    18    11   am
    37    18    19    1
    38    11    12    2
    39    70    71    1
    40    23    22    1
    41    73    72    2
    42    22    19    1
    43    22    24    1
    44    19    20    1
    45    71    72    1
    46    71    74    1
    47    77    75   am
    48    20    21    2
    49    74    75    1
    50    75    76    2
    51    39    38    1
    52    26    27    1
    53    38    37    1
    54    43    42    2
    55    30    27    1
    56    27    28    1
    57    37    36    1
    58    46    48   ar
    59    46    45   ar
    60    42    41    1
    61    48    50   ar
    62    28    29    2
    63    41    44    1
    64    41    40    1
    65    36    35    1
    66    44    45    1
    67    45    47   ar
    68    50    49   ar
    69    31    32    1
    70    35    32    1
    71    47    49   ar
    72    32    33    1
    73    84    83    1
    74    85    83    1
    75    82    83    1
    76    82    79    1
    77    33    34    2
    78    81    80    2
    79    80    79    1
    80    79    78    1
