@<TRIPOS>MOLECULE
tmp/5ly9A01.pdb
 78 72 0 0 0
SMALL
GASTEIGER

@<TRIPOS>ATOM
      1  N         51.5160   75.4490   31.0260 N.3    41  LYS41      -0.1245
      2  CA        50.3770   75.5910   31.9070 C.3    41  LYS41       0.1561
      3  C         50.6810   74.9360   33.2570 C.2    41  LYS41       0.2260
      4  O         50.2420   75.4350   34.2890 O.2    41  LYS41      -0.2867
      5  CB        49.1600   74.9130   31.2940 C.3    41  LYS41       0.0271
      6  CG        48.6320   75.7050   30.1110 C.3    41  LYS41       0.0035
      7  CD        47.4030   75.0090   29.5320 C.3    41  LYS41       0.0206
      8  CE        46.9070   75.7980   28.3220 C.3    41  LYS41       0.1093
      9  NZ        45.8210   75.0610   27.6580 N.3    41  LYS41      -0.1314
     10  N         51.0540   76.6110   37.0110 N.3    45  ALA45      -0.1245
     11  CA        50.4140   76.1340   38.2210 C.3    45  ALA45       0.1562
     12  C         51.4270   75.9570   39.3600 C.2    45  ALA45       0.2260
     13  O         51.1440   76.3360   40.5190 O.2    45  ALA45      -0.2867
     14  CB        49.6580   74.8580   37.9620 C.3    45  ALA45       0.0290
     15  N         52.0150   79.4480   40.6460 N.3    48  LYS48      -0.1231
     16  CA        50.8940   80.0190   41.4170 C.3    48  LYS48       0.1693
     17  C         50.9090   79.4870   42.8080 C.2    48  LYS48       0.2591
     18  O         50.7820   80.2410   43.7620 O.2    48  LYS48      -0.2718
     19  CB        49.5350   79.7970   40.7420 C.3    48  LYS48       0.0285
     20  CG        49.4670   80.5540   39.4360 C.3    48  LYS48       0.0035
     21  CD        48.1120   80.5890   38.7990 C.3    48  LYS48       0.0206
     22  CE        48.1670   80.5610   37.2990 C.3    48  LYS48       0.1093
     23  NZ        46.8410   80.8610   36.7190 N.3    48  LYS48      -0.1314
     24  N         51.0280   78.1670   42.9470 N.am   49  VAL49      -0.1980
     25  CA        51.0620   77.5850   44.3210 C.3    49  VAL49       0.1595
     26  C         52.2830   78.0820   45.0590 C.2    49  VAL49       0.2287
     27  O         52.2000   78.4320   46.2340 O.2    49  VAL49      -0.2864
     28  CB        50.9430   76.0430   44.3280 C.3    49  VAL49       0.0276
     29  CG1       50.8060   75.5640   45.7400 C.3    49  VAL49       0.0022
     30  CG2       49.7320   75.5560   43.4960 C.3    49  VAL49       0.0022
     31  N         52.9950   69.6810   40.6850 N.3    72  PHE72      -0.1241
     32  CA        53.0810   70.4160   39.4240 C.3    72  PHE72       0.1605
     33  C         54.5260   70.5560   38.9540 C.2    72  PHE72       0.2264
     34  O         54.8080   70.4320   37.7600 O.2    72  PHE72      -0.2867
     35  CB        52.4590   71.8330   39.5630 C.3    72  PHE72       0.0534
     36  CG        50.9620   71.8180   39.7620 C.ar   72  PHE72      -0.0203
     37  CD1       50.1410   71.1520   38.8930 C.ar   72  PHE72      -0.0042
     38  CD2       50.3760   72.5320   40.7950 C.ar   72  PHE72      -0.0042
     39  CE1       48.7290   71.1090   39.0510 C.ar   72  PHE72      -0.0003
     40  CE2       48.9890   72.4820   41.0030 C.ar   72  PHE72      -0.0003
     41  CZ        48.1870   71.7760   40.1490 C.ar   72  PHE72      -0.0000
     42  N         43.1880   74.5430   45.1540 N.3   316  LEU316     -0.1245
     43  CA        43.5990   75.1980   43.9040 C.3   316  LEU316      0.1561
     44  C         42.7560   76.4960   43.7220 C.2   316  LEU316      0.2260
     45  O         43.2540   77.5190   43.2170 O.2   316  LEU316     -0.2867
     46  CB        43.4250   74.2750   42.7450 C.3   316  LEU316      0.0270
     47  CG        44.3260   73.0310   42.7720 C.3   316  LEU316      0.0019
     48  CD1       43.9630   72.0400   41.6500 C.3   316  LEU316      0.0001
     49  CD2       45.7530   73.4340   42.7090 C.3   316  LEU316      0.0001
     50  N         44.1820   79.2200   45.8310 N.3   319  VAL319     -0.1231
     51  CA        45.3510   79.8130   45.1840 C.3   319  VAL319      0.1692
     52  C         44.9290   80.8240   44.0940 C.2   319  VAL319      0.2592
     53  O         45.4480   81.9360   44.0240 O.2   319  VAL319     -0.2718
     54  CB        46.2200   78.6580   44.6080 C.3   319  VAL319      0.0266
     55  CG1       47.2510   79.1730   43.6620 C.3   319  VAL319      0.0020
     56  CG2       46.9040   77.9550   45.7600 C.3   319  VAL319      0.0020
     57  N         44.0050   80.4030   43.2530 N.am  320  ASP320     -0.1974
     58  CA        43.4750   81.2450   42.1550 C.3   320  ASP320      0.1709
     59  C         42.8750   82.5850   42.6090 C.2   320  ASP320      0.2293
     60  O         43.0780   83.5980   41.9580 O.2   320  ASP320     -0.2864
     61  CB        42.4120   80.5010   41.3630 C.3   320  ASP320      0.1436
     62  CG        43.0010   79.4540   40.4150 C.2   320  ASP320      0.3671
     63  OD1       44.2370   79.4670   40.1470 O.co2 320  ASP320     -0.2456
     64  OD2       42.1950   78.5930   39.9620 O.co2 320  ASP320     -0.2456
     65  N         44.5260   83.4670   39.5630 N.3   338  GLY338     -0.1225
     66  CA        43.7290   82.8060   38.5470 C.3   338  GLY338      0.1811
     67  C         43.6310   83.5980   37.2180 C.2   338  GLY338      0.2280
     68  O         43.3190   82.9960   36.2170 O.2   338  GLY338     -0.2866
     69  N         48.4490   84.1510   33.6840 N.3   341  HIS341     -0.1241
     70  CA        48.8340   82.8560   33.0560 C.3   341  HIS341      0.1621
     71  C         50.2640   82.8520   32.4540 C.2   341  HIS341      0.2264
     72  O         50.8180   81.7700   32.2230 O.2   341  HIS341     -0.2867
     73  CB        47.8100   82.5080   31.9720 C.3   341  HIS341      0.0745
     74  CG        47.8360   83.4360   30.8040 C.ar  341  HIS341      0.0817
     75  ND1       48.7340   83.3070   29.7560 N.ar  341  HIS341     -0.2268
     76  CD2       47.1120   84.5530   30.5460 C.ar  341  HIS341      0.1154
     77  CE1       48.5760   84.3230   28.9220 C.ar  341  HIS341      0.1986
     78  NE2       47.5690   85.0720   29.3580 N.ar  341  HIS341     -0.2212
@<TRIPOS>BOND
     1     9     8    1
     2     8     7    1
     3    77    78   ar
     4    77    75   ar
     5    78    76   ar
     6     7     6    1
     7    75    74   ar
     8     6     5    1
     9    76    74   ar
    10    74    73    1
    11     1     2    1
    12     5     2    1
    13     2     3    1
    14    73    70    1
    15    72    71    2
    16    71    70    1
    17    70    69    1
    18     3     4    2
    19    68    67    2
    20    23    22    1
    21    10    11    1
    22    67    66    1
    23    22    21    1
    24    34    33    2
    25    14    11    1
    26    11    12    1
    27    66    65    1
    28    21    20    1
    29    37    39   ar
    30    37    36   ar
    31    33    32    1
    32    39    41   ar
    33    12    13    2
    34    32    35    1
    35    32    31    1
    36    20    19    1
    37    35    36    1
    38    36    38   ar
    39    64    62   ar
    40    63    62   ar
    41    41    40   ar
    42    62    61    1
    43    15    16    1
    44    19    16    1
    45    38    40   ar
    46    61    58    1
    47    16    17    1
    48    48    47    1
    49    60    59    2
    50    58    59    1
    51    58    57    1
    52    49    47    1
    53    46    47    1
    54    46    43    1
    55    17    24   am
    56    17    18    2
    57    24    25    1
    58    45    44    2
    59    57    52   am
    60    30    28    1
    61    55    54    1
    62    44    43    1
    63    43    42    1
    64    53    52    2
    65    52    51    1
    66    25    28    1
    67    25    26    1
    68    28    29    1
    69    54    51    1
    70    54    56    1
    71    26    27    2
    72    51    50    1
