@<TRIPOS>MOLECULE
tmp/5lycB01.pdb
 80 75 0 0 0
SMALL
GASTEIGER

@<TRIPOS>ATOM
      1  N        -11.1550  -29.3880  -34.5780 N.3     6  GLY6       -0.1210
      2  CA       -12.0010  -29.2150  -35.7800 C.3     6  GLY6        0.1956
      3  C        -12.3710  -30.5460  -36.3950 C.2     6  GLY6        0.2613
      4  O        -12.4930  -31.5670  -35.7030 O.2     6  GLY6       -0.2717
      5  N        -12.5470  -30.5210  -37.7060 N.am    7  SER7       -0.1938
      6  CA       -12.8740  -31.6910  -38.4920 C.3     7  SER7        0.2055
      7  C        -11.6090  -32.2740  -39.1220 C.2     7  SER7        0.2643
      8  O        -10.9700  -31.6170  -39.9890 O.2     7  SER7       -0.2714
      9  CB       -13.8660  -31.3190  -39.6050 C.3     7  SER7        0.2130
     10  OG       -13.9890  -32.4170  -40.5040 O.3     7  SER7       -0.2179
     11  N        -11.2440  -33.4910  -38.7030 N.am    8  ALA8       -0.1963
     12  CA       -10.1900  -34.2370  -39.4010 C.3     8  ALA8        0.1728
     13  C        -10.5340  -34.5880  -40.8450 C.2     8  ALA8        0.2616
     14  O         -9.6360  -34.7300  -41.6800 O.2     8  ALA8       -0.2715
     15  CB        -9.7810  -35.5030  -38.6360 C.3     8  ALA8        0.0334
     16  N        -11.8280  -34.7260  -41.1660 N.am    9  LYS9       -0.1977
     17  CA       -12.2340  -34.9660  -42.5440 C.3     9  LYS9        0.1596
     18  C        -11.8130  -33.7870  -43.4300 C.2     9  LYS9        0.2287
     19  O        -11.1640  -33.9860  -44.4500 O.2     9  LYS9       -0.2864
     20  CB       -13.7560  -35.1900  -42.6120 C.3     9  LYS9        0.0298
     21  CG       -14.2650  -35.5840  -43.9790 C.3     9  LYS9        0.0038
     22  CD       -15.7700  -35.7560  -43.9670 C.3     9  LYS9        0.0206
     23  CE       -16.2620  -36.0880  -45.3580 C.3     9  LYS9        0.1093
     24  NZ       -17.6240  -36.6650  -45.2590 N.3     9  LYS9       -0.1314
     25  N         -7.9450  -33.6160  -43.5300 N.3    12  ALA12      -0.1245
     26  CA        -7.3320  -34.5250  -44.4770 C.3    12  ALA12       0.1562
     27  C         -7.2970  -33.9690  -45.8920 C.2    12  ALA12       0.2260
     28  O         -6.2910  -34.1370  -46.5600 O.2    12  ALA12      -0.2867
     29  CB        -8.0190  -35.8810  -44.4700 C.3    12  ALA12       0.0290
     30  N         -3.9550  -33.1880  -48.0640 N.3    16  LYS16      -0.1245
     31  CA        -3.7800  -33.6940  -49.4480 C.3    16  LYS16       0.1561
     32  C         -3.4790  -32.6000  -50.4610 C.2    16  LYS16       0.2260
     33  O         -2.6200  -32.7640  -51.3190 O.2    16  LYS16      -0.2867
     34  CB        -5.0140  -34.5350  -49.8680 C.3    16  LYS16       0.0271
     35  CG        -4.9140  -35.9410  -49.2530 C.3    16  LYS16       0.0035
     36  CD        -6.1560  -36.5360  -48.5840 C.3    16  LYS16       0.0206
     37  CE        -5.7320  -37.3870  -47.3710 C.3    16  LYS16       0.1093
     38  NZ        -6.6980  -38.4700  -47.0210 N.3    16  LYS16      -0.1314
     39  N         -6.1230  -30.9580  -36.4290 N.3   101  THR101     -0.1203
     40  CA        -6.8990  -32.0640  -35.8560 C.3   101  THR101      0.1994
     41  C         -6.5680  -33.3690  -36.6220 C.2   101  THR101      0.2617
     42  O         -6.3850  -34.4460  -36.0050 O.2   101  THR101     -0.2717
     43  CB        -8.4190  -31.7660  -35.9440 C.3   101  THR101      0.1784
     44  OG1       -8.7210  -30.5710  -35.2130 O.3   101  THR101     -0.2211
     45  CG2       -9.2330  -32.8900  -35.3670 C.3   101  THR101      0.0376
     46  N         -6.5300  -33.2560  -37.9590 N.am  102  TYR102     -0.1975
     47  CA        -6.1570  -34.3740  -38.8050 C.3   102  TYR102      0.1639
     48  C         -4.7200  -34.8160  -38.4780 C.2   102  TYR102      0.2290
     49  O         -4.4580  -35.9930  -38.2210 O.2   102  TYR102     -0.2864
     50  CB        -6.2570  -34.0270  -40.3070 C.3   102  TYR102      0.0560
     51  CG        -5.5260  -35.0210  -41.1940 C.ar  102  TYR102     -0.0198
     52  CD1       -6.0500  -36.2750  -41.4340 C.ar  102  TYR102     -0.0009
     53  CD2       -4.2740  -34.7260  -41.7340 C.ar  102  TYR102     -0.0009
     54  CE1       -5.3880  -37.1910  -42.2490 C.ar  102  TYR102      0.0417
     55  CE2       -3.5860  -35.6300  -42.5120 C.ar  102  TYR102      0.0417
     56  CZ        -4.1470  -36.8680  -42.7640 C.ar  102  TYR102      0.1957
     57  OH        -3.4790  -37.7650  -43.5290 O.3   102  TYR102     -0.2866
     58  N         -4.1460  -36.9090  -35.3930 N.3   105  LYS105     -0.1231
     59  CA        -4.5700  -38.2900  -35.5600 C.3   105  LYS105      0.1693
     60  C         -3.6580  -39.0410  -36.4940 C.2   105  LYS105      0.2591
     61  O         -3.2980  -40.1800  -36.1980 O.2   105  LYS105     -0.2718
     62  CB        -6.0060  -38.3860  -36.0580 C.3   105  LYS105      0.0285
     63  CG        -7.0410  -37.8440  -35.0730 C.3   105  LYS105      0.0035
     64  CD        -7.0080  -38.5170  -33.7020 C.3   105  LYS105      0.0206
     65  CE        -7.0820  -40.0440  -33.7590 C.3   105  LYS105      0.1093
     66  NZ        -7.0580  -40.7120  -32.3980 N.3   105  LYS105     -0.1314
     67  N         -3.2960  -38.4180  -37.6100 N.am  106  ALA106     -0.1980
     68  CA        -2.5940  -39.1030  -38.6970 C.3   106  ALA106      0.1597
     69  C         -1.1550  -39.4020  -38.3400 C.2   106  ALA106      0.2287
     70  O         -0.5930  -40.3850  -38.8440 O.2   106  ALA106     -0.2864
     71  CB        -2.6430  -38.2930  -39.9770 C.3   106  ALA106      0.0319
     72  N          0.0260  -39.8890  -35.1540 N.3   108  GLU108     -0.1245
     73  CA         0.1700  -40.4760  -33.8060 C.3   108  GLU108      0.1567
     74  C          0.6200  -41.9350  -33.9580 C.2   108  GLU108      0.2260
     75  O          1.2990  -42.4530  -33.0700 O.2   108  GLU108     -0.2867
     76  CB        -1.1450  -40.4040  -33.0100 C.3   108  GLU108      0.0388
     77  CG        -2.1310  -41.5070  -33.3850 C.3   108  GLU108      0.1160
     78  CD        -3.5830  -41.2960  -32.9520 C.2   108  GLU108      0.3649
     79  OE1       -3.9150  -40.3800  -32.1520 O.co2 108  GLU108     -0.2457
     80  OE2       -4.4090  -42.0930  -33.4450 O.co2 108  GLU108     -0.2457
@<TRIPOS>BOND
     1    33    32    2
     2    32    31    1
     3    34    31    1
     4    34    35    1
     5    31    30    1
     6    35    36    1
     7    36    37    1
     8    37    38    1
     9    28    27    2
    10    27    26    1
    11    23    24    1
    12    23    22    1
    13    26    29    1
    14    26    25    1
    15    19    18    2
    16    21    22    1
    17    21    20    1
    18    57    56    1
    19    18    17    1
    20    56    55   ar
    21    56    54   ar
    22    20    17    1
    23    17    16    1
    24    55    53   ar
    25    54    52   ar
    26    53    51   ar
    27    14    13    2
    28    52    51   ar
    29    51    50    1
    30    16    13   am
    31    13    12    1
    32    10     9    1
    33    50    47    1
    34     8     7    2
    35    71    68    1
    36     9     6    1
    37    12    11    1
    38    12    15    1
    39     7    11   am
    40     7     6    1
    41    70    69    2
    42    47    48    1
    43    47    46    1
    44    68    69    1
    45    68    67    1
    46     6     5    1
    47    48    49    2
    48    46    41   am
    49     5     3   am
    50    67    60   am
    51    41    42    2
    52    41    40    1
    53    60    61    2
    54    60    59    1
    55    39    40    1
    56     3     2    1
    57     3     4    2
    58    62    59    1
    59    62    63    1
    60    43    40    1
    61    43    45    1
    62    43    44    1
    63     2     1    1
    64    59    58    1
    65    72    73    1
    66    63    64    1
    67    74    73    1
    68    74    75    2
    69    73    76    1
    70    65    64    1
    71    65    66    1
    72    80    78   ar
    73    77    76    1
    74    77    78    1
    75    78    79   ar
