@<TRIPOS>MOLECULE
tmp/5lydA00.pdb
 158 148 0 0 0
SMALL
GASTEIGER

@<TRIPOS>ATOM
      1  N         62.1190   31.2110   40.0300 N.3    64  HIS64      -0.1241
      2  CA        62.8640   32.1190   39.1630 C.3    64  HIS64       0.1621
      3  C         64.0300   31.3660   38.5480 C.2    64  HIS64       0.2264
      4  O         64.8500   30.7770   39.2550 O.2    64  HIS64      -0.2867
      5  CB        63.3100   33.3780   39.9060 C.3    64  HIS64       0.0745
      6  CG        62.1770   34.1730   40.4730 C.ar   64  HIS64       0.0817
      7  ND1       62.1130   34.4750   41.8180 N.ar   64  HIS64      -0.2268
      8  CD2       61.0920   34.6940   39.8550 C.ar   64  HIS64       0.1154
      9  CE1       61.0010   35.1690   41.9770 C.ar   64  HIS64       0.1986
     10  NE2       60.3510   35.3210   40.8230 N.ar   64  HIS64      -0.2212
     11  N         68.0200   31.6900   39.3970 N.3    67  GLU67      -0.1245
     12  CA        68.3930   31.3720   40.7840 C.3    67  GLU67       0.1567
     13  C         68.7970   29.8960   40.9330 C.2    67  GLU67       0.2260
     14  O         68.1730   29.1350   41.6740 O.2    67  GLU67      -0.2867
     15  CB        67.2650   31.7950   41.7420 C.3    67  GLU67       0.0388
     16  CG        66.9690   33.2850   41.6620 C.3    67  GLU67       0.1160
     17  CD        65.6640   33.7800   42.2550 C.2    67  GLU67       0.3649
     18  OE1       65.0480   33.0570   43.0670 O.co2  67  GLU67      -0.2457
     19  OE2       65.2600   34.9110   41.9100 O.co2  67  GLU67      -0.2457
     20  N         64.4530   35.3030   34.1960 N.3   122  ARG122     -0.1245
     21  CA        63.7620   35.1690   35.4770 C.3   122  ARG122      0.1563
     22  C         62.3790   34.5190   35.3790 C.2   122  ARG122      0.2260
     23  O         62.0690   33.5980   36.1370 O.2   122  ARG122     -0.2867
     24  CB        63.6790   36.5650   36.1460 C.3   122  ARG122      0.0307
     25  CG        62.6390   36.7260   37.2570 C.3   122  ARG122      0.0489
     26  CD        62.4610   38.1900   37.6190 C.3   122  ARG122      0.2205
     27  NE        61.5050   38.4030   38.7120 N.pl3 122  ARG122     -0.0865
     28  CZ        61.7960   38.2460   40.0010 C.cat 122  ARG122      0.5346
     29  NH1       62.9980   37.8270   40.3710 N.pl3 122  ARG122      0.1354
     30  NH2       60.8810   38.4880   40.9280 N.pl3 122  ARG122      0.1354
     31  N         56.1480   34.3140   40.8570 N.3   139  ASN139     -0.1225
     32  CA        56.0530   34.8650   42.2070 C.3   139  ASN139      0.1785
     33  C         55.2580   36.1920   42.2910 C.2   139  ASN139      0.2597
     34  O         55.2490   36.8310   43.3420 O.2   139  ASN139     -0.2718
     35  CB        57.4360   34.9880   42.8500 C.3   139  ASN139      0.1169
     36  CG        57.5050   34.3660   44.2240 C.2   139  ASN139      0.2627
     37  OD1       56.6990   33.4990   44.5910 O.2   139  ASN139     -0.2716
     38  ND2       58.4790   34.7920   45.0150 N.am  139  ASN139     -0.0877
     39  N         54.5710   36.5780   41.1980 N.am  140  ARG140     -0.1979
     40  CA        53.6560   37.7250   41.1170 C.3   140  ARG140      0.1597
     41  C         52.3360   37.2400   40.4890 C.2   140  ARG140      0.2287
     42  O         51.4320   38.0390   40.2400 O.2   140  ARG140     -0.2864
     43  CB        54.2350   38.8900   40.2750 C.3   140  ARG140      0.0334
     44  CG        55.5500   39.4970   40.7670 C.3   140  ARG140      0.0492
     45  CD        55.4530   40.2810   42.0670 C.3   140  ARG140      0.2205
     46  NE        56.7360   40.8860   42.4340 N.pl3 140  ARG140     -0.0865
     47  CZ        57.7560   40.2290   42.9770 C.cat 140  ARG140      0.5346
     48  NH1       57.6560   38.9300   43.2420 N.pl3 140  ARG140      0.1354
     49  NH2       58.8800   40.8660   43.2700 N.pl3 140  ARG140      0.1354
     50  N         64.7370   30.5480   46.9900 N.3   192  HIS192     -0.1226
     51  CA        65.1480   31.5750   46.0440 C.3   192  HIS192      0.1752
     52  C         66.5840   32.0240   46.3290 C.2   192  HIS192      0.2597
     53  O         67.2390   31.4980   47.2330 O.2   192  HIS192     -0.2718
     54  CB        64.2120   32.7910   46.2120 C.3   192  HIS192      0.0759
     55  CG        62.8100   32.5620   45.7460 C.ar  192  HIS192      0.0818
     56  ND1       62.3490   33.1060   44.5640 N.ar  192  HIS192     -0.2268
     57  CD2       61.8000   31.8850   46.3400 C.ar  192  HIS192      0.1154
     58  CE1       61.0850   32.7300   44.4670 C.ar  192  HIS192      0.1986
     59  NE2       60.7150   31.9850   45.5090 N.ar  192  HIS192     -0.2212
     60  N         67.0560   33.0160   45.5510 N.am  193  SER193     -0.1938
     61  CA        68.3520   33.6810   45.6870 C.3   193  SER193      0.2055
     62  C         68.2320   35.0860   45.0710 C.2   193  SER193      0.2643
     63  O         67.3860   35.2760   44.2060 O.2   193  SER193     -0.2714
     64  CB        69.4640   32.8680   45.0240 C.3   193  SER193      0.2130
     65  OG        69.6750   33.1730   43.6560 O.3   193  SER193     -0.2179
     66  N         69.0370   36.0790   45.4850 N.am  194  TYR194     -0.1973
     67  CA        70.0600   36.0380   46.5340 C.3   194  TYR194      0.1639
     68  C         69.6910   37.1290   47.5460 C.2   194  TYR194      0.2290
     69  O         68.5660   37.6230   47.4740 O.2   194  TYR194     -0.2864
     70  CB        71.4650   36.2520   45.9160 C.3   194  TYR194      0.0560
     71  CG        71.6380   37.5680   45.1830 C.ar  194  TYR194     -0.0198
     72  CD1       71.2470   37.7060   43.8540 C.ar  194  TYR194     -0.0009
     73  CD2       72.2010   38.6720   45.8160 C.ar  194  TYR194     -0.0009
     74  CE1       71.3940   38.9170   43.1780 C.ar  194  TYR194      0.0417
     75  CE2       72.3410   39.8910   45.1550 C.ar  194  TYR194      0.0417
     76  CZ        71.9560   40.0020   43.8290 C.ar  194  TYR194      0.1957
     77  OH        72.1070   41.1970   43.1740 O.3   194  TYR194     -0.2866
     78  N         62.2120   35.3280   54.7590 N.3   199  VAL199     -0.1245
     79  CA        61.0350   36.1840   54.7350 C.3   199  VAL199      0.1561
     80  C         59.7660   35.3860   55.0430 C.2   199  VAL199      0.2260
     81  O         59.6870   34.2130   54.7070 O.2   199  VAL199     -0.2867
     82  CB        61.0090   36.9590   53.3820 C.3   199  VAL199      0.0252
     83  CG1       59.6230   37.0190   52.7380 C.3   199  VAL199      0.0019
     84  CG2       61.6120   38.3500   53.5390 C.3   199  VAL199      0.0019
     85  N         53.8440   40.1950   51.9510 N.3   203  SER203     -0.1217
     86  CA        54.5880   40.8730   50.8940 C.3   203  SER203      0.1889
     87  C         53.6260   41.5990   49.9450 C.2   203  SER203      0.2288
     88  O         54.0600   42.5080   49.2360 O.2   203  SER203     -0.2866
     89  CB        55.4340   39.8780   50.1070 C.3   203  SER203      0.2089
     90  OG        56.5070   39.3870   50.8900 O.3   203  SER203     -0.2183
     91  N         57.9470   40.1290   54.6640 N.3   239  GLY239     -0.1225
     92  CA        58.3370   40.4690   53.3000 C.3   239  GLY239      0.1811
     93  C         58.3700   41.9390   52.9450 C.2   239  GLY239      0.2280
     94  O         59.4310   42.4560   52.5890 O.2   239  GLY239     -0.2866
     95  N         62.0970   43.2700   52.7130 N.3   243  LEU243     -0.1231
     96  CA        62.4770   43.2900   51.3100 C.3   243  LEU243      0.1693
     97  C         61.8400   44.4630   50.5880 C.2   243  LEU243      0.2592
     98  O         62.4550   45.5260   50.4800 O.2   243  LEU243     -0.2718
     99  CB        62.1140   41.9350   50.6540 C.3   243  LEU243      0.0284
    100  CG        63.2420   41.0180   50.1540 C.3   243  LEU243      0.0019
    101  CD1       64.4760   41.0720   51.0320 C.3   243  LEU243      0.0001
    102  CD2       62.7630   39.5950   50.0660 C.3   243  LEU243      0.0001
    103  N         60.6120   44.2640   50.0890 N.am  244  TYR244     -0.1976
    104  CA        59.8220   45.2000   49.2890 C.3   244  TYR244      0.1639
    105  C         58.4400   44.5920   49.0700 C.2   244  TYR244      0.2290
    106  O         58.2380   43.4020   49.3510 O.2   244  TYR244     -0.2864
    107  CB        60.4890   45.4100   47.8970 C.3   244  TYR244      0.0560
    108  CG        61.1670   44.1750   47.3270 C.ar  244  TYR244     -0.0198
    109  CD1       62.5550   44.0590   47.3150 C.ar  244  TYR244     -0.0009
    110  CD2       60.4200   43.1230   46.8010 C.ar  244  TYR244     -0.0009
    111  CE1       63.1830   42.9250   46.8000 C.ar  244  TYR244      0.0417
    112  CE2       61.0360   41.9830   46.2880 C.ar  244  TYR244      0.0417
    113  CZ        62.4180   41.8870   46.2900 C.ar  244  TYR244      0.1957
    114  OH        63.0270   40.7630   45.7860 O.3   244  TYR244     -0.2866
    115  N         55.9090   42.6680   47.1370 N.3   246  ALA246     -0.1245
    116  CA        56.0050   41.6090   46.1340 C.3   246  ALA246      0.1562
    117  C         54.6680   40.8370   46.1250 C.2   246  ALA246      0.2260
    118  O         54.5910   39.7190   46.6430 O.2   246  ALA246     -0.2867
    119  CB        57.1780   40.6910   46.4540 C.3   246  ALA246      0.0290
    120  N         52.5410   36.4100   45.5760 N.3   249  GLY249     -0.1225
    121  CA        53.5340   35.4280   45.9900 C.3   249  GLY249      0.1811
    122  C         52.9000   34.1600   46.5170 C.2   249  GLY249      0.2280
    123  O         51.8180   34.2010   47.1120 O.2   249  GLY249     -0.2866
    124  N         54.0450   32.2300   48.9300 N.3   251  ASP251     -0.1239
    125  CA        54.1200   32.2070   50.3950 C.3   251  ASP251      0.1674
    126  C         52.9190   32.8910   51.0470 C.2   251  ASP251      0.2266
    127  O         52.3280   32.3240   51.9680 O.2   251  ASP251     -0.2867
    128  CB        55.4650   32.7640   50.9120 C.3   251  ASP251      0.1410
    129  CG        55.8140   34.1750   50.4680 C.2   251  ASP251      0.3668
    130  OD1       55.0980   34.7210   49.5980 O.co2 251  ASP251     -0.2456
    131  OD2       56.7980   34.7400   51.0020 O.co2 251  ASP251     -0.2456
    132  N         59.9890   32.2830   52.7220 N.3   264  THR264     -0.1218
    133  CA        60.7490   32.4400   51.4890 C.3   264  THR264      0.1862
    134  C         62.2030   32.5540   51.9210 C.2   264  THR264      0.2287
    135  O         62.5330   33.3950   52.7560 O.2   264  THR264     -0.2866
    136  CB        60.2500   33.6290   50.6530 C.3   264  THR264      0.1770
    137  OG1       58.9510   33.3120   50.1660 O.3   264  THR264     -0.2211
    138  CG2       61.1590   33.9350   49.4600 C.3   264  THR264      0.0375
    139  N         65.9950   33.3120   50.7580 N.3   266  GLU266     -0.1245
    140  CA        66.8340   33.9360   49.7330 C.3   266  GLU266      0.1567
    141  C         68.2330   33.4670   50.1020 C.2   266  GLU266      0.2260
    142  O         68.7300   33.8180   51.1720 O.2   266  GLU266     -0.2867
    143  CB        66.7260   35.4710   49.7720 C.3   266  GLU266      0.0388
    144  CG        65.3400   36.0000   49.4420 C.3   266  GLU266      0.1160
    145  CD        65.1480   36.5100   48.0280 C.2   266  GLU266      0.3649
    146  OE1       65.5410   35.8050   47.0710 O.co2 266  GLU266     -0.2457
    147  OE2       64.5740   37.6120   47.8780 O.co2 266  GLU266     -0.2457
    148  N         73.3100   35.9830   41.2540 N.3   275  PHE275     -0.1241
    149  CA        72.6600   34.7750   40.7280 C.3   275  PHE275      0.1605
    150  C         73.6750   33.7780   40.1880 C.2   275  PHE275      0.2264
    151  O         73.4090   32.5770   40.1810 O.2   275  PHE275     -0.2867
    152  CB        71.6300   35.1310   39.6390 C.3   275  PHE275      0.0534
    153  CG        70.5750   36.1120   40.0900 C.ar  275  PHE275     -0.0203
    154  CD1       69.6350   35.7570   41.0520 C.ar  275  PHE275     -0.0042
    155  CD2       70.5240   37.3940   39.5590 C.ar  275  PHE275     -0.0042
    156  CE1       68.6690   36.6710   41.4790 C.ar  275  PHE275     -0.0003
    157  CE2       69.5550   38.3070   39.9850 C.ar  275  PHE275     -0.0003
    158  CZ        68.6360   37.9390   40.9420 C.ar  275  PHE275     -0.0000
@<TRIPOS>BOND
     1    20    21    1
     2    22    21    1
     3    22    23    2
     4    21    24    1
     5    24    25    1
     6    25    26    1
     7    26    27    1
     8     3     2    1
     9     3     4    2
    10    27    28    2
    11     2     5    1
    12     2     1    1
    13    11    12    1
    14   155   157   ar
    15   155   153   ar
    16   152   153    1
    17   152   149    1
    18     8     6   ar
    19     8    10   ar
    20     5     6    1
    21   157   158   ar
    22    28    29    1
    23    28    30    1
    24   153   154   ar
    25   151   150    2
    26   150   149    1
    27    42    41    2
    28    43    44    1
    29    43    40    1
    30     6     7   ar
    31    41    40    1
    32   149   148    1
    33    44    45    1
    34    12    13    1
    35    12    15    1
    36    10     9   ar
    37    31    32    1
    38    13    14    2
    39   158   156   ar
    40   154   156   ar
    41    40    39    1
    42    39    33   am
    43    16    15    1
    44    16    17    1
    45     7     9   ar
    46    19    17   ar
    47    45    46    1
    48    32    33    1
    49    32    35    1
    50    17    18   ar
    51    33    34    2
    52    46    47    2
    53    35    36    1
    54    47    48    1
    55    47    49    1
    56    77    76    1
    57    74    76   ar
    58    74    72   ar
    59    65    64    1
    60    76    75   ar
    61    72    71   ar
    62    63    62    2
    63    36    37    2
    64    36    38   am
    65    58    56   ar
    66    58    59   ar
    67    56    55   ar
    68    64    61    1
    69    62    66   am
    70    62    61    1
    71    75    73   ar
    72    71    73   ar
    73    71    70    1
    74    66    67    1
    75    59    57   ar
    76    60    61    1
    77    60    52   am
    78   120   121    1
    79    55    54    1
    80    55    57   ar
    81   114   113    1
    82    70    67    1
    83   121   122    1
    84    51    54    1
    85    51    52    1
    86    51    50    1
    87   117   116    1
    88   117   118    2
    89   116   119    1
    90   116   115    1
    91   112   113   ar
    92   112   110   ar
    93   113   111   ar
    94    52    53    2
    95   122   123    2
    96    67    68    1
    97   111   109   ar
    98   110   108   ar
    99   146   145   ar
   100   109   108   ar
   101   108   107    1
   102    69    68    2
   103   147   145   ar
   104   107   104    1
   105   145   144    1
   106   124   125    1
   107   105   104    1
   108   105   106    2
   109    88    87    2
   110   104   103    1
   111   144   143    1
   112   138   136    1
   113   130   129   ar
   114   140   143    1
   115   140   141    1
   116   140   139    1
   117    87    86    1
   118   102   100    1
   119   103    97   am
   120   141   142    2
   121    89    90    1
   122    89    86    1
   123   100    99    1
   124   100   101    1
   125   137   136    1
   126   125   128    1
   127   125   126    1
   128   129   128    1
   129   129   131   ar
   130    98    97    2
   131    97    96    1
   132   136   133    1
   133    99    96    1
   134    86    85    1
   135   126   127    2
   136    96    95    1
   137   133   134    1
   138   133   132    1
   139   134   135    2
   140    94    93    2
   141    83    82    1
   142    93    92    1
   143    92    91    1
   144    82    84    1
   145    82    79    1
   146    81    80    2
   147    79    78    1
   148    79    80    1
