@<TRIPOS>MOLECULE
tmp/5lyfA00.pdb
 196 185 0 0 0
SMALL
GASTEIGER

@<TRIPOS>ATOM
      1  N         61.3470   30.6040   40.4470 N.3    64  HIS64      -0.1241
      2  CA        62.0970   31.3900   39.5090 C.3    64  HIS64       0.1621
      3  C         63.3160   30.6790   38.8130 C.2    64  HIS64       0.2264
      4  O         64.2600   30.1140   39.4300 O.2    64  HIS64      -0.2867
      5  CB        62.5900   32.5940   40.2650 C.3    64  HIS64       0.0745
      6  CG        61.4870   33.4420   40.8310 C.ar   64  HIS64       0.0817
      7  ND1       61.4930   33.8840   42.1350 N.ar   64  HIS64      -0.2268
      8  CD2       60.4390   34.0350   40.2450 C.ar   64  HIS64       0.1154
      9  CE1       60.4230   34.6340   42.3610 C.ar   64  HIS64       0.1986
     10  NE2       59.7540   34.7300   41.2270 N.ar   64  HIS64      -0.2212
     11  N         66.3940   31.6300   37.1030 N.3    66  ARG66      -0.1231
     12  CA        67.8350   31.8970   37.2960 C.3    66  ARG66       0.1694
     13  C         68.4000   31.5520   38.6750 C.2    66  ARG66       0.2591
     14  O         69.6340   31.6270   38.8620 O.2    66  ARG66      -0.2718
     15  CB        68.1890   33.3870   37.0040 C.3    66  ARG66       0.0321
     16  CG        67.5140   34.4090   37.9560 C.3    66  ARG66       0.0489
     17  CD        67.1970   35.7150   37.2370 C.3    66  ARG66       0.2205
     18  NE        66.5860   36.7860   38.0620 N.pl3  66  ARG66      -0.0865
     19  CZ        66.4090   38.0380   37.6320 C.cat  66  ARG66       0.5346
     20  NH1       66.7960   38.4240   36.3950 N.pl3  66  ARG66       0.1354
     21  NH2       65.8570   38.9340   38.4490 N.pl3  66  ARG66       0.1354
     22  N         67.5190   31.1980   39.6230 N.am   67  GLU67      -0.1979
     23  CA        67.9460   31.0430   41.0360 C.3    67  GLU67       0.1602
     24  C         68.3860   29.6230   41.2590 C.2    67  GLU67       0.2287
     25  O         67.7880   28.8890   42.0250 O.2    67  GLU67      -0.2864
     26  CB        66.8490   31.4260   42.0230 C.3    67  GLU67       0.0415
     27  CG        66.3010   32.7890   41.7390 C.3    67  GLU67       0.1163
     28  CD        65.0770   33.1560   42.5040 C.2    67  GLU67       0.3649
     29  OE1       64.4740   32.2670   43.2920 O.co2  67  GLU67      -0.2457
     30  OE2       64.6930   34.3670   42.2660 O.co2  67  GLU67      -0.2457
     31  N         63.9650   34.7690   34.5710 N.3   122  ARG122     -0.1245
     32  CA        63.2520   34.5000   35.8460 C.3   122  ARG122      0.1563
     33  C         61.8830   33.7590   35.6510 C.2   122  ARG122      0.2260
     34  O         61.5800   32.7810   36.3690 O.2   122  ARG122     -0.2867
     35  CB        63.1150   35.7940   36.6300 C.3   122  ARG122      0.0307
     36  CG        62.1010   35.8720   37.7860 C.3   122  ARG122      0.0489
     37  CD        61.7700   37.3390   37.9830 C.3   122  ARG122      0.2205
     38  NE        60.9250   37.6840   39.1350 N.pl3 122  ARG122     -0.0865
     39  CZ        61.2360   37.5240   40.4320 C.cat 122  ARG122      0.5346
     40  NH1       62.3610   36.9520   40.8120 N.pl3 122  ARG122      0.1354
     41  NH2       60.3640   37.8970   41.3670 N.pl3 122  ARG122      0.1354
     42  N         55.2790   33.9070   41.1530 N.3   139  ASN139     -0.1225
     43  CA        55.2810   34.2170   42.5490 C.3   139  ASN139      0.1785
     44  C         54.6620   35.5520   42.6730 C.2   139  ASN139      0.2597
     45  O         54.8840   36.2320   43.6610 O.2   139  ASN139     -0.2718
     46  CB        56.7080   34.2880   43.1230 C.3   139  ASN139      0.1169
     47  CG        56.7860   33.7290   44.5180 C.2   139  ASN139      0.2627
     48  OD1       56.0030   32.8080   44.8890 O.2   139  ASN139     -0.2716
     49  ND2       57.6890   34.2580   45.3020 N.am  139  ASN139     -0.0877
     50  N         53.9310   35.9050   41.6160 N.am  140  ARG140     -0.1979
     51  CA        53.0040   37.0020   41.5270 C.3   140  ARG140      0.1597
     52  C         51.7220   36.4070   40.8910 C.2   140  ARG140      0.2287
     53  O         50.7790   37.1600   40.5620 O.2   140  ARG140     -0.2864
     54  CB        53.5430   38.0830   40.5640 C.3   140  ARG140      0.0334
     55  CG        54.7670   38.9570   40.9850 C.3   140  ARG140      0.0492
     56  CD        54.7530   39.5590   42.3880 C.3   140  ARG140      0.2205
     57  NE        56.0430   40.1390   42.7460 N.pl3 140  ARG140     -0.0865
     58  CZ        57.0870   39.4590   43.2710 C.cat 140  ARG140      0.5346
     59  NH1       56.9990   38.1770   43.5470 N.pl3 140  ARG140      0.1354
     60  NH2       58.2400   40.0800   43.5150 N.pl3 140  ARG140      0.1354
     61  N         59.5680   41.9700   34.6750 N.3   158  GLU158     -0.1231
     62  CA        60.0420   40.7780   35.4070 C.3   158  GLU158      0.1699
     63  C         59.1240   40.3120   36.5540 C.2   158  GLU158      0.2592
     64  O         59.3000   39.2180   37.0370 O.2   158  GLU158     -0.2718
     65  CB        61.4520   40.9430   35.9400 C.3   158  GLU158      0.0402
     66  CG        62.6400   40.6970   34.9300 C.3   158  GLU158      0.1161
     67  CD        62.3710   39.6540   33.8880 C.2   158  GLU158      0.3649
     68  OE1       61.8290   38.5500   34.1820 O.co2 158  GLU158     -0.2457
     69  OE2       62.6900   39.9440   32.7170 O.co2 158  GLU158     -0.2457
     70  N         58.1910   41.1740   36.9930 N.am  159  THR159     -0.1953
     71  CA        57.1960   40.8120   37.9980 C.3   159  THR159      0.1897
     72  C         55.7440   40.6980   37.4700 C.2   159  THR159      0.2313
     73  O         54.8170   40.9230   38.2450 O.2   159  THR159     -0.2863
     74  CB        57.1180   41.8240   39.1660 C.3   159  THR159      0.1794
     75  OG1       56.8910   43.1380   38.6470 O.3   159  THR159     -0.2208
     76  CG2       58.3010   41.7630   40.0250 C.3   159  THR159      0.0378
     77  N         64.3110   30.0010   47.3650 N.3   192  HIS192     -0.1226
     78  CA        64.6000   31.0250   46.4100 C.3   192  HIS192      0.1752
     79  C         66.0530   31.5290   46.5380 C.2   192  HIS192      0.2597
     80  O         66.8120   31.1010   47.4370 O.2   192  HIS192     -0.2718
     81  CB        63.6190   32.2350   46.6700 C.3   192  HIS192      0.0759
     82  CG        62.2290   31.9560   46.2710 C.ar  192  HIS192      0.0818
     83  ND1       61.6990   32.3970   45.0780 N.ar  192  HIS192     -0.2268
     84  CD2       61.2940   31.1630   46.8380 C.ar  192  HIS192      0.1154
     85  CE1       60.4760   31.9200   44.9540 C.ar  192  HIS192      0.1986
     86  NE2       60.2240   31.1450   45.9870 N.ar  192  HIS192     -0.2212
     87  N         66.4410   32.4450   45.6440 N.am  193  SER193     -0.1938
     88  CA        67.7120   33.2310   45.8130 C.3   193  SER193      0.2055
     89  C         67.6370   34.6390   45.1820 C.2   193  SER193      0.2643
     90  O         66.7060   34.8860   44.4190 O.2   193  SER193     -0.2714
     91  CB        68.9140   32.4500   45.2810 C.3   193  SER193      0.2130
     92  OG        68.9770   32.5570   43.8710 O.3   193  SER193     -0.2179
     93  N         68.5360   35.5830   45.5250 N.am  194  TYR194     -0.1959
     94  CA        69.5160   35.4660   46.6390 C.3   194  TYR194      0.1771
     95  C         69.1650   36.5730   47.6410 C.2   194  TYR194      0.2620
     96  O         68.1310   37.1710   47.5010 O.2   194  TYR194     -0.2715
     97  CB        70.9840   35.6100   46.1660 C.3   194  TYR194      0.0574
     98  CG        71.2270   36.8560   45.3640 C.ar  194  TYR194     -0.0198
     99  CD1       70.8420   36.9240   44.0130 C.ar  194  TYR194     -0.0009
    100  CD2       71.8030   37.9700   45.9410 C.ar  194  TYR194     -0.0009
    101  CE1       71.0190   38.0610   43.2630 C.ar  194  TYR194      0.0417
    102  CE2       71.9830   39.1120   45.2100 C.ar  194  TYR194      0.0417
    103  CZ        71.6000   39.1430   43.8610 C.ar  194  TYR194      0.1957
    104  OH        71.7530   40.2760   43.1340 O.3   194  TYR194     -0.2866
    105  N         70.0260   36.8320   48.6390 N.am  195  SER195     -0.1950
    106  CA        69.8360   37.8960   49.6690 C.3   195  SER195      0.1924
    107  C         69.9070   37.4880   51.1580 C.2   195  SER195      0.2314
    108  O         69.7870   38.3340   52.0560 O.2   195  SER195     -0.2863
    109  CB        68.7070   38.9540   49.3560 C.3   195  SER195      0.2116
    110  OG        67.3580   38.6500   49.7170 O.3   195  SER195     -0.2180
    111  N         61.6960   35.0370   54.9020 N.3   199  VAL199     -0.1245
    112  CA        60.5000   35.8520   54.9580 C.3   199  VAL199      0.1561
    113  C         59.2610   34.9970   55.3500 C.2   199  VAL199      0.2260
    114  O         59.2580   33.8160   55.1300 O.2   199  VAL199     -0.2867
    115  CB        60.4030   36.6870   53.6170 C.3   199  VAL199      0.0252
    116  CG1       59.0150   36.8170   53.0890 C.3   199  VAL199      0.0019
    117  CG2       61.1430   38.0440   53.7860 C.3   199  VAL199      0.0019
    118  N         53.3790   39.5010   52.2640 N.3   203  SER203     -0.1217
    119  CA        54.0790   40.2220   51.2300 C.3   203  SER203      0.1889
    120  C         53.0620   40.9970   50.3570 C.2   203  SER203      0.2288
    121  O         53.4410   41.9570   49.7390 O.2   203  SER203     -0.2866
    122  CB        54.9340   39.2720   50.3750 C.3   203  SER203      0.2089
    123  OG        55.8990   38.5940   51.1790 O.3   203  SER203     -0.2183
    124  N         61.4480   42.8600   52.7460 N.3   243  LEU243     -0.1231
    125  CA        61.9020   43.0480   51.3750 C.3   243  LEU243      0.1693
    126  C         61.0950   44.1920   50.8050 C.2   243  LEU243      0.2592
    127  O         61.4520   45.3610   50.9150 O.2   243  LEU243     -0.2718
    128  CB        61.6360   41.7940   50.5230 C.3   243  LEU243      0.0284
    129  CG        62.5620   40.6000   50.2340 C.3   243  LEU243      0.0019
    130  CD1       63.6690   40.4920   51.2190 C.3   243  LEU243      0.0001
    131  CD2       61.6660   39.3600   50.2780 C.3   243  LEU243      0.0001
    132  N         60.0020   43.8250   50.1840 N.am  244  TYR244     -0.1976
    133  CA        59.1740   44.7210   49.4320 C.3   244  TYR244      0.1639
    134  C         57.8020   44.0610   49.3300 C.2   244  TYR244      0.2290
    135  O         57.6740   42.8990   49.6720 O.2   244  TYR244     -0.2864
    136  CB        59.7750   44.9780   48.0230 C.3   244  TYR244      0.0560
    137  CG        60.3550   43.7880   47.2330 C.ar  244  TYR244     -0.0198
    138  CD1       61.7360   43.7020   46.9580 C.ar  244  TYR244     -0.0009
    139  CD2       59.5270   42.7790   46.7160 C.ar  244  TYR244     -0.0009
    140  CE1       62.2570   42.6420   46.2010 C.ar  244  TYR244      0.0417
    141  CE2       60.0490   41.6880   45.9750 C.ar  244  TYR244      0.0417
    142  CZ        61.3970   41.6310   45.7170 C.ar  244  TYR244      0.1957
    143  OH        61.8940   40.5790   44.9620 O.3   244  TYR244     -0.2866
    144  N         55.1880   42.2180   47.2750 N.3   246  ALA246     -0.1245
    145  CA        55.3670   41.0810   46.3530 C.3   246  ALA246      0.1562
    146  C         54.0730   40.2120   46.3920 C.2   246  ALA246      0.2260
    147  O         54.0570   39.0880   46.8960 O.2   246  ALA246     -0.2867
    148  CB        56.6410   40.3030   46.7260 C.3   246  ALA246      0.0290
    149  N         52.0130   35.8260   45.9530 N.3   249  GLY249     -0.1225
    150  CA        53.0480   34.8870   46.3920 C.3   249  GLY249      0.1811
    151  C         52.4070   33.6130   46.8430 C.2   249  GLY249      0.2280
    152  O         51.2810   33.6260   47.3950 O.2   249  GLY249     -0.2866
    153  N         53.6010   31.8310   49.2950 N.3   251  ASP251     -0.1239
    154  CA        53.7190   31.7550   50.7700 C.3   251  ASP251      0.1674
    155  C         52.4420   32.3320   51.4140 C.2   251  ASP251      0.2266
    156  O         51.8390   31.7090   52.2900 O.2   251  ASP251     -0.2867
    157  CB        55.0380   32.3250   51.3580 C.3   251  ASP251      0.1410
    158  CG        55.4600   33.6770   50.7620 C.2   251  ASP251      0.3668
    159  OD1       54.8580   34.1240   49.7610 O.co2 251  ASP251     -0.2456
    160  OD2       56.3580   34.3540   51.3500 O.co2 251  ASP251     -0.2456
    161  N         59.5800   31.6960   53.0300 N.3   264  THR264     -0.1218
    162  CA        60.3370   31.8440   51.7740 C.3   264  THR264      0.1862
    163  C         61.7840   32.0130   52.2060 C.2   264  THR264      0.2287
    164  O         62.1150   32.8780   53.0550 O.2   264  THR264     -0.2866
    165  CB        59.8480   33.0590   50.9030 C.3   264  THR264      0.1770
    166  OG1       58.5150   32.8180   50.4820 O.3   264  THR264     -0.2211
    167  CG2       60.6830   33.2380   49.6280 C.3   264  THR264      0.0375
    168  N         65.5250   32.7630   51.0150 N.3   266  GLU266     -0.1245
    169  CA        66.3420   33.4110   50.0080 C.3   266  GLU266      0.1567
    170  C         67.7750   33.1000   50.3600 C.2   266  GLU266      0.2260
    171  O         68.3350   33.6390   51.3090 O.2   266  GLU266     -0.2867
    172  CB        66.0800   34.9100   50.0000 C.3   266  GLU266      0.0388
    173  CG        64.6910   35.3420   49.4280 C.3   266  GLU266      0.1160
    174  CD        64.7170   35.4910   47.9190 C.2   266  GLU266      0.3649
    175  OE1       65.8190   35.4670   47.3600 O.co2 266  GLU266     -0.2457
    176  OE2       63.6560   35.6460   47.2740 O.co2 266  GLU266     -0.2457
    177  N         75.0170   37.7340   49.1970 N.3   270  LYS270     -0.1245
    178  CA        74.5090   39.1010   49.3440 C.3   270  LYS270      0.1561
    179  C         74.6570   39.9580   48.0660 C.2   270  LYS270      0.2260
    180  O         73.9250   40.9420   47.8750 O.2   270  LYS270     -0.2867
    181  CB        75.0470   39.7640   50.6150 C.3   270  LYS270      0.0271
    182  CG        74.5580   39.0510   51.9060 C.3   270  LYS270      0.0035
    183  CD        75.1620   39.6140   53.2070 C.3   270  LYS270      0.0206
    184  CE        74.7750   41.0750   53.4540 C.3   270  LYS270      0.1093
    185  NZ        73.3540   41.2980   53.9160 N.3   270  LYS270     -0.1314
    186  N         72.8170   35.4230   41.4910 N.3   275  PHE275     -0.1241
    187  CA        72.1830   34.1960   40.9340 C.3   275  PHE275      0.1605
    188  C         73.2520   33.1990   40.4630 C.2   275  PHE275      0.2264
    189  O         73.0420   32.0010   40.4720 O.2   275  PHE275     -0.2867
    190  CB        71.2920   34.5520   39.7470 C.3   275  PHE275      0.0534
    191  CG        70.1980   35.4840   40.1010 C.ar  275  PHE275     -0.0203
    192  CD1       69.3720   35.2230   41.1740 C.ar  275  PHE275     -0.0042
    193  CD2       70.0140   36.6480   39.4030 C.ar  275  PHE275     -0.0042
    194  CE1       68.3640   36.1160   41.5190 C.ar  275  PHE275     -0.0003
    195  CE2       69.0080   37.5380   39.7550 C.ar  275  PHE275     -0.0003
    196  CZ        68.1900   37.2550   40.8100 C.ar  275  PHE275     -0.0000
@<TRIPOS>BOND
     1    69    67   ar
     2    67    68   ar
     3    67    66    1
     4    31    32    1
     5    61    62    1
     6    66    65    1
     7    62    65    1
     8    62    63    1
     9    33    32    1
    10    33    34    2
    11    32    35    1
    12    20    19    1
    13    63    70   am
    14    63    64    2
    15    35    36    1
    16    70    71    1
    17    15    12    1
    18    15    16    1
    19    11    12    1
    20    17    16    1
    21    17    18    1
    22    12    13    1
    23    72    71    1
    24    72    73    2
    25    19    18    2
    26    19    21    1
    27    36    37    1
    28    37    38    1
    29    71    74    1
    30    75    74    1
    31    13    14    2
    32    13    22   am
    33     3     4    2
    34     3     2    1
    35    38    39    2
    36    74    76    1
    37   193   195   ar
    38   193   191   ar
    39     2     5    1
    40     2     1    1
    41    22    23    1
    42   190   191    1
    43   190   187    1
    44   195   196   ar
    45   191   192   ar
    46     8     6   ar
    47     8    10   ar
    48     5     6    1
    49    39    40    1
    50    39    41    1
    51   188   189    2
    52   188   187    1
    53    53    52    2
    54    54    55    1
    55    54    51    1
    56   196   194   ar
    57     6     7   ar
    58    52    51    1
    59   187   186    1
    60    55    56    1
    61    23    24    1
    62    23    26    1
    63    42    43    1
    64   192   194   ar
    65    10     9   ar
    66    24    25    2
    67    51    50    1
    68    50    44   am
    69    27    26    1
    70    27    28    1
    71     7     9   ar
    72    30    28   ar
    73    56    57    1
    74    28    29   ar
    75    43    44    1
    76    43    46    1
    77    44    45    2
    78    57    58    2
    79    46    47    1
    80   104   103    1
    81   101   103   ar
    82   101    99   ar
    83    58    60    1
    84    58    59    1
    85   103   102   ar
    86    92    91    1
    87    99    98   ar
    88    90    89    2
    89    47    48    2
    90    47    49   am
    91    85    83   ar
    92    85    86   ar
    93   143   142    1
    94    83    82   ar
    95    89    93   am
    96    89    88    1
    97   102   100   ar
    98    91    88    1
    99    98   100   ar
   100    98    97    1
   101    93    94    1
   102    87    88    1
   103    87    79   am
   104   142   141   ar
   105   142   140   ar
   106   149   150    1
   107   141   139   ar
   108    86    84   ar
   109    97    94    1
   110   140   138   ar
   111    82    81    1
   112    82    84   ar
   113   145   146    1
   114   145   148    1
   115   145   144    1
   116   146   147    2
   117   150   151    1
   118    78    79    1
   119    78    81    1
   120    78    77    1
   121    79    80    2
   122    94    95    1
   123   139   137   ar
   124   151   152    2
   125   138   137   ar
   126   137   136    1
   127   176   174   ar
   128   175   174   ar
   129    96    95    2
   130    95   105   am
   131   180   179    2
   132   174   173    1
   133   136   133    1
   134   179   178    1
   135   105   106    1
   136   177   178    1
   137   153   154    1
   138   134   133    1
   139   134   135    2
   140   178   181    1
   141   109   106    1
   142   109   110    1
   143   173   172    1
   144   133   132    1
   145   167   165    1
   146   106   107    1
   147   121   120    2
   148   159   158   ar
   149   172   169    1
   150   169   170    1
   151   169   168    1
   152   132   126   am
   153   129   131    1
   154   129   128    1
   155   129   130    1
   156   120   119    1
   157   170   171    2
   158   122   123    1
   159   122   119    1
   160   166   165    1
   161   128   125    1
   162   181   182    1
   163   158   160   ar
   164   158   157    1
   165   154   157    1
   166   154   155    1
   167   126   127    2
   168   126   125    1
   169   165   162    1
   170   107   108    2
   171   119   118    1
   172   125   124    1
   173   155   156    2
   174   162   163    1
   175   162   161    1
   176   182   183    1
   177   163   164    2
   178   116   115    1
   179   183   184    1
   180   184   185    1
   181   115   117    1
   182   115   112    1
   183   111   112    1
   184   112   113    1
   185   114   113    2
