@<TRIPOS>MOLECULE
tmp/5lyhA00.pdb
 194 192 0 0 0
SMALL
GASTEIGER

@<TRIPOS>ATOM
      1  N         58.9590   72.1560   23.2650 N.3    71  HIS71      -0.1226
      2  CA        58.0840   72.6410   22.1890 C.3    71  HIS71       0.1752
      3  C         56.6550   72.4000   22.5500 C.2    71  HIS71       0.2597
      4  O         56.2270   71.2470   22.6710 O.2    71  HIS71      -0.2718
      5  CB        58.4190   71.9620   20.8380 C.3    71  HIS71       0.0759
      6  CG        57.5240   72.3790   19.7180 C.ar   71  HIS71       0.0818
      7  ND1       57.9210   73.2670   18.7410 N.ar   71  HIS71      -0.2268
      8  CD2       56.2520   72.0180   19.4090 C.ar   71  HIS71       0.1154
      9  CE1       56.9200   73.4640   17.8980 C.ar   71  HIS71       0.1986
     10  NE2       55.8970   72.7170   18.2830 N.ar   71  HIS71      -0.2212
     11  N         55.9280   73.4980   22.7000 N.am   72  GLY72      -0.1942
     12  CA        54.5390   73.4690   23.0570 C.3    72  GLY72       0.2014
     13  C         53.7580   73.4070   21.7670 C.2    72  GLY72       0.2639
     14  O         54.1100   74.0640   20.7670 O.2    72  GLY72      -0.2714
     15  N         52.6680   72.6520   21.7970 N.am   73  THR73      -0.1950
     16  CA        51.8000   72.6170   20.6580 C.3    73  THR73       0.1897
     17  C         50.4100   72.2730   21.1190 C.2    73  THR73       0.2313
     18  O         50.1930   71.9710   22.3060 O.2    73  THR73      -0.2863
     19  CB        52.3250   71.6730   19.5690 C.3    73  THR73       0.1794
     20  OG1       51.4260   71.7190   18.4520 O.3    73  THR73      -0.2208
     21  CG2       52.4590   70.2750   20.0770 C.3    73  THR73       0.0378
     22  N         48.0300   68.4440   17.0590 N.3    77  SER77      -0.1217
     23  CA        49.3300   68.1850   16.4590 C.3    77  SER77       0.1889
     24  C         50.0840   67.0070   17.0520 C.2    77  SER77       0.2288
     25  O         50.9060   66.3930   16.3520 O.2    77  SER77      -0.2866
     26  CB        50.1890   69.4310   16.5220 C.3    77  SER77       0.2089
     27  OG        49.5790   70.4790   15.8130 O.3    77  SER77      -0.2183
     28  N         50.4900   63.9490   14.9050 N.3    80  HIS80      -0.1226
     29  CA        51.3040   64.2510   13.7310 C.3    80  HIS80       0.1752
     30  C         52.7790   64.1980   14.1900 C.2    80  HIS80       0.2595
     31  O         53.6020   63.4330   13.6450 O.2    80  HIS80      -0.2718
     32  CB        50.9060   65.6080   13.1440 C.3    80  HIS80       0.0759
     33  CG        51.6690   65.9890   11.9150 C.ar   80  HIS80       0.0818
     34  ND1       51.4060   65.4440   10.6760 N.ar   80  HIS80      -0.2268
     35  CD2       52.6780   66.8740   11.7300 C.ar   80  HIS80       0.1154
     36  CE1       52.2300   65.9690    9.7810 C.ar   80  HIS80       0.1986
     37  NE2       53.0120   66.8390   10.3960 N.ar   80  HIS80      -0.2212
     38  N         53.0930   64.9600   15.2320 N.am   81  VAL81      -0.1980
     39  CA        54.4600   65.0000   15.7830 C.3    81  VAL81       0.1595
     40  C         54.9530   63.6530   16.1910 C.2    81  VAL81       0.2287
     41  O         56.1320   63.3360   16.0170 O.2    81  VAL81      -0.2864
     42  CB        54.5540   65.9540   17.0110 C.3    81  VAL81       0.0276
     43  CG1       55.8450   65.7730   17.7700 C.3    81  VAL81       0.0022
     44  CG2       54.4740   67.3560   16.5230 C.3    81  VAL81       0.0022
     45  N         57.4910   63.6060   13.5830 N.3    85  GLY85      -0.1210
     46  CA        58.3980   64.5970   14.1590 C.3    85  GLY85       0.1956
     47  C         58.0210   65.9630   13.6370 C.2    85  GLY85       0.2612
     48  O         56.8410   66.2850   13.5510 O.2    85  GLY85      -0.2717
     49  N         59.0170   66.7740   13.2690 N.am   86  PHE86      -0.1962
     50  CA        58.7650   68.1280   12.9440 C.3    86  PHE86       0.1771
     51  C         59.0490   68.4060   11.4450 C.2    86  PHE86       0.2620
     52  O         59.6030   69.4380   11.1040 O.2    86  PHE86      -0.2715
     53  CB        59.5890   69.0060   13.9170 C.3    86  PHE86       0.0574
     54  CG        59.1930   68.8290   15.3790 C.ar   86  PHE86      -0.0200
     55  CD1       58.1190   69.5290   15.9090 C.ar   86  PHE86      -0.0042
     56  CD2       59.8740   67.9640   16.2060 C.ar   86  PHE86      -0.0042
     57  CE1       57.7450   69.3890   17.2570 C.ar   86  PHE86      -0.0003
     58  CE2       59.4940   67.7930   17.5630 C.ar   86  PHE86      -0.0003
     59  CZ        58.4450   68.5200   18.0710 C.ar   86  PHE86      -0.0000
     60  N         58.7510   67.4170   10.5980 N.am   87  ASN87      -0.1958
     61  CA        58.3750   67.5920    9.1620 C.3    87  ASN87       0.1819
     62  C         58.2150   68.9990    8.5220 C.2    87  ASN87       0.2621
     63  O         57.5920   69.8690    9.1160 O.2    87  ASN87      -0.2715
     64  CB        57.0020   66.8840    8.9820 C.3    87  ASN87       0.1195
     65  CG        56.8820   66.1220    7.6710 C.2    87  ASN87       0.2630
     66  OD1       57.5970   66.3860    6.7050 O.2    87  ASN87      -0.2716
     67  ND2       55.9530   65.1790    7.6300 N.am   87  ASN87      -0.0877
     68  N         58.7160   69.1970    7.2920 N.am   88  ARG88      -0.1963
     69  CA        58.1380   70.2440    6.3900 C.3    88  ARG88       0.1729
     70  C         56.6400   69.9420    6.2030 C.2    88  ARG88       0.2616
     71  O         56.2880   68.8290    5.7940 O.2    88  ARG88      -0.2715
     72  CB        58.7980   70.2730    4.9800 C.3    88  ARG88       0.0348
     73  CG        59.8240   71.3810    4.6930 C.3    88  ARG88       0.0492
     74  CD        61.2090   70.9620    5.1560 C.3    88  ARG88       0.2205
     75  NE        62.3070   71.7330    4.5240 N.pl3  88  ARG88      -0.0865
     76  CZ        63.4530   71.2070    4.0670 C.cat  88  ARG88       0.5346
     77  NH1       64.3700   72.0110    3.5220 N.pl3  88  ARG88       0.1354
     78  NH2       63.6950   69.8900    4.1190 N.pl3  88  ARG88       0.1354
     79  N         55.7690   70.9060    6.5130 N.am   89  SER89      -0.1950
     80  CA        54.3100   70.7460    6.3370 C.3    89  SER89       0.1924
     81  C         53.5890   72.0940    6.5340 C.2    89  SER89       0.2314
     82  O         53.2810   72.8150    5.5760 O.2    89  SER89      -0.2863
     83  CB        53.7570   69.7050    7.3250 C.3    89  SER89       0.2116
     84  OG        53.3850   68.4880    6.7000 O.3    89  SER89      -0.2180
     85  N         56.1960   85.3630    7.6670 N.3    90  ALA90      -0.1231
     86  CA        55.6920   84.4510    8.6880 C.3    90  ALA90       0.1694
     87  C         56.1300   84.8770   10.0900 C.2    90  ALA90       0.2591
     88  O         55.2990   85.3130   10.8910 O.2    90  ALA90      -0.2718
     89  CB        56.1490   83.0250    8.3950 C.3    90  ALA90       0.0304
     90  N         57.4340   84.7620   10.3670 N.am   91  VAL91      -0.1980
     91  CA        57.9760   84.8300   11.7390 C.3    91  VAL91       0.1595
     92  C         59.2790   85.6580   11.8290 C.2    91  VAL91       0.2287
     93  O         59.8740   86.0130   10.8090 O.2    91  VAL91      -0.2864
     94  CB        58.2630   83.4070   12.3100 C.3    91  VAL91       0.0276
     95  CG1       57.9350   83.3460   13.8020 C.3    91  VAL91       0.0022
     96  CG2       57.5060   82.3080   11.5560 C.3    91  VAL91       0.0022
     97  N         62.5980   84.8690   12.9840 N.3    93  TYR93      -0.1241
     98  CA        63.9500   84.3340   12.6640 C.3    93  TYR93       0.1605
     99  C         64.0140   83.1920   11.6260 C.2    93  TYR93       0.2264
    100  O         65.0510   82.5300   11.4950 O.2    93  TYR93      -0.2867
    101  CB        64.6600   83.8810   13.9590 C.3    93  TYR93       0.0534
    102  CG        64.5230   84.8580   15.1070 C.ar   93  TYR93      -0.0201
    103  CD1       65.2890   86.0260   15.1530 C.ar   93  TYR93      -0.0009
    104  CD2       63.6150   84.6270   16.1340 C.ar   93  TYR93      -0.0009
    105  CE1       65.1580   86.9300   16.1990 C.ar   93  TYR93       0.0417
    106  CE2       63.4760   85.5200   17.1850 C.ar   93  TYR93       0.0417
    107  CZ        64.2490   86.6650   17.2170 C.ar   93  TYR93       0.1957
    108  OH        64.1020   87.5350   18.2650 O.3    93  TYR93      -0.2866
    109  N         61.4840   80.4000    8.6500 N.3    95  LYS95      -0.1231
    110  CA        60.3150   79.5540    8.3810 C.3    95  LYS95       0.1693
    111  C         60.6660   78.0760    8.6050 C.2    95  LYS95       0.2593
    112  O         60.8170   77.2960    7.6440 O.2    95  LYS95      -0.2718
    113  CB        59.8390   79.8040    6.9440 C.3    95  LYS95       0.0285
    114  CG        58.5510   79.1330    6.5710 C.3    95  LYS95       0.0035
    115  CD        58.2880   79.1140    5.0640 C.3    95  LYS95       0.0206
    116  CE        58.4180   80.4620    4.3460 C.3    95  LYS95       0.1093
    117  NZ        57.9170   80.4050    2.9390 N.3    95  LYS95      -0.1314
    118  N         60.8110   77.7100    9.8790 N.am   96  GLY96      -0.1942
    119  CA        61.0650   76.3240   10.3010 C.3    96  GLY96       0.2014
    120  C         60.3750   76.0620   11.6360 C.2    96  GLY96       0.2640
    121  O         59.3760   76.7160   11.9420 O.2    96  GLY96      -0.2714
    122  N         60.8830   75.1020   12.4090 N.am   97  THR97      -0.1936
    123  CA        60.3180   74.7950   13.7420 C.3    97  THR97       0.2028
    124  C         61.0890   75.4860   14.8520 C.2    97  THR97       0.2642
    125  O         62.3130   75.5010   14.8640 O.2    97  THR97      -0.2714
    126  CB        60.2190   73.2920   14.0510 C.3    97  THR97       0.1808
    127  OG1       59.4570   72.6720   13.0210 O.3    97  THR97      -0.2208
    128  CG2       59.4830   73.0350   15.4340 C.3    97  THR97       0.0379
    129  N         60.3070   76.0660   15.7560 N.am   98  TYR98      -0.1959
    130  CA        60.7590   76.8410   16.8750 C.3    98  TYR98       0.1771
    131  C         60.7960   75.9130   18.1030 C.2    98  TYR98       0.2620
    132  O         59.8690   75.1190   18.3250 O.2    98  TYR98      -0.2715
    133  CB        59.8030   77.9780   17.1300 C.3    98  TYR98       0.0574
    134  CG        60.0780   79.1770   16.2750 C.ar   98  TYR98      -0.0198
    135  CD1       59.8190   79.1630   14.8980 C.ar   98  TYR98      -0.0009
    136  CD2       60.6280   80.3230   16.8260 C.ar   98  TYR98      -0.0009
    137  CE1       60.0870   80.2650   14.1160 C.ar   98  TYR98       0.0417
    138  CE2       60.8930   81.4230   16.0620 C.ar   98  TYR98       0.0417
    139  CZ        60.6400   81.3950   14.7040 C.ar   98  TYR98       0.1957
    140  OH        60.9280   82.5090   13.9440 O.3    98  TYR98      -0.2866
    141  N         61.9150   75.9730   18.8310 N.am   99  PHE99      -0.1960
    142  CA        62.1220   75.2350   20.0650 C.3    99  PHE99       0.1771
    143  C         62.5830   76.2000   21.1250 C.2    99  PHE99       0.2619
    144  O         63.1490   77.2360   20.7730 O.2    99  PHE99      -0.2715
    145  CB        63.1830   74.1710   19.8310 C.3    99  PHE99       0.0574
    146  CG        62.7470   73.1230   18.8690 C.ar   99  PHE99      -0.0200
    147  CD1       61.9430   72.0580   19.3050 C.ar   99  PHE99      -0.0042
    148  CD2       63.0710   73.2170   17.5070 C.ar   99  PHE99      -0.0042
    149  CE1       61.5210   71.0680   18.4260 C.ar   99  PHE99      -0.0003
    150  CE2       62.6410   72.2380   16.6140 C.ar   99  PHE99      -0.0003
    151  CZ        61.8620   71.1660   17.0640 C.ar   99  PHE99      -0.0000
    152  N         62.3370   75.8890   22.4080 N.am  100  ALA100     -0.1977
    153  CA        62.6910   76.8390   23.4900 C.3   100  ALA100      0.1597
    154  C         63.6210   76.2240   24.5400 C.2   100  ALA100      0.2287
    155  O         63.4810   75.0550   24.9190 O.2   100  ALA100     -0.2864
    156  CB        61.4430   77.4000   24.1440 C.3   100  ALA100      0.0319
    157  N         58.5560   79.3160   28.1270 N.3   105  TYR105     -0.1227
    158  CA        58.2890   79.8530   26.7650 C.3   105  TYR105      0.1736
    159  C         57.2270   78.9990   26.0790 C.2   105  TYR105      0.2596
    160  O         56.1720   79.4870   25.6870 O.2   105  TYR105     -0.2718
    161  CB        59.5800   79.8840   25.9620 C.3   105  TYR105      0.0548
    162  CG        59.6360   80.9360   24.8910 C.ar  105  TYR105     -0.0200
    163  CD1       58.6880   80.9870   23.8980 C.ar  105  TYR105     -0.0009
    164  CD2       60.6970   81.8390   24.8330 C.ar  105  TYR105     -0.0009
    165  CE1       58.7400   81.9620   22.9120 C.ar  105  TYR105      0.0417
    166  CE2       60.7710   82.8050   23.8460 C.ar  105  TYR105      0.0417
    167  CZ        59.7990   82.8640   22.8770 C.ar  105  TYR105      0.1957
    168  OH        59.8710   83.7950   21.8600 O.3   105  TYR105     -0.2866
    169  N         57.4730   77.7040   26.0200 N.am  106  SER106     -0.1952
    170  CA        56.5700   76.7280   25.3890 C.3   106  SER106      0.1924
    171  C         55.2290   76.5710   26.0660 C.2   106  SER106      0.2314
    172  O         54.2360   76.2800   25.3920 O.2   106  SER106     -0.2863
    173  CB        57.2420   75.3610   25.3050 C.3   106  SER106      0.2116
    174  OG        58.5210   75.4950   24.7310 O.3   106  SER106     -0.2180
    175  N         51.1480   78.7410   22.2080 N.3   111  TYR111     -0.1241
    176  CA        51.8210   77.5790   21.6300 C.3   111  TYR111      0.1605
    177  C         51.1350   76.3300   22.1430 C.2   111  TYR111      0.2264
    178  O         50.4950   75.6220   21.3760 O.2   111  TYR111     -0.2867
    179  CB        53.3120   77.6530   21.9450 C.3   111  TYR111      0.0534
    180  CG        53.8930   78.9950   21.5390 C.ar  111  TYR111     -0.0201
    181  CD1       53.8300   79.4170   20.2070 C.ar  111  TYR111     -0.0009
    182  CD2       54.4940   79.8450   22.4710 C.ar  111  TYR111     -0.0009
    183  CE1       54.3210   80.6620   19.8210 C.ar  111  TYR111      0.0417
    184  CE2       55.0390   81.0640   22.0960 C.ar  111  TYR111      0.0417
    185  CZ        54.9410   81.4730   20.7740 C.ar  111  TYR111      0.1957
    186  OH        55.4350   82.6890   20.3990 O.3   111  TYR111     -0.2866
    187  N         65.9050   80.6510   22.3440 N.3   166  LEU166     -0.1245
    188  CA        65.1510   79.8840   21.3510 C.3   166  LEU166      0.1561
    189  C         66.0610   79.4210   20.2300 C.2   166  LEU166      0.2260
    190  O         67.1610   79.9620   20.0710 O.2   166  LEU166     -0.2867
    191  CB        63.9580   80.7020   20.8380 C.3   166  LEU166      0.0270
    192  CG        64.1280   81.6890   19.6560 C.3   166  LEU166      0.0019
    193  CD1       63.9450   81.0350   18.2810 C.3   166  LEU166      0.0001
    194  CD2       63.1600   82.8370   19.8080 C.3   166  LEU166      0.0001
@<TRIPOS>BOND
     1   117   116    1
     2    77    76    1
     3    76    78    1
     4    76    75    2
     5   116   115    1
     6    75    74    1
     7    73    72    1
     8    73    74    1
     9    72    69    1
    10   115   114    1
    11    82    81    2
    12    71    70    2
    13    70    69    1
    14    70    79   am
    15    80    79    1
    16    80    81    1
    17    80    83    1
    18    69    68    1
    19   114   113    1
    20    84    83    1
    21    66    65    2
    22   113   110    1
    23    68    62   am
    24    67    65   am
    25   112   111    2
    26    85    86    1
    27    65    64    1
    28   110   111    1
    29   110   109    1
    30    89    86    1
    31    62    63    2
    32    62    61    1
    33   111   118   am
    34    86    87    1
    35    64    61    1
    36    61    60    1
    37    36    37   ar
    38    36    34   ar
    39   118   119    1
    40    87    90   am
    41    87    88    2
    42   119   120    1
    43    90    91    1
    44    37    35   ar
    45    60    51   am
    46    34    33   ar
    47    93    92    2
    48    52    51    2
    49    51    50    1
    50   100    99    2
    51    96    94    1
    52    99    98    1
    53   120   121    2
    54   120   122   am
    55    35    33   ar
    56    91    92    1
    57    91    94    1
    58    33    32    1
    59    94    95    1
    60   122   123    1
    61    98    97    1
    62    98   101    1
    63    50    49    1
    64    50    53    1
    65   127   126    1
    66    32    29    1
    67    49    47   am
    68    48    47    2
    69    45    46    1
    70    47    46    1
    71    31    30    2
    72    29    30    1
    73    29    28    1
    74   123   126    1
    75   123   124    1
    76    53    54    1
    77   140   139    1
    78   101   102    1
    79   126   128    1
    80   137   139   ar
    81   137   135   ar
    82    30    38   am
    83   139   138   ar
    84   124   125    2
    85   124   129   am
    86   135   134   ar
    87   102   103   ar
    88   102   104   ar
    89   103   105   ar
    90    38    39    1
    91    54    55   ar
    92    54    56   ar
    93   129   130    1
    94    39    40    1
    95    39    42    1
    96    27    26    1
    97    55    57   ar
    98    41    40    2
    99   138   136   ar
   100   104   106   ar
   101   105   107   ar
   102    56    58   ar
   103   134   136   ar
   104   134   133    1
   105    25    24    2
   106    23    26    1
   107    23    24    1
   108    23    22    1
   109    44    42    1
   110   150   151   ar
   111   150   148   ar
   112   130   133    1
   113   130   131    1
   114    42    43    1
   115   151   149   ar
   116   106   107   ar
   117   107   108    1
   118    57    59   ar
   119   148   146   ar
   120    58    59   ar
   121     9    10   ar
   122     9     7   ar
   123   131   132    2
   124   131   141   am
   125   193   192    1
   126    10     8   ar
   127   149   147   ar
   128    20    19    1
   129     7     6   ar
   130   141   142    1
   131   146   147   ar
   132   146   145    1
   133     8     6   ar
   134    19    21    1
   135    19    16    1
   136   192   194    1
   137   192   191    1
   138     6     5    1
   139   183   181   ar
   140   183   185   ar
   141   145   142    1
   142   142   143    1
   143   190   189    2
   144   181   180   ar
   145   189   188    1
   146   186   185    1
   147    16    17    1
   148    16    15    1
   149    14    13    2
   150   144   143    2
   151   185   184   ar
   152   191   188    1
   153     5     2    1
   154    17    18    2
   155   143   152   am
   156   188   187    1
   157   178   177    2
   158   180   179    1
   159   180   182   ar
   160   176   179    1
   161   176   177    1
   162   176   175    1
   163    13    15   am
   164    13    12    1
   165   168   167    1
   166   184   182   ar
   167     2     3    1
   168     2     1    1
   169   152   153    1
   170     3     4    2
   171     3    11   am
   172    11    12    1
   173   167   165   ar
   174   167   166   ar
   175   165   163   ar
   176   153   156    1
   177   153   154    1
   178   166   164   ar
   179   163   162   ar
   180   154   155    2
   181   174   173    1
   182   164   162   ar
   183   162   161    1
   184   173   170    1
   185   170   169    1
   186   170   171    1
   187   172   171    2
   188   160   159    2
   189   161   158    1
   190   169   159   am
   191   159   158    1
   192   158   157    1
