@<TRIPOS>MOLECULE
tmp/5lyiA00.pdb
 187 177 0 0 0
SMALL
GASTEIGER

@<TRIPOS>ATOM
      1  N         61.8810   30.6660   40.3460 N.3    64  HIS64      -0.1241
      2  CA        62.5970   31.5830   39.4520 C.3    64  HIS64       0.1621
      3  C         63.7820   30.9030   38.7830 C.2    64  HIS64       0.2264
      4  O         64.6460   30.3210   39.4460 O.2    64  HIS64      -0.2867
      5  CB        63.0410   32.8270   40.2200 C.3    64  HIS64       0.0745
      6  CG        61.9010   33.6430   40.7230 C.ar   64  HIS64       0.0817
      7  ND1       61.7460   33.9800   42.0490 N.ar   64  HIS64      -0.2268
      8  CD2       60.8480   34.1860   40.0710 C.ar   64  HIS64       0.1154
      9  CE1       60.6460   34.6930   42.1930 C.ar   64  HIS64       0.1986
     10  NE2       60.0910   34.8460   41.0010 N.ar   64  HIS64      -0.2212
     11  N         66.6640   31.6630   37.1870 N.3    66  ARG66      -0.1231
     12  CA        68.0910   31.9690   37.3790 C.3    66  ARG66       0.1694
     13  C         68.6580   31.6340   38.7580 C.2    66  ARG66       0.2591
     14  O         69.8810   31.6740   38.9400 O.2    66  ARG66      -0.2718
     15  CB        68.3590   33.4440   37.1020 C.3    66  ARG66       0.0321
     16  CG        67.6570   34.3610   38.0650 C.3    66  ARG66       0.0489
     17  CD        67.6870   35.7530   37.5130 C.3    66  ARG66       0.2205
     18  NE        66.9150   36.6980   38.3130 N.pl3  66  ARG66      -0.0865
     19  CZ        66.6750   37.9420   37.9210 C.cat  66  ARG66       0.5346
     20  NH1       67.1160   38.3500   36.7300 N.pl3  66  ARG66       0.1354
     21  NH2       65.9630   38.7690   38.6930 N.pl3  66  ARG66       0.1354
     22  N         67.7870   31.3100   39.7150 N.am   67  GLU67      -0.1979
     23  CA        68.2220   31.0630   41.0950 C.3    67  GLU67       0.1602
     24  C         68.6890   29.6160   41.2770 C.2    67  GLU67       0.2287
     25  O         68.1150   28.8410   42.0420 O.2    67  GLU67      -0.2864
     26  CB        67.1130   31.4490   42.0650 C.3    67  GLU67       0.0415
     27  CG        66.7690   32.9270   41.9630 C.3    67  GLU67       0.1163
     28  CD        65.4210   33.2740   42.5370 C.2    67  GLU67       0.3649
     29  OE1       64.8910   32.4870   43.3650 O.co2  67  GLU67      -0.2457
     30  OE2       64.8780   34.3430   42.1620 O.co2  67  GLU67      -0.2457
     31  N         64.2820   35.1010   34.5450 N.3   122  ARG122     -0.1245
     32  CA        63.5370   34.9500   35.8070 C.3   122  ARG122      0.1563
     33  C         62.1960   34.2350   35.6520 C.2   122  ARG122      0.2260
     34  O         61.8740   33.3080   36.4150 O.2   122  ARG122     -0.2867
     35  CB        63.3110   36.3440   36.4150 C.3   122  ARG122      0.0307
     36  CG        62.3180   36.4220   37.5710 C.3   122  ARG122      0.0489
     37  CD        62.1050   37.8740   37.9830 C.3   122  ARG122      0.2205
     38  NE        61.1510   38.0570   39.0810 N.pl3 122  ARG122     -0.0865
     39  CZ        61.4740   37.9100   40.3770 C.cat 122  ARG122      0.5346
     40  NH1       62.7070   37.5430   40.7080 N.pl3 122  ARG122      0.1354
     41  NH2       60.5720   38.1270   41.3320 N.pl3 122  ARG122      0.1354
     42  N         55.9010   34.0610   41.0750 N.3   139  ASN139     -0.1225
     43  CA        55.7960   34.5490   42.4400 C.3   139  ASN139      0.1785
     44  C         55.0530   35.8940   42.5650 C.2   139  ASN139      0.2597
     45  O         55.1020   36.5570   43.6060 O.2   139  ASN139     -0.2718
     46  CB        57.1820   34.5990   43.0950 C.3   139  ASN139      0.1169
     47  CG        57.1800   34.0280   44.5080 C.2   139  ASN139      0.2627
     48  OD1       56.3280   33.1880   44.8690 O.2   139  ASN139     -0.2716
     49  ND2       58.1530   34.4650   45.3200 N.am  139  ASN139     -0.0877
     50  N         54.3740   36.2880   41.4760 N.am  140  ARG140     -0.1979
     51  CA        53.4060   37.3830   41.4860 C.3   140  ARG140      0.1597
     52  C         52.0850   36.8740   40.8760 C.2   140  ARG140      0.2287
     53  O         51.1720   37.6600   40.5690 O.2   140  ARG140     -0.2864
     54  CB        53.9060   38.5860   40.6670 C.3   140  ARG140      0.0334
     55  CG        55.2800   39.1330   41.1040 C.3   140  ARG140      0.0492
     56  CD        55.1920   39.8920   42.4250 C.3   140  ARG140      0.2205
     57  NE        56.4770   40.5020   42.7790 N.pl3 140  ARG140     -0.0865
     58  CZ        57.5230   39.8190   43.2440 C.cat 140  ARG140      0.5346
     59  NH1       57.4250   38.5100   43.4380 N.pl3 140  ARG140      0.1354
     60  NH2       58.6680   40.4450   43.5230 N.pl3 140  ARG140      0.1354
     61  N         59.8050   42.2810   34.7840 N.3   158  GLU158     -0.1231
     62  CA        60.2990   41.1080   35.4840 C.3   158  GLU158      0.1699
     63  C         59.3510   40.6180   36.5840 C.2   158  GLU158      0.2592
     64  O         59.4130   39.4380   36.9630 O.2   158  GLU158     -0.2718
     65  CB        61.6830   41.4120   36.0700 C.3   158  GLU158      0.0402
     66  CG        62.7670   41.5030   35.0150 C.3   158  GLU158      0.1161
     67  CD        63.1420   40.1360   34.4950 C.2   158  GLU158      0.3649
     68  OE1       62.3770   39.5790   33.6580 O.co2 158  GLU158     -0.2457
     69  OE2       64.1940   39.6170   34.9380 O.co2 158  GLU158     -0.2457
     70  N         58.4980   41.5140   37.0870 N.am  159  THR159     -0.1953
     71  CA        57.5010   41.1550   38.1120 C.3   159  THR159      0.1897
     72  C         56.0820   41.1260   37.5370 C.2   159  THR159      0.2313
     73  O         55.1050   41.3440   38.2690 O.2   159  THR159     -0.2863
     74  CB        57.5190   42.1290   39.3290 C.3   159  THR159      0.1794
     75  OG1       57.2800   43.4730   38.8740 O.3   159  THR159     -0.2208
     76  CG2       58.8470   42.0830   40.0680 C.3   159  THR159      0.0378
     77  N         64.5830   30.3170   47.3850 N.3   192  HIS192     -0.1226
     78  CA        64.9530   31.3330   46.3980 C.3   192  HIS192      0.1752
     79  C         66.3910   31.7740   46.6340 C.2   192  HIS192      0.2597
     80  O         67.0530   31.2450   47.5080 O.2   192  HIS192     -0.2718
     81  CB        64.0260   32.5360   46.5480 C.3   192  HIS192      0.0759
     82  CG        62.6020   32.2260   46.2160 C.ar  192  HIS192      0.0818
     83  ND1       62.0430   32.5080   44.9880 N.ar  192  HIS192     -0.2268
     84  CD2       61.6470   31.5770   46.9270 C.ar  192  HIS192      0.1154
     85  CE1       60.7950   32.0810   44.9680 C.ar  192  HIS192      0.1986
     86  NE2       60.5310   31.5000   46.1270 N.ar  192  HIS192     -0.2212
     87  N         66.8560   32.7270   45.8300 N.am  193  SER193     -0.1938
     88  CA        68.1100   33.4480   46.0940 C.3   193  SER193      0.2055
     89  C         67.9870   34.8150   45.4230 C.2   193  SER193      0.2643
     90  O         67.0910   35.0160   44.6110 O.2   193  SER193     -0.2714
     91  CB        69.3290   32.6710   45.5580 C.3   193  SER193      0.2130
     92  OG        69.4880   32.7960   44.1420 O.3   193  SER193     -0.2179
     93  N         68.8550   35.7720   45.7370 N.am  194  TYR194     -0.1959
     94  CA        69.8440   35.7150   46.8130 C.3   194  TYR194      0.1771
     95  C         69.5610   36.8520   47.7820 C.2   194  TYR194      0.2620
     96  O         68.6100   37.6010   47.5960 O.2   194  TYR194     -0.2715
     97  CB        71.2600   35.8680   46.2350 C.3   194  TYR194      0.0574
     98  CG        71.4610   37.1400   45.4320 C.ar  194  TYR194     -0.0198
     99  CD1       71.1120   37.1920   44.0900 C.ar  194  TYR194     -0.0009
    100  CD2       71.9950   38.2910   46.0210 C.ar  194  TYR194     -0.0009
    101  CE1       71.2870   38.3430   43.3360 C.ar  194  TYR194      0.0417
    102  CE2       72.1790   39.4600   45.2670 C.ar  194  TYR194      0.0417
    103  CZ        71.8260   39.4710   43.9260 C.ar  194  TYR194      0.1957
    104  OH        71.9990   40.6230   43.1700 O.3   194  TYR194     -0.2866
    105  N         70.3910   36.9540   48.8180 N.am  195  SER195     -0.1950
    106  CA        70.4240   38.0980   49.7680 C.3   195  SER195      0.1924
    107  C         70.4020   37.6620   51.2340 C.2   195  SER195      0.2314
    108  O         70.5360   38.5060   52.1250 O.2   195  SER195     -0.2863
    109  CB        69.3570   39.1740   49.4740 C.3   195  SER195      0.2116
    110  OG        68.0780   38.7700   49.8930 O.3   195  SER195     -0.2180
    111  N         62.0130   35.1920   55.0990 N.3   199  VAL199     -0.1245
    112  CA        60.8090   36.0340   55.0130 C.3   199  VAL199      0.1561
    113  C         59.5730   35.2110   55.4350 C.2   199  VAL199      0.2260
    114  O         59.4850   34.0310   55.1340 O.2   199  VAL199     -0.2867
    115  CB        60.6400   36.5540   53.5170 C.3   199  VAL199      0.0252
    116  CG1       59.1960   36.8050   53.1310 C.3   199  VAL199      0.0019
    117  CG2       61.5210   37.8190   53.2630 C.3   199  VAL199      0.0019
    118  N         53.6700   39.8360   52.3400 N.3   203  SER203     -0.1217
    119  CA        54.3560   40.5900   51.2990 C.3   203  SER203      0.1889
    120  C         53.3930   41.3190   50.3650 C.2   203  SER203      0.2288
    121  O         53.8200   42.2000   49.6230 O.2   203  SER203     -0.2866
    122  CB        55.2610   39.6750   50.4710 C.3   203  SER203      0.2089
    123  OG        56.2950   39.1470   51.2770 O.3   203  SER203     -0.2183
    124  N         61.8650   43.1760   52.9680 N.3   243  LEU243     -0.1231
    125  CA        62.2950   43.0070   51.6050 C.3   243  LEU243      0.1693
    126  C         61.6800   44.1050   50.7640 C.2   243  LEU243      0.2592
    127  O         62.3240   45.1190   50.4840 O.2   243  LEU243     -0.2718
    128  CB        61.8740   41.6150   51.1030 C.3   243  LEU243      0.0284
    129  CG        62.9700   40.7050   50.5750 C.3   243  LEU243      0.0019
    130  CD1       64.0220   40.4510   51.6450 C.3   243  LEU243      0.0001
    131  CD2       62.3790   39.3760   50.0930 C.3   243  LEU243      0.0001
    132  N         60.4270   43.9000   50.3710 N.am  244  TYR244     -0.1976
    133  CA        59.6760   44.8550   49.5440 C.3   244  TYR244      0.1639
    134  C         58.2850   44.2860   49.3560 C.2   244  TYR244      0.2290
    135  O         58.0420   43.1090   49.6620 O.2   244  TYR244     -0.2864
    136  CB        60.3280   45.0810   48.1610 C.3   244  TYR244      0.0560
    137  CG        60.9160   43.8390   47.5020 C.ar  244  TYR244     -0.0198
    138  CD1       62.2850   43.7410   47.2710 C.ar  244  TYR244     -0.0009
    139  CD2       60.1010   42.7710   47.0950 C.ar  244  TYR244     -0.0009
    140  CE1       62.8600   42.5900   46.6450 C.ar  244  TYR244      0.0417
    141  CE2       60.6470   41.6200   46.4880 C.ar  244  TYR244      0.0417
    142  CZ        62.0230   41.5300   46.2690 C.ar  244  TYR244      0.1957
    143  OH        62.5640   40.4090   45.6840 O.3   244  TYR244     -0.2866
    144  N         55.6060   42.4580   47.4530 N.3   246  ALA246     -0.1245
    145  CA        55.6900   41.4290   46.4210 C.3   246  ALA246      0.1562
    146  C         54.4040   40.6030   46.4670 C.2   246  ALA246      0.2260
    147  O         54.4030   39.4800   46.9710 O.2   246  ALA246     -0.2867
    148  CB        56.9270   40.5420   46.6500 C.3   246  ALA246      0.0290
    149  N         52.4150   36.1220   45.9520 N.3   249  GLY249     -0.1225
    150  CA        53.4180   35.1200   46.3100 C.3   249  GLY249      0.1811
    151  C         52.8000   33.8360   46.8370 C.2   249  GLY249      0.2280
    152  O         51.7270   33.8590   47.4550 O.2   249  GLY249     -0.2866
    153  N         53.9050   31.9840   49.2710 N.3   251  ASP251     -0.1239
    154  CA        53.9440   31.9710   50.7420 C.3   251  ASP251      0.1674
    155  C         52.7380   32.6620   51.3770 C.2   251  ASP251      0.2266
    156  O         52.1160   32.1100   52.2900 O.2   251  ASP251     -0.2867
    157  CB        55.2870   32.5000   51.2900 C.3   251  ASP251      0.1410
    158  CG        55.6390   33.9240   50.8150 C.2   251  ASP251      0.3668
    159  OD1       54.9440   34.5180   49.9480 O.co2 251  ASP251     -0.2456
    160  OD2       56.6410   34.4630   51.3450 O.co2 251  ASP251     -0.2456
    161  N         59.7070   32.0580   53.1280 N.3   264  THR264     -0.1218
    162  CA        60.5490   32.1400   51.9420 C.3   264  THR264      0.1862
    163  C         62.0010   32.2670   52.3970 C.2   264  THR264      0.2287
    164  O         62.3120   33.1020   53.2480 O.2   264  THR264     -0.2866
    165  CB        60.1520   33.3530   51.0920 C.3   264  THR264      0.1770
    166  OG1       58.8400   33.1370   50.5530 O.3   264  THR264     -0.2211
    167  CG2       61.1570   33.5470   49.9580 C.3   264  THR264      0.0375
    168  N         65.7620   33.1120   51.0920 N.3   266  GLU266     -0.1245
    169  CA        66.6100   33.6460   50.0210 C.3   266  GLU266      0.1567
    170  C         68.0240   33.2920   50.4120 C.2   266  GLU266      0.2260
    171  O         68.5310   33.8000   51.4180 O.2   266  GLU266     -0.2867
    172  CB        66.4870   35.1750   49.8870 C.3   266  GLU266      0.0388
    173  CG        65.0850   35.6890   49.6700 C.3   266  GLU266      0.1160
    174  CD        64.8370   36.1310   48.2640 C.2   266  GLU266      0.3649
    175  OE1       65.3970   35.5090   47.3190 O.co2 266  GLU266     -0.2457
    176  OE2       64.0700   37.1080   48.1060 O.co2 266  GLU266     -0.2457
    177  N         73.0560   35.7440   41.5850 N.3   275  PHE275     -0.1241
    178  CA        72.4580   34.5120   41.0560 C.3   275  PHE275      0.1605
    179  C         73.4860   33.5220   40.5240 C.2   275  PHE275      0.2264
    180  O         73.2170   32.3240   40.4560 O.2   275  PHE275     -0.2867
    181  CB        71.4710   34.8350   39.9390 C.3   275  PHE275      0.0534
    182  CG        70.3900   35.7830   40.3570 C.ar  275  PHE275     -0.0203
    183  CD1       69.5000   35.4280   41.3680 C.ar  275  PHE275     -0.0042
    184  CD2       70.2830   37.0400   39.7610 C.ar  275  PHE275     -0.0042
    185  CE1       68.5120   36.3080   41.7660 C.ar  275  PHE275     -0.0003
    186  CE2       69.2970   37.9340   40.1400 C.ar  275  PHE275     -0.0003
    187  CZ        68.3900   37.5680   41.1460 C.ar  275  PHE275     -0.0000
@<TRIPOS>BOND
     1    68    67   ar
     2    67    69   ar
     3    67    66    1
     4    31    32    1
     5    61    62    1
     6    66    65    1
     7    62    65    1
     8    62    63    1
     9    33    32    1
    10    33    34    2
    11    32    35    1
    12    35    36    1
    13    63    64    2
    14    63    70   am
    15    20    19    1
    16    70    71    1
    17    15    12    1
    18    15    16    1
    19    11    12    1
    20    12    13    1
    21    17    16    1
    22    17    18    1
    23    72    71    1
    24    72    73    2
    25    36    37    1
    26    19    18    2
    27    19    21    1
    28    37    38    1
    29    71    74    1
    30    13    14    2
    31    13    22   am
    32     3     4    2
    33     3     2    1
    34    75    74    1
    35    38    39    2
    36    74    76    1
    37     2     5    1
    38     2     1    1
    39    22    23    1
    40   184   186   ar
    41   184   182   ar
    42   181   182    1
    43   181   178    1
    44     8     6   ar
    45     8    10   ar
    46   186   187   ar
    47     5     6    1
    48   182   183   ar
    49    39    40    1
    50    39    41    1
    51   180   179    2
    52   179   178    1
    53    53    52    2
    54    54    55    1
    55    54    51    1
    56     6     7   ar
    57    52    51    1
    58    10     9   ar
    59   178   177    1
    60    42    43    1
    61    23    24    1
    62    23    26    1
    63    55    56    1
    64   187   185   ar
    65    24    25    2
    66   183   185   ar
    67    50    51    1
    68    50    44   am
    69    27    26    1
    70    27    28    1
    71     7     9   ar
    72    30    28   ar
    73    56    57    1
    74    43    44    1
    75    43    46    1
    76    28    29   ar
    77    44    45    2
    78    57    58    2
    79    46    47    1
    80   104   103    1
    81    58    59    1
    82    58    60    1
    83   101   103   ar
    84   101    99   ar
    85   103   102   ar
    86    99    98   ar
    87    92    91    1
    88    47    48    2
    89    47    49   am
    90    90    89    2
    91    85    83   ar
    92    85    86   ar
    93    83    82   ar
    94   102   100   ar
    95    89    93   am
    96    89    88    1
    97    98   100   ar
    98    98    97    1
    99    91    88    1
   100   143   142    1
   101    93    94    1
   102    87    88    1
   103    87    79   am
   104   149   150    1
   105    86    84   ar
   106    82    81    1
   107    82    84   ar
   108    97    94    1
   109   142   141   ar
   110   142   140   ar
   111   150   151    1
   112    78    81    1
   113    78    79    1
   114    78    77    1
   115   145   146    1
   116   145   148    1
   117   145   144    1
   118   146   147    2
   119   141   139   ar
   120    79    80    2
   121   140   138   ar
   122    94    95    1
   123   151   152    2
   124   139   137   ar
   125   138   137   ar
   126   175   174   ar
   127   137   136    1
   128    96    95    2
   129    95   105   am
   130   176   174   ar
   131   136   133    1
   132   174   173    1
   133   105   106    1
   134   153   154    1
   135   134   133    1
   136   134   135    2
   137   109   106    1
   138   109   110    1
   139   133   132    1
   140   121   120    2
   141   173   172    1
   142   106   107    1
   143   172   169    1
   144   159   158   ar
   145   167   165    1
   146   169   170    1
   147   169   168    1
   148   131   129    1
   149   120   119    1
   150   132   126   am
   151   170   171    2
   152   122   123    1
   153   122   119    1
   154   127   126    2
   155   166   165    1
   156   129   128    1
   157   129   130    1
   158   154   157    1
   159   154   155    1
   160   126   125    1
   161   158   157    1
   162   158   160   ar
   163   165   162    1
   164   128   125    1
   165   107   108    2
   166   119   118    1
   167   155   156    2
   168   125   124    1
   169   162   163    1
   170   162   161    1
   171   163   164    2
   172   116   115    1
   173   117   115    1
   174   115   112    1
   175   112   111    1
   176   112   113    1
   177   114   113    2
