@<TRIPOS>MOLECULE
tmp/5lyjF00.pdb
 199 187 0 0 0
SMALL
GASTEIGER

@<TRIPOS>ATOM
      1  N         14.8240   57.5480   94.1250 N.3    74  LYS74      -0.1245
      2  CA        14.6380   57.7620   95.5580 C.3    74  LYS74       0.1561
      3  C         15.4170   58.9740   96.0590 C.2    74  LYS74       0.2260
      4  O         14.8450   59.8900   96.6640 O.2    74  LYS74      -0.2867
      5  CB        15.0300   56.4990   96.3160 C.3    74  LYS74       0.0271
      6  CG        14.2320   55.2950   95.8660 C.3    74  LYS74       0.0035
      7  CD        14.2180   54.2050   96.9120 C.3    74  LYS74       0.0206
      8  CE        13.2530   53.1020   96.5170 C.3    74  LYS74       0.1093
      9  NZ        13.6120   52.5020   95.2030 N.3    74  LYS74      -0.1314
     10  N          7.9140   60.8500  104.7060 N.3    95  PRO95      -0.2116
     11  CA         8.6980   60.5240  105.9030 C.3    95  PRO95       0.1372
     12  C         10.0750   61.1650  105.8540 C.2    95  PRO95       0.2244
     13  O         10.6670   61.3330  104.7840 O.2    95  PRO95      -0.2868
     14  CB         8.7910   58.9940  105.8620 C.3    95  PRO95       0.0268
     15  CG         7.6320   58.5640  105.0240 C.3    95  PRO95       0.0207
     16  CD         7.4630   59.6450  103.9920 C.3    95  PRO95       0.0892
     17  N         15.0610   52.9050  108.2040 N.3   126  ILE126     -0.1245
     18  CA        15.2710   51.9750  107.1030 C.3   126  ILE126      0.1561
     19  C         16.1780   52.6360  106.0760 C.2   126  ILE126      0.2260
     20  O         16.0390   53.8270  105.7840 O.2   126  ILE126     -0.2867
     21  CB        13.9410   51.5350  106.4550 C.3   126  ILE126      0.0252
     22  CG1       14.2120   50.6210  105.2580 C.3   126  ILE126      0.0019
     23  CG2       13.1140   52.7460  106.0330 C.3   126  ILE126      0.0019
     24  CD1       13.0410   49.7510  104.8810 C.3   126  ILE126      0.0001
     25  N         17.6760   52.1840  102.0800 N.3   128  LYS128     -0.1231
     26  CA        17.4130   51.5110  100.8130 C.3   128  LYS128      0.1693
     27  C         17.9360   52.3860   99.6830 C.2   128  LYS128      0.2592
     28  O         18.4480   53.4830   99.9120 O.2   128  LYS128     -0.2718
     29  CB        15.9220   51.2100  100.6500 C.3   128  LYS128      0.0285
     30  CG        15.0220   52.3820  100.9940 C.3   128  LYS128      0.0035
     31  CD        13.5550   51.9920  100.9010 C.3   128  LYS128      0.0206
     32  CE        12.6410   53.1840  101.1690 C.3   128  LYS128      0.1093
     33  NZ        11.2030   52.8830  100.8970 N.3   128  LYS128     -0.1314
     34  N         17.8090   51.8930   98.4530 N.am  129  SER129     -0.1952
     35  CA        18.2810   52.6360   97.2940 C.3   129  SER129      0.1924
     36  C         17.4430   52.2610   96.0780 C.2   129  SER129      0.2314
     37  O         16.5620   51.3990   96.1390 O.2   129  SER129     -0.2863
     38  CB        19.7690   52.3780   97.0300 C.3   129  SER129      0.2116
     39  OG        19.9600   51.1950   96.2740 O.3   129  SER129     -0.2180
     40  N         17.9120   48.3550   94.5800 N.3   132  GLY132     -0.1210
     41  CA        17.2910   47.1690   95.1450 C.3   132  GLY132      0.1956
     42  C         15.9760   46.8400   94.4590 C.2   132  GLY132      0.2611
     43  O         15.1480   47.7160   94.1980 O.2   132  GLY132     -0.2717
     44  N         15.7880   45.5550   94.1660 N.am  133  ALA133     -0.1979
     45  CA        14.5580   45.0660   93.5530 C.3   133  ALA133      0.1597
     46  C         14.4300   43.5580   93.7460 C.2   133  ALA133      0.2287
     47  O         13.4300   42.9550   93.3570 O.2   133  ALA133     -0.2864
     48  CB        14.5190   45.4180   92.0740 C.3   133  ALA133      0.0319
     49  N         15.4940   56.6340  105.6520 N.3   155  GLN155     -0.1231
     50  CA        14.1800   57.2020  105.8960 C.3   155  GLN155      0.1698
     51  C         13.6060   56.6180  107.1790 C.2   155  GLN155      0.2592
     52  O         13.8880   55.4700  107.5350 O.2   155  GLN155     -0.2718
     53  CB        13.2510   56.9140  104.7160 C.3   155  GLN155      0.0381
     54  CG        11.8270   57.3650  104.8840 C.3   155  GLN155      0.0905
     55  CD        10.9520   56.8380  103.7810 C.2   155  GLN155      0.2608
     56  OE1       10.3280   55.7870  103.9160 O.2   155  GLN155     -0.2717
     57  NE2       10.9170   57.5520  102.6670 N.am  155  GLN155     -0.0878
     58  N         12.8100   57.4260  107.8790 N.am  156  LYS156     -0.1966
     59  CA        12.1210   56.9480  109.0700 C.3   156  LYS156      0.1728
     60  C         11.2200   55.7670  108.7220 C.2   156  LYS156      0.2616
     61  O         10.5260   55.7720  107.7010 O.2   156  LYS156     -0.2715
     62  CB        11.2980   58.0780  109.6930 C.3   156  LYS156      0.0311
     63  CG        10.4680   57.6550  110.8920 C.3   156  LYS156      0.0038
     64  CD        11.3440   57.4090  112.1090 C.3   156  LYS156      0.0206
     65  CE        10.6690   56.4750  113.0970 C.3   156  LYS156      0.1093
     66  NZ        10.8060   55.0580  112.6680 N.3   156  LYS156     -0.1314
     67  N         11.2470   54.7420  109.5690 N.am  157  TYR157     -0.1960
     68  CA        10.3930   53.5750  109.4030 C.3   157  TYR157      0.1771
     69  C          9.1250   53.7830  110.2230 C.2   157  TYR157      0.2619
     70  O          9.1960   54.0440  111.4290 O.2   157  TYR157     -0.2715
     71  CB        11.1230   52.3040  109.8330 C.3   157  TYR157      0.0574
     72  CG        10.3260   51.0430  109.6080 C.ar  157  TYR157     -0.0198
     73  CD1       10.3790   50.3740  108.3950 C.ar  157  TYR157     -0.0009
     74  CD2        9.5150   50.5260  110.6070 C.ar  157  TYR157     -0.0009
     75  CE1        9.6460   49.2240  108.1830 C.ar  157  TYR157      0.0417
     76  CE2        8.7810   49.3800  110.4060 C.ar  157  TYR157      0.0417
     77  CZ         8.8500   48.7330  109.1930 C.ar  157  TYR157      0.1957
     78  OH         8.1150   47.5890  108.9910 O.3   157  TYR157     -0.2866
     79  N          7.9710   53.6840  109.5730 N.am  158  LEU158     -0.1977
     80  CA         6.7020   53.9630  110.2430 C.3   158  LEU158      0.1596
     81  C          6.4010   52.8220  111.2040 C.2   158  LEU158      0.2287
     82  O          5.9660   51.7390  110.8030 O.2   158  LEU158     -0.2864
     83  CB         5.5880   54.1680  109.2200 C.3   158  LEU158      0.0297
     84  CG         5.8600   55.3200  108.2400 C.3   158  LEU158      0.0022
     85  CD1        4.6490   55.6040  107.3730 C.3   158  LEU158      0.0001
     86  CD2        6.3160   56.5930  108.9550 C.3   158  LEU158      0.0001
     87  N          0.3570   44.2500  107.9090 N.3   170  LYS170     -0.1245
     88  CA         0.7040   45.4860  107.2220 C.3   170  LYS170      0.1561
     89  C          0.3310   45.4170  105.7380 C.2   170  LYS170      0.2260
     90  O          0.2350   44.3350  105.1530 O.2   170  LYS170     -0.2867
     91  CB         2.2040   45.7530  107.4100 C.3   170  LYS170      0.0271
     92  CG         2.8930   46.5350  106.3090 C.3   170  LYS170      0.0035
     93  CD         4.4070   46.5090  106.4490 C.3   170  LYS170      0.0206
     94  CE         4.9180   47.6730  107.2790 C.3   170  LYS170      0.1093
     95  NZ         6.4050   47.7440  107.2520 N.3   170  LYS170     -0.1314
     96  N          0.4790   47.9920  101.7930 N.3   172  ASP172     -0.1239
     97  CA         0.8480   49.2070  101.0720 C.3   172  ASP172      0.1674
     98  C         -0.1520   49.4350   99.9450 C.2   172  ASP172      0.2266
     99  O         -0.7560   48.4900   99.4350 O.2   172  ASP172     -0.2867
    100  CB         2.2990   49.1520  100.5170 C.3   172  ASP172      0.1410
    101  CG         2.3990   48.4700   99.1570 C.2   172  ASP172      0.3668
    102  OD1        2.1090   49.1210   98.1300 O.co2 172  ASP172     -0.2456
    103  OD2        2.8080   47.2910   99.1140 O.co2 172  ASP172     -0.2456
    104  N         -1.1470   50.9030   96.1770 N.3   174  ARG174     -0.1245
    105  CA        -0.6690   51.2530   94.8480 C.3   174  ARG174      0.1563
    106  C         -1.8000   51.9180   94.0750 C.2   174  ARG174      0.2260
    107  O         -2.8970   51.3500   93.9520 O.2   174  ARG174     -0.2867
    108  CB        -0.1520   50.0230   94.1020 C.3   174  ARG174      0.0307
    109  CG        -0.1060   50.1880   92.5860 C.3   174  ARG174      0.0489
    110  CD         0.8530   51.2900   92.1400 C.3   174  ARG174      0.2205
    111  NE         2.2490   50.9970   92.4610 N.pl3 174  ARG174     -0.0865
    112  CZ         3.0440   50.2220   91.7270 C.cat 174  ARG174      0.5346
    113  NH1        2.5850   49.6410   90.6250 N.pl3 174  ARG174      0.1354
    114  NH2        4.3010   50.0230   92.1000 N.pl3 174  ARG174      0.1354
    115  N         -1.4340   45.8870   98.4820 N.3   194  ARG194     -0.1245
    116  CA        -0.4890   44.7780   98.5030 C.3   194  ARG194      0.1563
    117  C         -0.1560   44.5060   99.9660 C.2   194  ARG194      0.2260
    118  O          0.5240   45.3100  100.6150 O.2   194  ARG194     -0.2867
    119  CB         0.7500   45.1130   97.6750 C.3   194  ARG194      0.0307
    120  CG         0.3970   45.6040   96.2710 C.3   194  ARG194      0.0489
    121  CD         1.6120   46.0190   95.4530 C.3   194  ARG194      0.2205
    122  NE         2.2630   47.2220   95.9650 N.pl3 194  ARG194     -0.0865
    123  CZ         3.3090   47.8050   95.3830 C.cat 194  ARG194      0.5346
    124  NH1        3.8490   48.8940   95.9150 N.pl3 194  ARG194      0.1354
    125  NH2        3.8180   47.2950   94.2670 N.pl3 194  ARG194      0.1354
    126  N          7.7480   42.7550  107.6190 N.3   208  HIS208     -0.1226
    127  CA         7.8200   44.2060  107.5260 C.3   208  HIS208      0.1752
    128  C          7.8870   44.7140  106.0900 C.2   208  HIS208      0.2596
    129  O          7.9340   45.9320  105.8810 O.2   208  HIS208     -0.2718
    130  CB         9.0320   44.7240  108.3130 C.3   208  HIS208      0.0759
    131  CG         9.0330   44.3350  109.7630 C.ar  208  HIS208      0.0818
    132  ND1        9.2150   45.2500  110.7780 N.ar  208  HIS208     -0.2268
    133  CD2        8.8910   43.1310  110.3650 C.ar  208  HIS208      0.1154
    134  CE1        9.1790   44.6260  111.9420 C.ar  208  HIS208      0.1986
    135  NE2        8.9810   43.3400  111.7190 N.ar  208  HIS208     -0.2212
    136  N          7.8980   43.8220  105.0990 N.am  209  LEU209     -0.1966
    137  CA         7.8920   44.1940  103.6900 C.3   209  LEU209      0.1728
    138  C          6.6080   43.7110  103.0300 C.2   209  LEU209      0.2617
    139  O          6.1220   42.6120  103.3190 O.2   209  LEU209     -0.2715
    140  CB         9.1050   43.6220  102.9530 C.3   209  LEU209      0.0311
    141  CG        10.2580   44.5980  102.7300 C.3   209  LEU209      0.0022
    142  CD1       10.8290   45.0720  104.0570 C.3   209  LEU209      0.0001
    143  CD2       11.3350   43.9530  101.8700 C.3   209  LEU209      0.0001
    144  N          6.0740   44.5330  102.1280 N.am  210  THR210     -0.1937
    145  CA         4.7790   44.3060  101.5000 C.3   210  THR210      0.2028
    146  C          4.8830   43.9300  100.0270 C.2   210  THR210      0.2642
    147  O          3.8520   43.7830   99.3610 O.2   210  THR210     -0.2714
    148  CB         3.9180   45.5620  101.6470 C.3   210  THR210      0.1808
    149  OG1        4.7730   46.7110  101.7430 O.3   210  THR210     -0.2208
    150  CG2        3.0480   45.4630  102.8860 C.3   210  THR210      0.0379
    151  N          6.0960   43.7200   99.5210 N.am  211  ASN211     -0.1971
    152  CA         6.3790   43.9650   98.1120 C.3   211  ASN211      0.1688
    153  C          5.7200   42.9890   97.1490 C.2   211  ASN211      0.2292
    154  O          5.6200   43.3260   95.9640 O.2   211  ASN211     -0.2864
    155  CB         7.8850   43.9660   97.8930 C.3   211  ASN211      0.1181
    156  CG         8.5260   45.2310   98.3900 C.2   211  ASN211      0.2629
    157  OD1        8.2730   46.3070   97.8560 O.2   211  ASN211     -0.2716
    158  ND2        9.3500   45.1180   99.4250 N.am  211  ASN211     -0.0877
    159  N          3.1580   54.5170   95.3590 N.3   278  ASP278     -0.1239
    160  CA         3.1640   53.5900   96.4880 C.3   278  ASP278      0.1674
    161  C          3.0570   54.3980   97.7770 C.2   278  ASP278      0.2266
    162  O          3.9710   55.1690   98.1100 O.2   278  ASP278     -0.2867
    163  CB         4.4330   52.7370   96.4850 C.3   278  ASP278      0.1410
    164  CG         4.5150   51.8090   95.2880 C.2   278  ASP278      0.3668
    165  OD1        3.4560   51.3640   94.7990 O.co2 278  ASP278     -0.2456
    166  OD2        5.6440   51.5160   94.8440 O.co2 278  ASP278     -0.2456
    167  N          1.7480   54.5830  102.0930 N.3   280  MET280     -0.1245
    168  CA         1.7290   53.9310  103.3940 C.3   280  MET280      0.1570
    169  C          0.6370   54.5570  104.2530 C.2   280  MET280      0.2261
    170  O          0.3500   55.7510  104.1400 O.2   280  MET280     -0.2867
    171  CB         3.0800   54.0860  104.0950 C.3   280  MET280      0.0387
    172  CG         3.2790   53.1750  105.2630 C.3   280  MET280      0.0595
    173  SD         3.6630   51.5170  104.7030 S.3   280  MET280     -0.1393
    174  CE         2.6600   50.5700  105.8440 C.3   280  MET280      0.0692
    175  N          5.3880   56.6570   99.9280 N.3   290  ILE290     -0.1231
    176  CA         6.5760   55.8170  100.0340 C.3   290  ILE290      0.1692
    177  C          7.4500   56.0220   98.8080 C.2   290  ILE290      0.2591
    178  O          8.5750   56.5180   98.9240 O.2   290  ILE290     -0.2718
    179  CB         6.2230   54.3290  100.2080 C.3   290  ILE290      0.0266
    180  CG1        5.6020   54.0920  101.5750 C.3   290  ILE290      0.0019
    181  CG2        7.4690   53.4710  100.0760 C.3   290  ILE290      0.0020
    182  CD1        6.4570   54.6040  102.7110 C.3   290  ILE290      0.0001
    183  N          6.9570   55.6470   97.6270 N.am  291  GLU291     -0.1979
    184  CA         7.8060   55.8200   96.4480 C.3   291  GLU291      0.1602
    185  C          6.9550   55.9940   95.1940 C.2   291  GLU291      0.2287
    186  O          5.7750   55.6450   95.1670 O.2   291  GLU291     -0.2864
    187  CB         8.7890   54.6490   96.2840 C.3   291  GLU291      0.0415
    188  CG         8.3570   53.5630   95.3030 C.3   291  GLU291      0.1163
    189  CD         9.5350   52.9700   94.5400 C.2   291  GLU291      0.3649
    190  OE1       10.6290   53.5700   94.5800 O.co2 291  GLU291     -0.2457
    191  OE2        9.3720   51.9080   93.9000 O.co2 291  GLU291     -0.2457
    192  N          6.9320   55.1590   91.0350 N.3   293  ASN293     -0.1240
    193  CA         7.4920   54.2610   90.0290 C.3   293  ASN293      0.1653
    194  C          7.1050   54.7350   88.6350 C.2   293  ASN293      0.2266
    195  O          5.9200   54.9360   88.3490 O.2   293  ASN293     -0.2867
    196  CB         7.0130   52.8240   90.2430 C.3   293  ASN293      0.1155
    197  CG         8.1650   51.8390   90.3790 C.2   293  ASN293      0.2627
    198  OD1        8.3080   51.1710   91.4070 O.2   293  ASN293     -0.2716
    199  ND2        8.9940   51.7440   89.3410 N.am  293  ASN293     -0.0877
@<TRIPOS>BOND
     1   195   194    2
     2   194   193    1
     3   199   197   am
     4   193   196    1
     5   193   192    1
     6   196   197    1
     7   197   198    2
     8   113   112    1
     9   112   114    1
    10   112   111    2
    11    48    45    1
    12   110   111    1
    13   110   109    1
    14   109   108    1
    15    47    46    2
    16    45    46    1
    17    45    44    1
    18   191   189   ar
    19   107   106    2
    20   106   105    1
    21   108   105    1
    22     1     2    1
    23    44    42   am
    24    43    42    2
    25   125   123    1
    26    42    41    1
    27   189   190   ar
    28   189   188    1
    29    40    41    1
    30   165   164   ar
    31   166   164   ar
    32   105   104    1
    33   186   185    2
    34   185   184    1
    35     9     8    1
    36   164   163    1
    37   188   187    1
    38   159   160    1
    39   123   124    1
    40   123   122    2
    41   121   122    1
    42   121   120    1
    43     2     3    1
    44     2     5    1
    45     6     5    1
    46     6     7    1
    47   154   153    2
    48     3     4    2
    49    36    37    2
    50    36    35    1
    51   120   119    1
    52    39    38    1
    53   187   184    1
    54   184   183    1
    55   163   160    1
    56   160   161    1
    57     8     7    1
    58    38    35    1
    59   153   152    1
    60    35    34    1
    61   183   177   am
    62   119   116    1
    63   161   162    2
    64   157   156    2
    65   155   152    1
    66   155   156    1
    67   152   151    1
    68   102   101   ar
    69   156   158   am
    70    34    27   am
    71   115   116    1
    72   116   117    1
    73   177   178    2
    74   177   176    1
    75   103   101   ar
    76   101   100    1
    77   147   146    2
    78    99    98    2
    79   151   146   am
    80    27    28    2
    81    27    26    1
    82   175   176    1
    83    98    97    1
    84   117   118    2
    85   146   145    1
    86   176   179    1
    87   181   179    1
    88   179   180    1
    89   100    97    1
    90    29    26    1
    91    29    30    1
    92    26    25    1
    93    33    32    1
    94    31    30    1
    95    31    32    1
    96    97    96    1
    97   145   148    1
    98   145   144    1
    99   180   182    1
   100   148   149    1
   101   148   150    1
   102   143   141    1
   103   167   168    1
   104   144   138   am
   105    57    55   am
   106   141   140    1
   107   141   142    1
   108   140   137    1
   109   138   139    2
   110   138   137    1
   111   168   171    1
   112   168   169    1
   113   137   136    1
   114    55    56    2
   115    55    54    1
   116    16    10    1
   117    16    15    1
   118   171   172    1
   119   170   169    2
   120   173   172    1
   121   173   174    1
   122    10    11    1
   123    53    54    1
   124    53    50    1
   125    13    12    2
   126    24    22    1
   127    15    14    1
   128   136   128   am
   129    90    89    2
   130    22    21    1
   131    49    50    1
   132    89    88    1
   133    20    19    2
   134    12    11    1
   135    14    11    1
   136   129   128    2
   137    50    51    1
   138    23    21    1
   139    19    18    1
   140   128   127    1
   141    92    93    1
   142    92    91    1
   143    93    94    1
   144    21    18    1
   145    18    17    1
   146    51    52    2
   147    51    58   am
   148    88    91    1
   149    88    87    1
   150    95    94    1
   151    85    84    1
   152   127   126    1
   153   127   130    1
   154    61    60    2
   155    58    59    1
   156    75    73   ar
   157    75    77   ar
   158    84    86    1
   159    84    83    1
   160   130   131    1
   161    73    72   ar
   162    60    59    1
   163    60    67   am
   164    78    77    1
   165    59    62    1
   166    77    76   ar
   167    83    80    1
   168    68    67    1
   169    68    71    1
   170    68    69    1
   171    79    69   am
   172    79    80    1
   173    72    71    1
   174    72    74   ar
   175    62    63    1
   176   131   133   ar
   177   131   132   ar
   178    69    70    2
   179    80    81    1
   180   133   135   ar
   181    76    74   ar
   182   132   134   ar
   183    82    81    2
   184    63    64    1
   185   135   134   ar
   186    64    65    1
   187    66    65    1
