@<TRIPOS>MOLECULE
tmp/5lyjD01.pdb
 175 166 0 0 0
SMALL
GASTEIGER

@<TRIPOS>ATOM
      1  N         19.6240   -2.5120  -28.5500 N.3   199  TYR199     -0.1241
      2  CA        18.2750   -3.0270  -28.7090 C.3   199  TYR199      0.1605
      3  C         18.3510   -4.4370  -29.2820 C.2   199  TYR199      0.2264
      4  O         18.8370   -4.6280  -30.4010 O.2   199  TYR199     -0.2867
      5  CB        17.4580   -2.1150  -29.6200 C.3   199  TYR199      0.0534
      6  CG        17.2190   -0.7270  -29.0720 C.ar  199  TYR199     -0.0201
      7  CD1       16.1680   -0.4770  -28.2050 C.ar  199  TYR199     -0.0009
      8  CD2       18.0410    0.3340  -29.4250 C.ar  199  TYR199     -0.0009
      9  CE1       15.9410    0.7910  -27.7010 C.ar  199  TYR199      0.0417
     10  CE2       17.8220    1.6040  -28.9310 C.ar  199  TYR199      0.0417
     11  CZ        16.7690    1.8270  -28.0660 C.ar  199  TYR199      0.1957
     12  OH        16.5330    3.0900  -27.5720 O.3   199  TYR199     -0.2866
     13  N          9.5080    3.7630  -32.9650 N.3   234  GLY234     -0.1210
     14  CA         9.0740    4.0220  -31.6010 C.3   234  GLY234      0.1956
     15  C         10.2050    4.4760  -30.6930 C.2   234  GLY234      0.2611
     16  O         10.0760    5.4750  -29.9770 O.2   234  GLY234     -0.2717
     17  N         11.3260    3.7440  -30.6990 N.am  235  VAL235     -0.1979
     18  CA        12.4010    4.0300  -29.7470 C.3   235  VAL235      0.1595
     19  C         13.0800    5.3540  -30.0590 C.2   235  VAL235      0.2287
     20  O         13.6260    5.9970  -29.1570 O.2   235  VAL235     -0.2864
     21  CB        13.4260    2.8810  -29.6840 C.3   235  VAL235      0.0276
     22  CG1       12.7650    1.6110  -29.1940 C.3   235  VAL235      0.0022
     23  CG2       14.0940    2.6620  -31.0460 C.3   235  VAL235      0.0022
     24  N         11.3880    9.9650  -29.0790 N.3   238  CYS238     -0.1221
     25  CA        11.8190   11.0270  -28.1680 C.3   238  CYS238      0.1808
     26  C         13.1000   11.7220  -28.6320 C.2   238  CYS238      0.2601
     27  O         13.3700   12.8560  -28.2170 O.2   238  CYS238     -0.2717
     28  CB        11.9540   10.4650  -26.7670 C.3   238  CYS238      0.0970
     29  SG        10.3160   10.0890  -26.1360 S.3   238  CYS238     -0.0800
     30  N         13.9310   11.0450  -29.4270 N.am  239  LEU239     -0.1979
     31  CA        15.0910   11.7210  -29.9970 C.3   239  LEU239      0.1596
     32  C         14.6780   12.7420  -31.0540 C.2   239  LEU239      0.2287
     33  O         15.3140   13.7950  -31.1780 O.2   239  LEU239     -0.2864
     34  CB        16.0490   10.7010  -30.6140 C.3   239  LEU239      0.0297
     35  CG        16.4660    9.5640  -29.6830 C.3   239  LEU239      0.0022
     36  CD1       17.1100    8.4250  -30.4630 C.3   239  LEU239      0.0001
     37  CD2       17.3930   10.0960  -28.6160 C.3   239  LEU239      0.0001
     38  N         10.2130   16.1630  -22.1500 N.3   245  LEU245     -0.1245
     39  CA        11.3840   15.3070  -21.9910 C.3   245  LEU245      0.1561
     40  C         12.2590   15.4900  -23.2260 C.2   245  LEU245      0.2260
     41  O         11.9940   14.9030  -24.2800 O.2   245  LEU245     -0.2867
     42  CB        10.9560   13.8590  -21.8160 C.3   245  LEU245      0.0270
     43  CG        11.9670   12.8590  -21.2770 C.3   245  LEU245      0.0019
     44  CD1       11.4790   12.3120  -19.9620 C.3   245  LEU245      0.0001
     45  CD2       12.1290   11.7480  -22.2840 C.3   245  LEU245      0.0001
     46  N         14.8600   14.3060  -24.5960 N.3   247  ALA247     -0.1231
     47  CA        15.6950   13.1240  -24.4640 C.3   247  ALA247      0.1694
     48  C         16.8100   13.0770  -25.5000 C.2   247  ALA247      0.2592
     49  O         16.6690   13.5410  -26.6330 O.2   247  ALA247     -0.2718
     50  CB        14.8460   11.8660  -24.5980 C.3   247  ALA247      0.0304
     51  N         17.9240   12.4790  -25.0920 N.am  248  ASP248     -0.1974
     52  CA        19.0320   12.1730  -25.9790 C.3   248  ASP248      0.1709
     53  C         19.6140   10.8300  -25.5610 C.2   248  ASP248      0.2293
     54  O         19.2690   10.2790  -24.5160 O.2   248  ASP248     -0.2864
     55  CB        20.0780   13.2950  -25.9760 C.3   248  ASP248      0.1436
     56  CG        20.7360   13.4850  -24.6300 C.2   248  ASP248      0.3671
     57  OD1       21.3100   12.5150  -24.0970 O.co2 248  ASP248     -0.2456
     58  OD2       20.6880   14.6200  -24.1040 O.co2 248  ASP248     -0.2456
     59  N         21.1590   10.5380  -21.8480 N.3   251  LYS251     -0.1231
     60  CA        20.1760   10.4770  -20.7700 C.3   251  LYS251      0.1693
     61  C         19.5120    9.1080  -20.7240 C.2   251  LYS251      0.2591
     62  O         19.2360    8.5700  -19.6400 O.2   251  LYS251     -0.2718
     63  CB        19.1270   11.5690  -20.9450 C.3   251  LYS251      0.0285
     64  CG        19.4820   12.9180  -20.3650 C.3   251  LYS251      0.0035
     65  CD        18.6790   14.0160  -21.0570 C.3   251  LYS251      0.0206
     66  CE        18.9640   15.3790  -20.4570 C.3   251  LYS251      0.1093
     67  NZ        18.1570   15.6610  -19.2250 N.3   251  LYS251     -0.1314
     68  N         19.2560    8.5260  -21.8970 N.am  252  LEU252     -0.1980
     69  CA        18.7020    7.1810  -21.9380 C.3   252  LEU252      0.1596
     70  C         19.6620    6.1820  -21.3160 C.2   252  LEU252      0.2287
     71  O         19.2510    5.3370  -20.5140 O.2   252  LEU252     -0.2864
     72  CB        18.3910    6.7750  -23.3800 C.3   252  LEU252      0.0297
     73  CG        17.7550    5.3940  -23.5640 C.3   252  LEU252      0.0022
     74  CD1       16.2960    5.4050  -23.1370 C.3   252  LEU252      0.0001
     75  CD2       17.9000    4.9170  -25.0060 C.3   252  LEU252      0.0001
     76  N         19.9220    6.6440  -17.3650 N.3   255  ASN255     -0.1225
     77  CA        18.7660    6.2190  -16.5890 C.3   255  ASN255      0.1785
     78  C         18.3550    4.7720  -16.8240 C.2   255  ASN255      0.2597
     79  O         17.6220    4.2140  -15.9990 O.2   255  ASN255     -0.2718
     80  CB        17.5780    7.1250  -16.8910 C.3   255  ASN255      0.1169
     81  CG        17.7420    8.4860  -16.3030 C.2   255  ASN255      0.2627
     82  OD1       17.7290    8.6490  -15.0790 O.2   255  ASN255     -0.2716
     83  ND2       17.9270    9.4810  -17.1600 N.am  255  ASN255     -0.0877
     84  N         18.7950    4.1490  -17.9140 N.am  256  MET256     -0.1979
     85  CA        18.3660    2.7900  -18.2060 C.3   256  MET256      0.1605
     86  C         19.3780    1.7390  -17.7960 C.2   256  MET256      0.2287
     87  O         18.9890    0.5910  -17.5680 O.2   256  MET256     -0.2864
     88  CB        18.0720    2.6300  -19.7010 C.3   256  MET256      0.0413
     89  CG        16.8150    3.3330  -20.1620 C.3   256  MET256      0.0598
     90  SD        15.3570    2.6090  -19.4100 S.3   256  MET256     -0.1393
     91  CE        15.3670    0.9700  -20.1260 C.3   256  MET256      0.0692
     92  N         14.8200   -1.6800  -15.3700 N.3   308  THR308     -0.1203
     93  CA        14.3200   -0.3600  -15.7460 C.3   308  THR308      0.1994
     94  C         13.3820   -0.4900  -16.9260 C.2   308  THR308      0.2618
     95  O         13.4660   -1.4480  -17.6930 O.2   308  THR308     -0.2717
     96  CB        15.4300    0.6120  -16.1520 C.3   308  THR308      0.1784
     97  OG1       16.2430   -0.0020  -17.1620 O.3   308  THR308     -0.2211
     98  CG2       16.2940    1.0340  -14.9530 C.3   308  THR308      0.0376
     99  N         12.4920    0.4870  -17.0740 N.am  309  VAL309     -0.1965
    100  CA        11.5470    0.5170  -18.1890 C.3   309  VAL309      0.1727
    101  C         11.3680    1.9520  -18.6950 C.2   309  VAL309      0.2616
    102  O         11.2610    2.9000  -17.9080 O.2   309  VAL309     -0.2715
    103  CB        10.1840   -0.0960  -17.7920 C.3   309  VAL309      0.0290
    104  CG1        9.2060    0.0520  -18.9220 C.3   309  VAL309      0.0023
    105  CG2       10.3250   -1.5690  -17.4340 C.3   309  VAL309      0.0023
    106  N         11.3180    2.1070  -20.0140 N.am  310  ALA310     -0.1963
    107  CA        10.9280    3.3670  -20.6340 C.3   310  ALA310      0.1728
    108  C          9.8160    3.0990  -21.6440 C.2   310  ALA310      0.2616
    109  O          9.9540    2.2360  -22.5140 O.2   310  ALA310     -0.2715
    110  CB        12.1160    4.0550  -21.3080 C.3   310  ALA310      0.0334
    111  N          8.7200    3.8360  -21.5260 N.am  311  ALA311     -0.1963
    112  CA         7.5290    3.6270  -22.3380 C.3   311  ALA311      0.1728
    113  C          7.1410    4.9230  -23.0260 C.2   311  ALA311      0.2616
    114  O          7.2400    6.0080  -22.4410 O.2   311  ALA311     -0.2715
    115  CB         6.3490    3.1230  -21.4960 C.3   311  ALA311      0.0334
    116  N          6.7310    4.8020  -24.2820 N.am  312  ILE312     -0.1977
    117  CA         6.3230    5.9390  -25.0940 C.3   312  ILE312      0.1596
    118  C          4.9290    5.6920  -25.6450 C.2   312  ILE312      0.2287
    119  O          4.6580    4.6350  -26.2230 O.2   312  ILE312     -0.2864
    120  CB         7.3120    6.1860  -26.2400 C.3   312  ILE312      0.0276
    121  CG1        8.7290    5.9670  -25.7340 C.3   312  ILE312      0.0022
    122  CG2        7.1250    7.5690  -26.8240 C.3   312  ILE312      0.0022
    123  CD1        9.2450    4.5550  -25.9620 C.3   312  ILE312      0.0001
    124  N         11.3400    4.3950   -8.6820 N.3   343  ASN343     -0.1225
    125  CA        10.8440    5.1270   -9.8460 C.3   343  ASN343      0.1785
    126  C         11.5400    4.6600  -11.1310 C.2   343  ASN343      0.2597
    127  O         12.0200    5.4570  -11.9400 O.2   343  ASN343     -0.2718
    128  CB        11.0050    6.6330   -9.6280 C.3   343  ASN343      0.1169
    129  CG        10.1900    7.4660  -10.6130 C.2   343  ASN343      0.2627
    130  OD1       10.6460    8.5120  -11.0860 O.2   343  ASN343     -0.2716
    131  ND2        8.9760    7.0060  -10.9250 N.am  343  ASN343     -0.0877
    132  N         11.5970    3.3410  -11.3130 N.am  344  ASN344     -0.1960
    133  CA        12.3320    2.7560  -12.4250 C.3   344  ASN344      0.1819
    134  C         11.4890    2.5850  -13.6810 C.2   344  ASN344      0.2621
    135  O         11.9530    1.9530  -14.6340 O.2   344  ASN344     -0.2715
    136  CB        12.9710    1.4210  -12.0070 C.3   344  ASN344      0.1195
    137  CG        11.9690    0.4280  -11.4520 C.2   344  ASN344      0.2630
    138  OD1       10.8170    0.7620  -11.2000 O.2   344  ASN344     -0.2716
    139  ND2       12.4200   -0.7990  -11.2270 N.am  344  ASN344     -0.0877
    140  N         10.2660    3.1070  -13.7070 N.am  345  VAL345     -0.1963
    141  CA         9.4290    3.0960  -14.9070 C.3   345  VAL345      0.1727
    142  C          9.1590    4.5370  -15.3300 C.2   345  VAL345      0.2616
    143  O          8.5850    5.3160  -14.5580 O.2   345  VAL345     -0.2715
    144  CB         8.1160    2.3360  -14.6780 C.3   345  VAL345      0.0290
    145  CG1        7.2960    2.3160  -15.9650 C.3   345  VAL345      0.0023
    146  CG2        8.4150    0.9330  -14.1930 C.3   345  VAL345      0.0023
    147  N          9.5420    4.8800  -16.5650 N.am  346  LYS346     -0.1963
    148  CA         9.4430    6.2400  -17.0900 C.3   346  LYS346      0.1728
    149  C          8.4550    6.2530  -18.2520 C.2   346  LYS346      0.2617
    150  O          8.4720    5.3540  -19.0940 O.2   346  LYS346     -0.2715
    151  CB        10.8180    6.7400  -17.5830 C.3   346  LYS346      0.0311
    152  CG        11.1330    8.2400  -17.4220 C.3   346  LYS346      0.0038
    153  CD         9.9780    9.1850  -17.3080 C.3   346  LYS346      0.0206
    154  CE        10.4040   10.3570  -16.4480 C.3   346  LYS346      0.1093
    155  NZ         9.3920   11.4390  -16.4240 N.3   346  LYS346     -0.1314
    156  N          7.6050    7.2730  -18.3110 N.am  347  THR347     -0.1937
    157  CA         6.6140    7.4130  -19.3700 C.3   347  THR347      0.2028
    158  C          6.8030    8.7310  -20.1080 C.2   347  THR347      0.2642
    159  O          7.0390    9.7710  -19.4890 O.2   347  THR347     -0.2714
    160  CB         5.1930    7.3510  -18.8010 C.3   347  THR347      0.1808
    161  OG1        4.9780    6.0680  -18.2010 O.3   347  THR347     -0.2208
    162  CG2        4.1600    7.5720  -19.8930 C.3   347  THR347      0.0379
    163  N          6.7230    8.6820  -21.4330 N.am  348  ALA348     -0.1977
    164  CA         6.6970    9.8930  -22.2420 C.3   348  ALA348      0.1597
    165  C          5.5510    9.8020  -23.2390 C.2   348  ALA348      0.2287
    166  O          5.0770    8.7100  -23.5740 O.2   348  ALA348     -0.2864
    167  CB         8.0220   10.1510  -22.9740 C.3   348  ALA348      0.0319
    168  N         10.6330   -0.1190  -23.9140 N.3   364  ILE364     -0.1245
    169  CA        12.0650   -0.3790  -23.8360 C.3   364  ILE364      0.1561
    170  C         12.3310   -0.9410  -22.4510 C.2   364  ILE364      0.2260
    171  O         12.2140   -0.2140  -21.4590 O.2   364  ILE364     -0.2867
    172  CB        12.9020    0.8860  -24.0600 C.3   364  ILE364      0.0252
    173  CG1       12.5030    1.6110  -25.3440 C.3   364  ILE364      0.0019
    174  CG2       14.3940    0.5420  -24.0620 C.3   364  ILE364      0.0019
    175  CD1       13.3940    2.8090  -25.6460 C.3   364  ILE364      0.0001
@<TRIPOS>BOND
     1    13    14    1
     2    14    15    1
     3    33    32    2
     4    32    31    1
     5    23    21    1
     6    17    15   am
     7    17    18    1
     8    15    16    2
     9    34    31    1
    10    34    35    1
    11    36    35    1
    12     4     3    2
    13    19    18    1
    14    19    20    2
    15    31    30    1
    16    18    21    1
    17    21    22    1
    18    35    37    1
    19     5     6    1
    20     5     2    1
    21    30    26   am
    22     8     6   ar
    23     8    10   ar
    24     3     2    1
    25    24    25    1
    26     6     7   ar
    27    10    11   ar
    28     2     1    1
    29    26    27    2
    30    26    25    1
    31     7     9   ar
    32    25    28    1
    33    11     9   ar
    34    11    12    1
    35   122   120    1
    36    28    29    1
    37    49    48    2
    38   120   121    1
    39   120   117    1
    40   119   118    2
    41    52    55    1
    42    52    53    1
    43    52    51    1
    44    55    56    1
    45   123   121    1
    46   175   173    1
    47   118   117    1
    48    53    54    2
    49    48    51   am
    50    48    47    1
    51   173   172    1
    52   117   116    1
    53    75    73    1
    54    56    58   ar
    55    56    57   ar
    56    50    47    1
    57    46    47    1
    58   116   113   am
    59    41    40    2
    60   174   172    1
    61   172   169    1
    62   168   169    1
    63   169   170    1
    64   166   165    2
    65    73    72    1
    66    73    74    1
    67    72    69    1
    68   165   164    1
    69    40    39    1
    70   113   114    2
    71   113   112    1
    72   167   164    1
    73   109   108    2
    74   170   171    2
    75   112   111    1
    76   112   115    1
    77    45    43    1
    78   164   163    1
    79    38    39    1
    80    39    42    1
    81    69    68    1
    82    69    70    1
    83    68    61   am
    84    59    60    1
    85    42    43    1
    86   108   111   am
    87   108   107    1
    88   163   158   am
    89    70    71    2
    90   110   107    1
    91    43    44    1
    92    65    66    1
    93    65    64    1
    94    63    60    1
    95    63    64    1
    96    60    61    1
    97    61    62    2
    98   107   106    1
    99    66    67    1
   100    89    88    1
   101    89    90    1
   102    91    90    1
   103   158   159    2
   104   158   157    1
   105   106   101   am
   106   162   160    1
   107    88    85    1
   108   157   160    1
   109   157   156    1
   110   150   149    2
   111   104   103    1
   112   160   161    1
   113   101   100    1
   114   101   102    2
   115   156   149   am
   116   149   148    1
   117    85    84    1
   118    85    86    1
   119   100   103    1
   120   100    99    1
   121    84    78   am
   122    86    87    2
   123   103   105    1
   124    95    94    2
   125   151   152    1
   126   151   148    1
   127   152   153    1
   128    76    77    1
   129   153   154    1
   130    97    96    1
   131    83    81   am
   132   148   147    1
   133    99    94   am
   134    94    93    1
   135    80    77    1
   136    80    81    1
   137    78    77    1
   138    78    79    2
   139   147   142   am
   140   154   155    1
   141    81    82    2
   142    96    93    1
   143    96    98    1
   144   145   144    1
   145    93    92    1
   146   142   141    1
   147   142   143    2
   148   141   144    1
   149   141   140    1
   150   144   146    1
   151   135   134    2
   152   140   134   am
   153   134   133    1
   154   133   136    1
   155   133   132    1
   156   136   137    1
   157   127   126    2
   158   137   139   am
   159   137   138    2
   160   132   126   am
   161   126   125    1
   162   130   129    2
   163   131   129   am
   164   129   128    1
   165   125   128    1
   166   125   124    1
