@<TRIPOS>MOLECULE
tmp/5lykA00.pdb
 104 101 0 0 0
SMALL
GASTEIGER

@<TRIPOS>ATOM
      1  N        -19.9560   31.8430   14.2040 N.3    54  TRP54      -0.1227
      2  CA       -20.6300   31.3970   15.4140 C.3    54  TRP54       0.1737
      3  C        -19.8280   30.2830   16.1020 C.2    54  TRP54       0.2595
      4  O        -19.4110   30.4460   17.2340 O.2    54  TRP54      -0.2718
      5  CB       -22.0750   30.9410   15.1490 C.3    54  TRP54       0.0564
      6  CG       -22.7520   30.4470   16.4100 C.ar   54  TRP54       0.0003
      7  CD1      -22.8020   29.1610   16.8710 C.ar   54  TRP54       0.0946
      8  CD2      -23.4150   31.2580   17.3940 C.ar   54  TRP54       0.0152
      9  NE1      -23.4900   29.1110   18.0790 N.ar   54  TRP54      -0.2442
     10  CE2      -23.8710   30.3840   18.4230 C.ar   54  TRP54       0.0810
     11  CE3      -23.6930   32.6360   17.4890 C.ar   54  TRP54       0.0012
     12  CZ2      -24.5770   30.8450   19.5470 C.ar   54  TRP54       0.0191
     13  CZ3      -24.4110   33.1130   18.6200 C.ar   54  TRP54       0.0001
     14  CH2      -24.8310   32.2260   19.6320 C.ar   54  TRP54       0.0015
     15  N        -19.6710   29.1360   15.4320 N.am   55  HIS55      -0.1975
     16  CA       -18.8760   28.0130   15.9600 C.3    55  HIS55       0.1656
     17  C        -17.4460   28.4830   16.2040 C.2    55  HIS55       0.2291
     18  O        -16.8790   29.2050   15.3740 O.2    55  HIS55      -0.2864
     19  CB       -18.8290   26.8600   14.9580 C.3    55  HIS55       0.0771
     20  CG       -20.1320   26.1600   14.7520 C.ar   55  HIS55       0.0820
     21  ND1      -20.7770   25.4850   15.7580 N.ar   55  HIS55      -0.2267
     22  CD2      -20.8740   25.9690   13.6350 C.ar   55  HIS55       0.1154
     23  CE1      -21.8800   24.9340   15.2840 C.ar   55  HIS55       0.1986
     24  NE2      -21.9580   25.2070   13.9940 N.ar   55  HIS55      -0.2212
     25  N        -25.6430   28.9840   13.3250 N.3    95  TRP95      -0.1241
     26  CA       -25.5330   27.6670   13.9410 C.3    95  TRP95       0.1605
     27  C        -26.3600   26.5790   13.2780 C.2    95  TRP95       0.2264
     28  O        -27.5670   26.7260   13.0400 O.2    95  TRP95      -0.2867
     29  CB       -25.9170   27.7380   15.4240 C.3    95  TRP95       0.0550
     30  CG       -25.7550   26.4520   16.2060 C.ar   95  TRP95       0.0003
     31  CD1      -24.6290   26.0310   16.8610 C.ar   95  TRP95       0.0946
     32  CD2      -26.7520   25.4330   16.4360 C.ar   95  TRP95       0.0152
     33  NE1      -24.8520   24.8130   17.4760 N.ar   95  TRP95      -0.2442
     34  CE2      -26.1480   24.4320   17.2490 C.ar   95  TRP95       0.0810
     35  CE3      -28.0880   25.2610   16.0250 C.ar   95  TRP95       0.0012
     36  CZ2      -26.8280   23.2770   17.6520 C.ar   95  TRP95       0.0191
     37  CZ3      -28.7670   24.1150   16.4370 C.ar   95  TRP95       0.0001
     38  CH2      -28.1360   23.1430   17.2470 C.ar   95  TRP95       0.0015
     39  N        -26.0010   22.1890   14.2320 N.3    97  LYS97      -0.1231
     40  CA       -25.2060   21.3320   15.1210 C.3    97  LYS97       0.1693
     41  C        -24.0890   20.6400   14.3580 C.2    97  LYS97       0.2591
     42  O        -24.2860   20.1790   13.2350 O.2    97  LYS97      -0.2718
     43  CB       -26.0450   20.2940   15.8780 C.3    97  LYS97       0.0285
     44  CG       -25.2950   19.7130   17.0970 C.3    97  LYS97       0.0035
     45  CD       -26.1040   18.6640   17.8550 C.3    97  LYS97       0.0206
     46  CE       -27.3340   19.2660   18.5180 C.3    97  LYS97       0.1093
     47  NZ       -28.0040   18.2440   19.3900 N.3    97  LYS97      -0.1314
     48  N        -22.9100   20.5970   14.9660 N.am   98  MET98      -0.1979
     49  CA       -21.8010   19.8390   14.3990 C.3    98  MET98       0.1605
     50  C        -22.0780   18.3420   14.5690 C.2    98  MET98       0.2287
     51  O        -21.9500   17.7900   15.6670 O.2    98  MET98      -0.2864
     52  CB       -20.4720   20.2490   15.0460 C.3    98  MET98       0.0413
     53  CG       -20.1100   21.6830   14.7530 C.3    98  MET98       0.0598
     54  SD       -18.5820   22.2280   15.5620 S.3    98  MET98      -0.1393
     55  CE       -17.4400   20.8890   15.2160 C.3    98  MET98       0.0692
     56  N        -16.3680   12.1360   23.8940 N.3   116  ARG116     -0.1245
     57  CA       -17.5610   11.8360   23.1180 C.3   116  ARG116      0.1563
     58  C        -17.3020   12.0540   21.6410 C.2   116  ARG116      0.2260
     59  O        -16.3170   12.7100   21.2700 O.2   116  ARG116     -0.2867
     60  CB       -18.7380   12.7090   23.5710 C.3   116  ARG116      0.0307
     61  CG       -18.6570   14.1560   23.1400 C.3   116  ARG116      0.0489
     62  CD       -18.2080   15.0970   24.2410 C.3   116  ARG116      0.2205
     63  NE       -18.2900   16.4780   23.7760 N.pl3 116  ARG116     -0.0865
     64  CZ       -19.3920   17.2240   23.7630 C.cat 116  ARG116      0.5346
     65  NH1      -19.3200   18.4620   23.3060 N.pl3 116  ARG116      0.1354
     66  NH2      -20.5570   16.7470   24.1980 N.pl3 116  ARG116      0.1354
     67  N        -19.1250   13.7760   18.2460 N.3   118  LEU118     -0.1245
     68  CA       -20.0980   14.8300   17.9660 C.3   118  LEU118      0.1561
     69  C        -21.1260   14.3570   16.9470 C.2   118  LEU118      0.2260
     70  O        -21.1240   14.7480   15.7820 O.2   118  LEU118     -0.2867
     71  CB       -19.4340   16.1590   17.5810 C.3   118  LEU118      0.0270
     72  CG       -18.5370   16.8070   18.6550 C.3   118  LEU118      0.0019
     73  CD1      -18.2200   18.2490   18.2650 C.3   118  LEU118      0.0001
     74  CD2      -19.1800   16.7770   20.0340 C.3   118  LEU118      0.0001
     75  N        -25.0690   13.1460   20.8820 N.3   122  ARG122     -0.1245
     76  CA       -23.6700   12.9110   21.2250 C.3   122  ARG122      0.1563
     77  C        -23.5420   11.5250   21.8730 C.2   122  ARG122      0.2260
     78  O        -24.4460   11.0790   22.5710 O.2   122  ARG122     -0.2867
     79  CB       -23.1350   14.0130   22.1390 C.3   122  ARG122      0.0307
     80  CG       -22.6150   15.2500   21.4020 C.3   122  ARG122      0.0489
     81  CD       -23.7160   16.1150   20.7710 C.3   122  ARG122      0.2205
     82  NE       -23.1470   17.3480   20.2190 N.pl3 122  ARG122     -0.0865
     83  CZ       -22.8190   17.5410   18.9410 C.cat 122  ARG122      0.5346
     84  NH1      -23.0220   16.5930   18.0390 N.pl3 122  ARG122      0.1354
     85  NH2      -22.2940   18.6970   18.5690 N.pl3 122  ARG122      0.1354
     86  N        -11.9420   22.7920   17.1230 N.3   173  ARG173     -0.1245
     87  CA       -12.8440   23.6370   17.9060 C.3   173  ARG173      0.1563
     88  C        -12.3520   23.6360   19.3500 C.2   173  ARG173      0.2260
     89  O        -12.0690   22.5820   19.9170 O.2   173  ARG173     -0.2867
     90  CB       -14.2910   23.0860   17.8590 C.3   173  ARG173      0.0307
     91  CG       -15.3180   23.9780   18.5590 C.3   173  ARG173      0.0489
     92  CD       -16.6910   23.3210   18.5820 C.3   173  ARG173      0.2205
     93  NE       -16.8260   22.4970   19.7740 N.pl3 173  ARG173     -0.0865
     94  CZ       -17.9640   21.9290   20.1560 C.cat 173  ARG173      0.5346
     95  NH1      -19.0650   22.0790   19.4300 N.pl3 173  ARG173      0.1354
     96  NH2      -18.0030   21.2290   21.2810 N.pl3 173  ARG173      0.1354
     97  N        -13.6430   25.6820   23.0580 N.3   175  LEU175     -0.1245
     98  CA       -14.6470   26.5670   23.6460 C.3   175  LEU175      0.1561
     99  C        -14.1340   27.2730   24.8860 C.2   175  LEU175      0.2260
    100  O        -14.5640   28.3730   25.2090 O.2   175  LEU175     -0.2867
    101  CB       -15.9310   25.7770   24.0030 C.3   175  LEU175      0.0270
    102  CG       -16.7820   25.0900   22.9310 C.3   175  LEU175      0.0019
    103  CD1      -18.1930   24.8180   23.4830 C.3   175  LEU175      0.0001
    104  CD2      -16.8380   25.8710   21.6420 C.3   175  LEU175      0.0001
@<TRIPOS>BOND
     1    28    27    2
     2    42    41    2
     3    27    26    1
     4    25    26    1
     5    22    24   ar
     6    22    20   ar
     7    26    29    1
     8    24    23   ar
     9     1     2    1
    10    39    40    1
    11    41    48   am
    12    41    40    1
    13    49    50    1
    14    49    48    1
    15    49    52    1
    16    50    51    2
    17    20    19    1
    18    20    21   ar
    19    53    52    1
    20    53    54    1
    21    19    16    1
    22    40    43    1
    23     5     2    1
    24     5     6    1
    25    55    54    1
    26    23    21   ar
    27    18    17    2
    28     2     3    1
    29    29    30    1
    30    15    16    1
    31    15     3   am
    32    70    69    2
    33    43    44    1
    34    16    17    1
    35    35    32   ar
    36    35    37   ar
    37     3     4    2
    38    30    32   ar
    39    30    31   ar
    40     6     7   ar
    41     6     8   ar
    42    32    34   ar
    43    37    38   ar
    44    31    33   ar
    45     7     9   ar
    46    69    68    1
    47    44    45    1
    48    86    87    1
    49    38    36   ar
    50    34    33   ar
    51    34    36   ar
    52     8    11   ar
    53     8    10   ar
    54    11    13   ar
    55    71    68    1
    56    71    72    1
    57    45    46    1
    58    90    87    1
    59    90    91    1
    60    87    88    1
    61    68    67    1
    62    84    83    1
    63     9    10   ar
    64    73    72    1
    65    10    12   ar
    66    46    47    1
    67    91    92    1
    68    85    83    1
    69    92    93    1
    70    13    14   ar
    71    72    74    1
    72    83    82    2
    73    88    89    2
    74    95    94    1
    75    12    14   ar
    76    93    94    2
    77    94    96    1
    78    82    81    1
    79    81    80    1
    80    75    76    1
    81    76    77    1
    82    76    79    1
    83    59    58    2
    84    80    79    1
    85    58    57    1
    86   104   102    1
    87    77    78    2
    88   102   103    1
    89   102   101    1
    90    97    98    1
    91    57    60    1
    92    57    56    1
    93    61    60    1
    94    61    62    1
    95    65    64    1
    96    98   101    1
    97    98    99    1
    98    64    63    2
    99    64    66    1
   100    63    62    1
   101    99   100    2
