@<TRIPOS>MOLECULE
tmp/5lylA00.pdb
 197 187 0 0 0
SMALL
GASTEIGER

@<TRIPOS>ATOM
      1  N         62.2290   30.9690   40.0020 N.3    64  HIS64      -0.1241
      2  CA        62.9510   31.8660   39.0950 C.3    64  HIS64       0.1621
      3  C         64.1460   31.1880   38.4580 C.2    64  HIS64       0.2264
      4  O         64.9700   30.5370   39.1390 O.2    64  HIS64      -0.2867
      5  CB        63.3690   33.1520   39.8170 C.3    64  HIS64       0.0745
      6  CG        62.2120   33.9590   40.3070 C.ar   64  HIS64       0.0817
      7  ND1       62.0470   34.2950   41.6310 N.ar   64  HIS64      -0.2268
      8  CD2       61.1390   34.4610   39.6540 C.ar   64  HIS64       0.1154
      9  CE1       60.9350   34.9880   41.7730 C.ar   64  HIS64       0.1986
     10  NE2       60.3660   35.1090   40.5850 N.ar   64  HIS64      -0.2212
     11  N         67.0800   31.9650   36.8840 N.3    66  ARG66      -0.1231
     12  CA        68.5060   32.2660   37.0640 C.3    66  ARG66       0.1694
     13  C         69.0670   31.9250   38.4430 C.2    66  ARG66       0.2591
     14  O         70.2890   31.9870   38.6420 O.2    66  ARG66      -0.2718
     15  CB        68.7710   33.7450   36.7950 C.3    66  ARG66       0.0321
     16  CG        68.1050   34.6770   37.8030 C.3    66  ARG66       0.0489
     17  CD        68.1230   36.0690   37.2450 C.3    66  ARG66       0.2205
     18  NE        67.3450   37.0060   38.0480 N.pl3  66  ARG66      -0.0865
     19  CZ        67.1010   38.2500   37.6590 C.cat  66  ARG66       0.5346
     20  NH1       67.5540   38.6660   36.4720 N.pl3  66  ARG66       0.1354
     21  NH2       66.3970   39.0650   38.4300 N.pl3  66  ARG66       0.1354
     22  N         68.1830   31.5960   39.3820 N.am   67  GLU67      -0.1979
     23  CA        68.5750   31.3430   40.7710 C.3    67  GLU67       0.1602
     24  C         69.0590   29.8880   40.9400 C.2    67  GLU67       0.2287
     25  O         68.4780   29.0850   41.6710 O.2    67  GLU67      -0.2864
     26  CB        67.4230   31.7270   41.7150 C.3    67  GLU67       0.0415
     27  CG        67.1480   33.2470   41.6760 C.3    67  GLU67       0.1163
     28  CD        65.7870   33.6380   42.1720 C.2    67  GLU67       0.3649
     29  OE1       65.2110   32.8970   42.9860 O.co2  67  GLU67      -0.2457
     30  OE2       65.2740   34.6980   41.7360 O.co2  67  GLU67      -0.2457
     31  N         64.6490   35.3090   34.1900 N.3   122  ARG122     -0.1245
     32  CA        63.9150   35.1740   35.4670 C.3   122  ARG122      0.1563
     33  C         62.5460   34.4960   35.3300 C.2   122  ARG122      0.2260
     34  O         62.2050   33.5760   36.1040 O.2   122  ARG122     -0.2867
     35  CB        63.7190   36.5670   36.0870 C.3   122  ARG122      0.0307
     36  CG        62.6840   36.6630   37.2190 C.3   122  ARG122      0.0489
     37  CD        62.4840   38.1260   37.6520 C.3   122  ARG122      0.2205
     38  NE        61.5370   38.3320   38.7690 N.pl3 122  ARG122     -0.0865
     39  CZ        61.8420   38.1130   40.0530 C.cat 122  ARG122      0.5346
     40  NH1       63.0420   37.6260   40.3830 N.pl3 122  ARG122      0.1354
     41  NH2       60.9580   38.3630   41.0150 N.pl3 122  ARG122      0.1354
     42  N         56.2310   34.3480   40.8360 N.3   139  ASN139     -0.1225
     43  CA        56.1310   34.8930   42.1840 C.3   139  ASN139      0.1785
     44  C         55.4230   36.2470   42.2650 C.2   139  ASN139      0.2597
     45  O         55.4970   36.9010   43.2860 O.2   139  ASN139     -0.2718
     46  CB        57.5300   34.9680   42.8190 C.3   139  ASN139      0.1169
     47  CG        57.5870   34.3580   44.1990 C.2   139  ASN139      0.2627
     48  OD1       56.7570   33.5180   44.5630 O.2   139  ASN139     -0.2716
     49  ND2       58.6070   34.7540   44.9830 N.am  139  ASN139     -0.0877
     50  N         54.7610   36.6520   41.1710 N.am  140  ARG140     -0.1979
     51  CA        53.7750   37.7360   41.1680 C.3   140  ARG140      0.1597
     52  C         52.4570   37.2420   40.5350 C.2   140  ARG140      0.2287
     53  O         51.5860   38.0450   40.1820 O.2   140  ARG140     -0.2864
     54  CB        54.2990   38.9490   40.3760 C.3   140  ARG140      0.0334
     55  CG        55.6650   39.4910   40.8280 C.3   140  ARG140      0.0492
     56  CD        55.5850   40.2240   42.1760 C.3   140  ARG140      0.2205
     57  NE        56.8840   40.8370   42.4970 N.pl3 140  ARG140     -0.0865
     58  CZ        57.9440   40.1620   42.9440 C.cat 140  ARG140      0.5346
     59  NH1       57.8710   38.8400   43.1410 N.pl3 140  ARG140      0.1354
     60  NH2       59.0820   40.8080   43.1860 N.pl3 140  ARG140      0.1354
     61  N         60.1400   42.6060   34.5220 N.3   158  GLU158     -0.1231
     62  CA        60.6300   41.4300   35.2430 C.3   158  GLU158      0.1699
     63  C         59.6590   40.9500   36.3270 C.2   158  GLU158      0.2592
     64  O         59.7000   39.7620   36.7200 O.2   158  GLU158     -0.2718
     65  CB        62.0130   41.7250   35.8470 C.3   158  GLU158      0.0402
     66  CG        63.1260   41.8120   34.8090 C.3   158  GLU158      0.1161
     67  CD        63.5300   40.4450   34.2960 C.2   158  GLU158      0.3649
     68  OE1       62.7440   39.8380   33.5410 O.co2 158  GLU158     -0.2457
     69  OE2       64.6350   39.9780   34.6430 O.co2 158  GLU158     -0.2457
     70  N         58.7760   41.8410   36.7760 N.am  159  THR159     -0.1953
     71  CA        57.7740   41.5000   37.7980 C.3   159  THR159      0.1897
     72  C         56.3670   41.4660   37.2050 C.2   159  THR159      0.2313
     73  O         55.3850   41.6740   37.9170 O.2   159  THR159     -0.2863
     74  CB        57.7810   42.4990   38.9950 C.3   159  THR159      0.1794
     75  OG1       57.5900   43.8480   38.5110 O.3   159  THR159     -0.2208
     76  CG2       59.1010   42.4180   39.7680 C.3   159  THR159      0.0378
     77  N         64.9540   30.6360   47.0390 N.3   192  HIS192     -0.1226
     78  CA        65.3150   31.6480   46.0640 C.3   192  HIS192      0.1752
     79  C         66.7610   32.1030   46.2970 C.2   192  HIS192      0.2597
     80  O         67.4510   31.5800   47.1670 O.2   192  HIS192     -0.2718
     81  CB        64.3700   32.8470   46.2140 C.3   192  HIS192      0.0759
     82  CG        62.9450   32.5210   45.8650 C.ar  192  HIS192      0.0818
     83  ND1       62.3970   32.8170   44.6360 N.ar  192  HIS192     -0.2268
     84  CD2       61.9860   31.8680   46.5580 C.ar  192  HIS192      0.1154
     85  CE1       61.1520   32.3820   44.5940 C.ar  192  HIS192      0.1986
     86  NE2       60.8820   31.7840   45.7410 N.ar  192  HIS192     -0.2212
     87  N         67.2190   33.0360   45.4750 N.am  193  SER193     -0.1938
     88  CA        68.4560   33.7890   45.7610 C.3   193  SER193      0.2055
     89  C         68.3510   35.1580   45.0870 C.2   193  SER193      0.2643
     90  O         67.4530   35.3660   44.2690 O.2   193  SER193     -0.2714
     91  CB        69.6970   33.0120   45.2970 C.3   193  SER193      0.2130
     92  OG        69.8920   33.0640   43.8860 O.3   193  SER193     -0.2179
     93  N         69.2210   36.1140   45.4200 N.am  194  TYR194     -0.1959
     94  CA        70.2060   36.0250   46.4930 C.3   194  TYR194      0.1771
     95  C         69.9210   37.1380   47.5060 C.2   194  TYR194      0.2620
     96  O         68.9470   37.8870   47.3500 O.2   194  TYR194     -0.2715
     97  CB        71.6320   36.1570   45.9150 C.3   194  TYR194      0.0574
     98  CG        71.8610   37.4650   45.1660 C.ar  194  TYR194     -0.0198
     99  CD1       71.5300   37.5820   43.8200 C.ar  194  TYR194     -0.0009
    100  CD2       72.3700   38.5940   45.8250 C.ar  194  TYR194     -0.0009
    101  CE1       71.7310   38.7720   43.1270 C.ar  194  TYR194      0.0417
    102  CE2       72.5670   39.8050   45.1390 C.ar  194  TYR194      0.0417
    103  CZ        72.2460   39.8760   43.7830 C.ar  194  TYR194      0.1957
    104  OH        72.4250   41.0600   43.0750 O.3   194  TYR194     -0.2866
    105  N         70.7350   37.1930   48.5630 N.am  195  SER195     -0.1950
    106  CA        70.8120   38.3020   49.5500 C.3   195  SER195      0.1924
    107  C         70.8320   37.8690   51.0320 C.2   195  SER195      0.2314
    108  O         70.9650   38.7140   51.9340 O.2   195  SER195     -0.2863
    109  CB        69.7660   39.4070   49.3050 C.3   195  SER195      0.2116
    110  OG        68.4970   38.9780   49.7530 O.3   195  SER195     -0.2180
    111  N         68.4920   36.2020   53.2390 N.3   197  HIS197     -0.1241
    112  CA        67.3160   36.7630   53.8900 C.3   197  HIS197      0.1621
    113  C         66.3080   35.6530   54.1010 C.2   197  HIS197      0.2264
    114  O         66.0450   34.9060   53.1610 O.2   197  HIS197     -0.2867
    115  CB        66.6300   37.6880   52.8990 C.3   197  HIS197      0.0745
    116  CG        66.9520   39.1290   53.0580 C.ar  197  HIS197      0.0817
    117  ND1       67.6180   39.8470   52.0850 N.ar  197  HIS197     -0.2268
    118  CD2       66.6550   40.0070   54.0430 C.ar  197  HIS197      0.1154
    119  CE1       67.7420   41.1020   52.4770 C.ar  197  HIS197      0.1986
    120  NE2       67.1580   41.2270   53.6560 N.ar  197  HIS197     -0.2212
    121  N         62.3560   35.5930   54.6290 N.3   199  VAL199     -0.1245
    122  CA        61.1460   36.4120   54.5480 C.3   199  VAL199      0.1561
    123  C         59.9570   35.5610   55.0330 C.2   199  VAL199      0.2260
    124  O         59.8970   34.3570   54.7550 O.2   199  VAL199     -0.2867
    125  CB        60.9080   36.8940   53.0580 C.3   199  VAL199      0.0252
    126  CG1       59.4470   37.2430   52.8020 C.3   199  VAL199      0.0019
    127  CG2       61.8030   38.1100   52.7210 C.3   199  VAL199      0.0019
    128  N         54.0370   40.1490   52.0170 N.3   203  SER203     -0.1217
    129  CA        54.7210   40.9070   50.9900 C.3   203  SER203      0.1889
    130  C         53.7510   41.6310   50.0560 C.2   203  SER203      0.2288
    131  O         54.1740   42.5500   49.3420 O.2   203  SER203     -0.2866
    132  CB        55.6730   40.0150   50.1820 C.3   203  SER203      0.2089
    133  OG        56.6860   39.4730   51.0230 O.3   203  SER203     -0.2183
    134  N         62.1750   43.6550   52.7830 N.3   243  LEU243     -0.1231
    135  CA        62.6520   43.4580   51.4390 C.3   243  LEU243      0.1693
    136  C         62.0420   44.4880   50.5050 C.2   243  LEU243      0.2592
    137  O         62.6940   45.4760   50.1370 O.2   243  LEU243     -0.2718
    138  CB        62.3530   42.0150   50.9850 C.3   243  LEU243      0.0284
    139  CG        63.0170   41.5310   49.6980 C.3   243  LEU243      0.0019
    140  CD1       64.5150   41.8460   49.6780 C.3   243  LEU243      0.0001
    141  CD2       62.7590   40.0220   49.5470 C.3   243  LEU243      0.0001
    142  N         60.7860   44.2600   50.1400 N.am  244  TYR244     -0.1976
    143  CA        60.0140   45.1690   49.2920 C.3   244  TYR244      0.1639
    144  C         58.6200   44.6010   49.0990 C.2   244  TYR244      0.2290
    145  O         58.3740   43.4190   49.3920 O.2   244  TYR244     -0.2864
    146  CB        60.6700   45.3720   47.9140 C.3   244  TYR244      0.0560
    147  CG        61.2660   44.1450   47.2430 C.ar  244  TYR244     -0.0198
    148  CD1       62.6270   44.0940   46.9380 C.ar  244  TYR244     -0.0009
    149  CD2       60.4710   43.0330   46.9060 C.ar  244  TYR244     -0.0009
    150  CE1       63.1910   42.9600   46.2890 C.ar  244  TYR244      0.0417
    151  CE2       61.0120   41.9080   46.2810 C.ar  244  TYR244      0.0417
    152  CZ        62.3660   41.8690   45.9810 C.ar  244  TYR244      0.1957
    153  OH        62.8960   40.7640   45.3610 O.3   244  TYR244     -0.2866
    154  N         56.0080   42.7800   47.1290 N.3   246  ALA246     -0.1245
    155  CA        56.0820   41.7510   46.0960 C.3   246  ALA246      0.1562
    156  C         54.7870   40.9430   46.1910 C.2   246  ALA246      0.2260
    157  O         54.7470   39.8360   46.7690 O.2   246  ALA246     -0.2867
    158  CB        57.3120   40.8600   46.3120 C.3   246  ALA246      0.0290
    159  N         52.7550   36.4840   45.6310 N.3   249  GLY249     -0.1225
    160  CA        53.7620   35.4750   45.9550 C.3   249  GLY249      0.1811
    161  C         53.1650   34.1820   46.5050 C.2   249  GLY249      0.2280
    162  O         52.1050   34.1930   47.1510 O.2   249  GLY249     -0.2866
    163  N         54.2830   32.3400   48.9260 N.3   251  ASP251     -0.1239
    164  CA        54.3220   32.3160   50.4000 C.3   251  ASP251      0.1674
    165  C         53.1030   32.9970   51.0440 C.2   251  ASP251      0.2266
    166  O         52.5070   32.4500   51.9800 O.2   251  ASP251     -0.2867
    167  CB        55.6570   32.8600   50.9500 C.3   251  ASP251      0.1410
    168  CG        55.9990   34.2580   50.4520 C.2   251  ASP251      0.3668
    169  OD1       55.2720   34.8150   49.6010 O.co2 251  ASP251     -0.2456
    170  OD2       57.0130   34.8120   50.9510 O.co2 251  ASP251     -0.2456
    171  N         60.1220   32.4030   52.8130 N.3   264  THR264     -0.1218
    172  CA        60.9390   32.4770   51.6150 C.3   264  THR264      0.1862
    173  C         62.3930   32.6080   52.0440 C.2   264  THR264      0.2287
    174  O         62.7110   33.4360   52.9090 O.2   264  THR264     -0.2866
    175  CB        60.5210   33.6890   50.7320 C.3   264  THR264      0.1770
    176  OG1       59.2260   33.4360   50.1930 O.3   264  THR264     -0.2211
    177  CG2       61.4830   33.8760   49.5880 C.3   264  THR264      0.0375
    178  N         66.1210   33.5220   50.7720 N.3   266  GLU266     -0.1245
    179  CA        67.0220   34.0280   49.7270 C.3   266  GLU266      0.1567
    180  C         68.4170   33.5660   50.1200 C.2   266  GLU266      0.2260
    181  O         68.9570   34.0160   51.1350 O.2   266  GLU266     -0.2867
    182  CB        67.0050   35.5680   49.6460 C.3   266  GLU266      0.0388
    183  CG        65.6410   36.2080   49.4480 C.3   266  GLU266      0.1160
    184  CD        65.2810   36.4270   47.9950 C.2   266  GLU266      0.3649
    185  OE1       65.7830   35.6980   47.1160 O.co2 266  GLU266     -0.2457
    186  OE2       64.4840   37.3410   47.7270 O.co2 266  GLU266     -0.2457
    187  N         73.5120   36.0620   41.3030 N.3   275  PHE275     -0.1241
    188  CA        72.8660   34.8410   40.7860 C.3   275  PHE275      0.1605
    189  C         73.8750   33.8480   40.2400 C.2   275  PHE275      0.2264
    190  O         73.6010   32.6490   40.1720 O.2   275  PHE275     -0.2867
    191  CB        71.8620   35.1830   39.6780 C.3   275  PHE275      0.0534
    192  CG        70.7820   36.1220   40.1170 C.ar  275  PHE275     -0.0203
    193  CD1       69.8620   35.7390   41.1000 C.ar  275  PHE275     -0.0042
    194  CD2       70.6860   37.3920   39.5600 C.ar  275  PHE275     -0.0042
    195  CE1       68.8600   36.5980   41.5120 C.ar  275  PHE275     -0.0003
    196  CE2       69.6890   38.2740   39.9760 C.ar  275  PHE275     -0.0003
    197  CZ        68.7690   37.8720   40.9470 C.ar  275  PHE275     -0.0000
@<TRIPOS>BOND
     1    68    67   ar
     2    31    32    1
     3    67    69   ar
     4    67    66    1
     5    61    62    1
     6    66    65    1
     7    62    65    1
     8    62    63    1
     9    33    32    1
    10    33    34    2
    11    32    35    1
    12    35    36    1
    13    63    64    2
    14    63    70   am
    15    20    19    1
    16    70    71    1
    17    15    12    1
    18    15    16    1
    19    11    12    1
    20    12    13    1
    21    72    71    1
    22    72    73    2
    23    36    37    1
    24    17    16    1
    25    17    18    1
    26    37    38    1
    27    19    18    2
    28    19    21    1
    29    71    74    1
    30    13    14    2
    31    13    22   am
    32     3     2    1
    33     3     4    2
    34    75    74    1
    35    38    39    2
    36    74    76    1
    37     2     5    1
    38     2     1    1
    39    22    23    1
    40   194   196   ar
    41   194   192   ar
    42     8     6   ar
    43     8    10   ar
    44   191   192    1
    45   191   188    1
    46     5     6    1
    47   196   197   ar
    48    39    40    1
    49    39    41    1
    50   192   193   ar
    51   190   189    2
    52    53    52    2
    53   189   188    1
    54     6     7   ar
    55    54    55    1
    56    54    51    1
    57    52    51    1
    58    10     9   ar
    59    23    24    1
    60    23    26    1
    61   188   187    1
    62    55    56    1
    63    42    43    1
    64    24    25    2
    65   197   195   ar
    66   193   195   ar
    67    51    50    1
    68    50    44   am
    69     7     9   ar
    70    27    26    1
    71    27    28    1
    72    30    28   ar
    73    28    29   ar
    74    56    57    1
    75    43    44    1
    76    43    46    1
    77    44    45    2
    78    57    58    2
    79    46    47    1
    80    58    59    1
    81    58    60    1
    82   104   103    1
    83   101   103   ar
    84   101    99   ar
    85   103   102   ar
    86    99    98   ar
    87    92    91    1
    88    47    48    2
    89    47    49   am
    90    90    89    2
    91    85    83   ar
    92    85    86   ar
    93    83    82   ar
    94    89    93   am
    95    89    88    1
    96   102   100   ar
    97    98   100   ar
    98    98    97    1
    99    91    88    1
   100   153   152    1
   101    93    94    1
   102    87    88    1
   103    87    79   am
   104   159   160    1
   105    86    84   ar
   106    82    81    1
   107    82    84   ar
   108    97    94    1
   109   160   161    1
   110   152   151   ar
   111   152   150   ar
   112    78    81    1
   113    78    79    1
   114    78    77    1
   115   155   156    1
   116   155   158    1
   117   155   154    1
   118   156   157    2
   119   151   149   ar
   120   150   148   ar
   121    79    80    2
   122    94    95    1
   123   161   162    2
   124   149   147   ar
   125   148   147   ar
   126   185   184   ar
   127   147   146    1
   128    96    95    2
   129    95   105   am
   130   186   184   ar
   131   146   143    1
   132   184   183    1
   133   105   106    1
   134   163   164    1
   135   144   143    1
   136   144   145    2
   137   143   142    1
   138   109   106    1
   139   109   110    1
   140   131   130    2
   141   183   182    1
   142   141   139    1
   143   106   107    1
   144   177   175    1
   145   169   168   ar
   146   182   179    1
   147   140   139    1
   148   139   138    1
   149   179   180    1
   150   179   178    1
   151   130   129    1
   152   180   181    2
   153   137   136    2
   154   142   136   am
   155   132   129    1
   156   132   133    1
   157   176   175    1
   158   164   167    1
   159   164   165    1
   160   168   167    1
   161   168   170   ar
   162   136   135    1
   163   175   172    1
   164   138   135    1
   165   129   128    1
   166   107   108    2
   167   165   166    2
   168   135   134    1
   169   172   173    1
   170   172   171    1
   171   173   174    2
   172   117   119   ar
   173   117   116   ar
   174   119   120   ar
   175   127   125    1
   176   126   125    1
   177   115   116    1
   178   115   112    1
   179   116   118   ar
   180   125   122    1
   181   114   113    2
   182   111   112    1
   183   120   118   ar
   184   112   113    1
   185   122   121    1
   186   122   123    1
   187   124   123    2
