@<TRIPOS>MOLECULE
tmp/5lyqA01.pdb
 203 192 0 0 0
SMALL
GASTEIGER

@<TRIPOS>ATOM
      1  N        -25.7450   -0.8990  -35.8410 N.3    19  VAL19      -0.1245
      2  CA       -25.2760   -0.3340  -34.5780 C.3    19  VAL19       0.1561
      3  C        -26.0590   -0.9150  -33.4060 C.2    19  VAL19       0.2260
      4  O        -25.4860   -1.2490  -32.3600 O.2    19  VAL19      -0.2867
      5  CB       -25.3590    1.2030  -34.6180 C.3    19  VAL19       0.0252
      6  CG1      -25.0810    1.7890  -33.2410 C.3    19  VAL19       0.0019
      7  CG2      -24.3740    1.7520  -35.6410 C.3    19  VAL19       0.0019
      8  N        -24.9180   -4.5280  -32.8760 N.3    22  ILE22      -0.1231
      9  CA       -23.5910   -4.6100  -32.2750 C.3    22  ILE22       0.1692
     10  C        -23.6500   -4.2410  -30.7970 C.2    22  ILE22       0.2592
     11  O        -22.9810   -4.8640  -29.9630 O.2    22  ILE22      -0.2718
     12  CB       -22.6060   -3.7190  -33.0550 C.3    22  ILE22       0.0266
     13  CG1      -22.3790   -4.2890  -34.4600 C.3    22  ILE22       0.0019
     14  CG2      -21.2830   -3.5820  -32.3050 C.3    22  ILE22       0.0020
     15  CD1      -21.5820   -3.3800  -35.3650 C.3    22  ILE22       0.0001
     16  N        -24.4570   -3.2370  -30.4450 N.am   23  CYS23      -0.1970
     17  CA       -24.5620   -2.8360  -29.0460 C.3    23  CYS23       0.1712
     18  C        -25.2680   -3.8990  -28.2140 C.2    23  CYS23       0.2296
     19  O        -24.9070   -4.1250  -27.0530 O.2    23  CYS23      -0.2864
     20  CB       -25.2800   -1.4920  -28.9340 C.3    23  CYS23       0.0983
     21  SG       -24.2950   -0.1090  -29.5590 S.3    23  CYS23      -0.0798
     22  N        -25.2310   -7.1960  -28.8890 N.3    25  ALA25      -0.1231
     23  CA       -24.2790   -8.2930  -28.7490 C.3    25  ALA25       0.1694
     24  C        -23.1730   -7.9440  -27.7600 C.2    25  ALA25       0.2591
     25  O        -22.6920   -8.8180  -27.0270 O.2    25  ALA25      -0.2718
     26  CB       -23.6870   -8.6540  -30.1130 C.3    25  ALA25       0.0304
     27  N        -22.7540   -6.6760  -27.7270 N.am   26  ALA26      -0.1980
     28  CA       -21.7170   -6.2640  -26.7860 C.3    26  ALA26       0.1597
     29  C        -22.1520   -6.5190  -25.3520 C.2    26  ALA26       0.2287
     30  O        -21.3700   -7.0220  -24.5380 O.2    26  ALA26      -0.2864
     31  CB       -21.3750   -4.7870  -26.9860 C.3    26  ALA26       0.0319
     32  N        -21.8650  -10.2000  -24.6320 N.3    29  GLN29      -0.1245
     33  CA       -20.4970  -10.6840  -24.4880 C.3    29  GLN29       0.1566
     34  C        -19.8390  -10.2030  -23.2010 C.2    29  GLN29       0.2260
     35  O        -18.8740  -10.8260  -22.7460 O.2    29  GLN29      -0.2867
     36  CB       -19.6560  -10.2670  -25.6940 C.3    29  GLN29       0.0367
     37  CG       -19.9800  -11.0540  -26.9530 C.3    29  GLN29       0.0905
     38  CD       -19.9710  -12.5480  -26.7060 C.2    29  GLN29       0.2608
     39  OE1      -21.0180  -13.1620  -26.5050 O.2    29  GLN29      -0.2717
     40  NE2      -18.7840  -13.1420  -26.7190 N.am   29  GLN29      -0.0878
     41  N        -12.3250   -4.0810  -21.1070 N.3    59  TRP59      -0.1227
     42  CA       -13.4240   -4.8230  -21.7230 C.3    59  TRP59       0.1737
     43  C        -13.5670   -4.5070  -23.2060 C.2    59  TRP59       0.2595
     44  O        -13.8530   -5.3980  -24.0150 O.2    59  TRP59      -0.2718
     45  CB       -14.7400   -4.5220  -21.0000 C.3    59  TRP59       0.0564
     46  CG       -15.2450   -3.1120  -21.1970 C.ar   59  TRP59       0.0003
     47  CD1      -14.9780   -2.0300  -20.4120 C.ar   59  TRP59       0.0946
     48  CD2      -16.1040   -2.6430  -22.2460 C.ar   59  TRP59       0.0152
     49  NE1      -15.6170   -0.9160  -20.9040 N.ar   59  TRP59      -0.2442
     50  CE2      -16.3120   -1.2650  -22.0310 C.ar   59  TRP59       0.0810
     51  CE3      -16.7120   -3.2530  -23.3490 C.ar   59  TRP59       0.0012
     52  CZ2      -17.1060   -0.4860  -22.8760 C.ar   59  TRP59       0.0191
     53  CZ3      -17.4990   -2.4760  -24.1910 C.ar   59  TRP59       0.0001
     54  CH2      -17.6890   -1.1080  -23.9480 C.ar   59  TRP59       0.0015
     55  N        -13.3680   -3.2450  -23.5810 N.am   60  ASN60      -0.1974
     56  CA       -13.5670   -2.8500  -24.9700 C.3    60  ASN60       0.1688
     57  C        -12.5230   -3.4950  -25.8740 C.2    60  ASN60       0.2292
     58  O        -12.8660   -4.1530  -26.8620 O.2    60  ASN60      -0.2864
     59  CB       -13.5300   -1.3270  -25.0820 C.3    60  ASN60       0.1181
     60  CG       -14.1990   -0.8230  -26.3340 C.2    60  ASN60       0.2629
     61  OD1      -15.0540   -1.4950  -26.9070 O.2    60  ASN60      -0.2716
     62  ND2      -13.8180    0.3730  -26.7670 N.am   60  ASN60      -0.0877
     63  N        -12.9560   -7.4190  -26.0100 N.3    63  LEU63      -0.1231
     64  CA       -14.0160   -7.9210  -26.8700 C.3    63  LEU63       0.1693
     65  C        -13.8100   -7.5260  -28.3290 C.2    63  LEU63       0.2591
     66  O        -14.2570   -8.2480  -29.2280 O.2    63  LEU63      -0.2718
     67  CB       -15.3710   -7.4330  -26.3600 C.3    63  LEU63       0.0284
     68  CG       -15.8190   -8.0620  -25.0400 C.3    63  LEU63       0.0019
     69  CD1      -17.1770   -7.5240  -24.6340 C.3    63  LEU63       0.0001
     70  CD2      -15.8530   -9.5850  -25.1550 C.3    63  LEU63       0.0001
     71  N        -13.1320   -6.4070  -28.5920 N.am   64  ILE64      -0.1980
     72  CA       -12.8140   -6.0670  -29.9750 C.3    64  ILE64       0.1595
     73  C        -11.8450   -7.0860  -30.5640 C.2    64  ILE64       0.2287
     74  O        -12.0090   -7.5380  -31.7070 O.2    64  ILE64      -0.2864
     75  CB       -12.2610   -4.6350  -30.0650 C.3    64  ILE64       0.0276
     76  CG1      -13.4020   -3.6240  -29.9390 C.3    64  ILE64       0.0022
     77  CG2      -11.5020   -4.4420  -31.3790 C.3    64  ILE64       0.0022
     78  CD1      -12.9300   -2.2150  -29.6610 C.3    64  ILE64       0.0001
     79  N        -11.6490  -10.1280  -29.6430 N.3    66  SER66      -0.1202
     80  CA       -12.3580  -11.3970  -29.7780 C.3    66  SER66       0.2020
     81  C        -13.0780  -11.4910  -31.1170 C.2    66  SER66       0.2618
     82  O        -12.8940  -12.4600  -31.8620 O.2    66  SER66      -0.2717
     83  CB       -13.3440  -11.5810  -28.6260 C.3    66  SER66       0.2103
     84  OG       -12.6960  -12.1240  -27.4940 O.3    66  SER66      -0.2182
     85  N        -13.9080  -10.4950  -31.4410 N.am   67  PHE67      -0.1975
     86  CA       -14.6560  -10.5700  -32.6940 C.3    67  PHE67       0.1639
     87  C        -13.7400  -10.3930  -33.8970 C.2    67  PHE67       0.2290
     88  O        -14.0490  -10.8980  -34.9820 O.2    67  PHE67      -0.2864
     89  CB       -15.8160   -9.5550  -32.7150 C.3    67  PHE67       0.0560
     90  CG       -15.4340   -8.1480  -33.1310 C.ar   67  PHE67      -0.0200
     91  CD1      -15.2150   -7.8230  -34.4670 C.ar   67  PHE67      -0.0042
     92  CD2      -15.3730   -7.1310  -32.1930 C.ar   67  PHE67      -0.0042
     93  CE1      -14.8830   -6.5310  -34.8420 C.ar   67  PHE67      -0.0003
     94  CE2      -15.0510   -5.8310  -32.5690 C.ar   67  PHE67      -0.0003
     95  CZ       -14.8050   -5.5340  -33.8920 C.ar   67  PHE67      -0.0000
     96  N        -12.4490  -13.7920  -34.5580 N.3    70  ARG70      -0.1245
     97  CA       -13.5680  -14.5900  -35.0430 C.3    70  ARG70       0.1563
     98  C        -13.9020  -14.2890  -36.4980 C.2    70  ARG70       0.2260
     99  O        -14.5340  -15.1180  -37.1660 O.2    70  ARG70      -0.2867
    100  CB       -14.8000  -14.3480  -34.1670 C.3    70  ARG70       0.0307
    101  CG       -15.8960  -15.3870  -34.3240 C.3    70  ARG70       0.0489
    102  CD       -17.1570  -15.0070  -33.5560 C.3    70  ARG70       0.2205
    103  NE       -16.9080  -14.7730  -32.1360 N.pl3  70  ARG70      -0.0865
    104  CZ       -17.0820  -13.6050  -31.5260 C.cat  70  ARG70       0.5346
    105  NH1      -17.5190  -12.5550  -32.2080 N.pl3  70  ARG70       0.1354
    106  NH2      -16.8280  -13.4880  -30.2290 N.pl3  70  ARG70       0.1354
    107  N        -17.4060   -8.5610  -40.2740 N.3    78  ILE78      -0.1245
    108  CA       -17.1250   -9.1580  -38.9780 C.3    78  ILE78       0.1561
    109  C        -18.2470  -10.1250  -38.6240 C.2    78  ILE78       0.2260
    110  O        -19.3620  -10.0470  -39.1450 O.2    78  ILE78      -0.2867
    111  CB       -16.9490   -8.1050  -37.8660 C.3    78  ILE78       0.0252
    112  CG1      -18.2470   -7.3250  -37.6560 C.3    78  ILE78       0.0019
    113  CG2      -15.8000   -7.1670  -38.2020 C.3    78  ILE78       0.0019
    114  CD1      -18.1440   -6.2890  -36.5630 C.3    78  ILE78       0.0001
    115  N        -20.2720  -11.4440  -35.3540 N.3    80  LEU80      -0.1231
    116  CA       -20.5770  -11.2830  -33.9420 C.3    80  LEU80       0.1693
    117  C        -20.8320  -12.6430  -33.3010 C.2    80  LEU80       0.2591
    118  O        -21.1550  -13.6250  -33.9740 O.2    80  LEU80      -0.2718
    119  CB       -21.7900  -10.3740  -33.7470 C.3    80  LEU80       0.0284
    120  CG       -21.7250   -8.9910  -34.4020 C.3    80  LEU80       0.0019
    121  CD1      -23.0610   -8.2710  -34.2630 C.3    80  LEU80       0.0001
    122  CD2      -20.6010   -8.1600  -33.8070 C.3    80  LEU80       0.0001
    123  N        -20.6850  -12.6900  -31.9740 N.am   81  ALA81      -0.1980
    124  CA       -20.8650  -13.9460  -31.2520 C.3    81  ALA81       0.1597
    125  C        -22.2870  -14.4760  -31.3620 C.2    81  ALA81       0.2287
    126  O        -22.5030  -15.6820  -31.1990 O.2    81  ALA81      -0.2864
    127  CB       -20.4890  -13.7720  -29.7820 C.3    81  ALA81       0.0319
    128  N        -20.8180    4.5020  -39.7100 N.3    96  VAL96      -0.1245
    129  CA       -19.6410    4.1110  -38.9380 C.3    96  VAL96       0.1561
    130  C        -18.6450    3.3860  -39.8360 C.2    96  VAL96       0.2260
    131  O        -17.9110    2.5010  -39.3810 O.2    96  VAL96      -0.2867
    132  CB       -20.0280    3.2400  -37.7260 C.3    96  VAL96       0.0252
    133  CG1      -20.8840    4.0350  -36.7470 C.3    96  VAL96       0.0019
    134  CG2      -20.7610    1.9800  -38.1760 C.3    96  VAL96       0.0019
    135  N        -14.4160    3.7280  -38.8730 N.3    99  ILE99      -0.1231
    136  CA       -13.8770    2.9160  -37.7890 C.3    99  ILE99       0.1692
    137  C        -14.0210    1.4310  -38.1090 C.2    99  ILE99       0.2592
    138  O        -13.1740    0.6170  -37.7150 O.2    99  ILE99      -0.2718
    139  CB       -14.5470    3.2980  -36.4510 C.3    99  ILE99       0.0266
    140  CG1      -13.9640    2.4790  -35.2980 C.3    99  ILE99       0.0019
    141  CG2      -16.0670    3.1460  -36.5230 C.3    99  ILE99       0.0020
    142  CD1      -12.4520    2.6270  -35.1470 C.3    99  ILE99       0.0001
    143  N        -15.0690    1.0560  -38.8490 N.am  100  PHE100     -0.1976
    144  CA       -15.2330   -0.3350  -39.2650 C.3   100  PHE100      0.1639
    145  C        -14.0910   -0.7700  -40.1760 C.2   100  PHE100      0.2290
    146  O        -13.5090   -1.8460  -39.9940 O.2   100  PHE100     -0.2864
    147  CB       -16.5830   -0.5080  -39.9620 C.3   100  PHE100      0.0560
    148  CG       -17.0270   -1.9420  -40.1000 C.ar  100  PHE100     -0.0200
    149  CD1      -17.8510   -2.5210  -39.1460 C.ar  100  PHE100     -0.0042
    150  CD2      -16.6410   -2.7020  -41.1940 C.ar  100  PHE100     -0.0042
    151  CE1      -18.2770   -3.8350  -39.2750 C.ar  100  PHE100     -0.0003
    152  CE2      -17.0620   -4.0160  -41.3280 C.ar  100  PHE100     -0.0003
    153  CZ       -17.8790   -4.5840  -40.3680 C.ar  100  PHE100     -0.0000
    154  N        -10.9940   -1.5210  -38.2270 N.3   103  VAL103     -0.1245
    155  CA       -10.9900   -2.8640  -37.6500 C.3   103  VAL103      0.1561
    156  C        -10.5640   -3.8900  -38.6940 C.2   103  VAL103      0.2260
    157  O         -9.7260   -4.7620  -38.4300 O.2   103  VAL103     -0.2867
    158  CB       -12.3730   -3.1950  -37.0590 C.3   103  VAL103      0.0252
    159  CG1      -12.4790   -4.6760  -36.7450 C.3   103  VAL103      0.0019
    160  CG2      -12.6160   -2.3770  -35.8100 C.3   103  VAL103      0.0019
    161  N         -8.1890    1.7870  -31.6090 N.3   182  ILE182     -0.1245
    162  CA        -9.5210    1.4420  -32.0920 C.3   182  ILE182      0.1561
    163  C        -10.5050    1.3270  -30.9310 C.2   182  ILE182      0.2260
    164  O        -11.6680    1.7370  -31.0450 O.2   182  ILE182     -0.2867
    165  CB        -9.4520    0.1550  -32.9350 C.3   182  ILE182      0.0252
    166  CG1       -8.7280    0.4460  -34.2560 C.3   182  ILE182      0.0019
    167  CG2      -10.8460   -0.4160  -33.1890 C.3   182  ILE182      0.0019
    168  CD1       -8.5410   -0.7620  -35.1390 C.3   182  ILE182      0.0001
    169  N        -13.9750    3.4760  -30.6660 N.3   186  CYS186     -0.1235
    170  CA       -15.2350    2.7770  -30.4390 C.3   186  CYS186      0.1677
    171  C        -15.9620    3.3310  -29.2200 C.2   186  CYS186      0.2270
    172  O        -17.1890    3.4830  -29.2340 O.2   186  CYS186     -0.2867
    173  CB       -14.9630    1.2820  -30.2780 C.3   186  CYS186      0.0956
    174  SG       -16.3020    0.3340  -29.5490 S.3   186  CYS186     -0.0801
    175  N        -17.7710    6.5840  -30.0430 N.3   189  HIS189     -0.1226
    176  CA       -19.0400    6.3490  -30.7230 C.3   189  HIS189      0.1752
    177  C        -20.1290    5.9490  -29.7340 C.2   189  HIS189      0.2595
    178  O        -21.2470    6.4750  -29.7810 O.2   189  HIS189     -0.2718
    179  CB       -18.8710    5.2730  -31.7970 C.3   189  HIS189      0.0759
    180  CG       -18.2550    5.7740  -33.0670 C.ar  189  HIS189      0.0818
    181  ND1      -16.8940    5.7770  -33.2850 N.ar  189  HIS189     -0.2268
    182  CD2      -18.8170    6.2880  -34.1850 C.ar  189  HIS189      0.1154
    183  CE1      -16.6440    6.2720  -34.4840 C.ar  189  HIS189      0.1986
    184  NE2      -17.7930    6.5910  -35.0500 N.ar  189  HIS189     -0.2212
    185  N        -19.8190    5.0080  -28.8350 N.am  190  LEU190     -0.1980
    186  CA       -20.7950    4.5600  -27.8430 C.3   190  LEU190      0.1596
    187  C        -21.3370    5.7260  -27.0270 C.2   190  LEU190      0.2287
    188  O        -22.5500    5.8510  -26.8280 O.2   190  LEU190     -0.2864
    189  CB       -20.1680    3.5150  -26.9180 C.3   190  LEU190      0.0297
    190  CG       -20.0130    2.0920  -27.4520 C.3   190  LEU190      0.0022
    191  CD1      -19.4300    1.1820  -26.3790 C.3   190  LEU190      0.0001
    192  CD2      -21.3550    1.5670  -27.9410 C.3   190  LEU190      0.0001
    193  N        -23.7760    7.5770  -29.1750 N.3   193  PHE193     -0.1241
    194  CA       -25.0600    6.8820  -29.2610 C.3   193  PHE193      0.1605
    195  C        -25.8510    7.0490  -27.9720 C.2   193  PHE193      0.2264
    196  O        -27.0680    7.2680  -28.0020 O.2   193  PHE193     -0.2867
    197  CB       -24.8620    5.3920  -29.5550 C.3   193  PHE193      0.0534
    198  CG       -24.0030    5.1070  -30.7550 C.ar  193  PHE193     -0.0203
    199  CD1      -23.9900    5.9620  -31.8450 C.ar  193  PHE193     -0.0042
    200  CD2      -23.2040    3.9730  -30.7890 C.ar  193  PHE193     -0.0042
    201  CE1      -23.1920    5.6950  -32.9400 C.ar  193  PHE193     -0.0003
    202  CE2      -22.4050    3.7020  -31.8820 C.ar  193  PHE193     -0.0003
    203  CZ       -22.4000    4.5630  -32.9580 C.ar  193  PHE193     -0.0000
@<TRIPOS>BOND
     1   152   150   ar
     2   152   153   ar
     3   150   148   ar
     4   153   151   ar
     5   107   108    1
     6   145   146    2
     7   145   144    1
     8   148   147    1
     9   148   149   ar
    10   147   144    1
    11   130   131    2
    12   130   129    1
    13   128   129    1
    14   151   149   ar
    15   144   143    1
    16   110   109    2
    17   108   109    1
    18   108   111    1
    19   129   132    1
    20   135   136    1
    21   143   137   am
    22   156   157    2
    23   156   155    1
    24   154   155    1
    25   113   111    1
    26   134   132    1
    27   137   136    1
    28   137   138    2
    29   111   112    1
    30   136   139    1
    31   132   133    1
    32   112   114    1
    33   155   158    1
    34    99    98    2
    35   158   159    1
    36   158   160    1
    37   141   139    1
    38    98    97    1
    39   139   140    1
    40     1     2    1
    41     7     5    1
    42    15    13    1
    43   115   116    1
    44   140   142    1
    45   168   166    1
    46   184   183   ar
    47   184   182   ar
    48    97    96    1
    49    97   100    1
    50    88    87    2
    51    93    91   ar
    52    93    95   ar
    53     5     2    1
    54     5     6    1
    55     2     3    1
    56   183   181   ar
    57    91    90   ar
    58    13    12    1
    59   120   121    1
    60   120   122    1
    61   120   119    1
    62   101   100    1
    63   101   102    1
    64   166   165    1
    65   182   180   ar
    66   118   117    2
    67   116   119    1
    68   116   117    1
    69    87    86    1
    70    95    94   ar
    71   102   103    1
    72     3     4    2
    73   117   123   am
    74   181   180   ar
    75   167   165    1
    76    90    89    1
    77    90    92   ar
    78   180   179    1
    79    12    14    1
    80    12     9    1
    81   203   201   ar
    82   203   202   ar
    83   201   199   ar
    84   165   162    1
    85     8     9    1
    86    89    86    1
    87    86    85    1
    88    94    92   ar
    89     9    10    1
    90   105   104    1
    91   103   104    2
    92   162   161    1
    93   162   163    1
    94   123   124    1
    95   202   200   ar
    96    82    81    2
    97   199   198   ar
    98   179   176    1
    99    74    73    2
   100   104   106    1
   101    85    81   am
   102    77    75    1
   103   125   124    1
   104   125   126    2
   105   124   127    1
   106    81    80    1
   107   164   163    2
   108    10    16   am
   109    10    11    2
   110   200   198   ar
   111   198   197    1
   112   176   175    1
   113   176   177    1
   114   169   170    1
   115    73    72    1
   116    16    17    1
   117   170   173    1
   118   170   171    1
   119   173   174    1
   120    26    23    1
   121    75    72    1
   122    75    76    1
   123    72    71    1
   124    76    78    1
   125   178   177    2
   126    80    79    1
   127    80    83    1
   128   177   185   am
   129    21    20    1
   130   197   194    1
   131   194   193    1
   132   194   195    1
   133   172   171    2
   134    66    65    2
   135    17    20    1
   136    17    18    1
   137    22    23    1
   138   185   186    1
   139    23    24    1
   140    83    84    1
   141    71    65   am
   142    65    64    1
   143    18    19    2
   144   196   195    2
   145   192   190    1
   146   186   187    1
   147   186   189    1
   148    24    27   am
   149    24    25    2
   150    27    28    1
   151   190   189    1
   152   190   191    1
   153   187   188    2
   154    31    28    1
   155    37    38    1
   156    37    36    1
   157    61    60    2
   158    64    67    1
   159    64    63    1
   160    58    57    2
   161    28    29    1
   162    62    60   am
   163    40    38   am
   164    38    39    2
   165    67    68    1
   166    60    59    1
   167    57    56    1
   168    36    33    1
   169    29    30    2
   170    70    68    1
   171    59    56    1
   172    68    69    1
   173    56    55    1
   174    32    33    1
   175    33    34    1
   176    53    54   ar
   177    53    51   ar
   178    44    43    2
   179    54    52   ar
   180    55    43   am
   181    51    48   ar
   182    43    42    1
   183    34    35    2
   184    52    50   ar
   185    48    50   ar
   186    48    46   ar
   187    50    49   ar
   188    42    41    1
   189    42    45    1
   190    46    45    1
   191    46    47   ar
   192    49    47   ar
