@<TRIPOS>MOLECULE
tmp/5lywA00.pdb
 137 134 0 0 0
SMALL
GASTEIGER

@<TRIPOS>ATOM
      1  N         21.0030   18.5410    9.2200 N.3   104  PHE104     -0.1228
      2  CA        21.0330   17.7890   10.4750 C.3   104  PHE104      0.1721
      3  C         19.6610   17.8240   11.0790 C.2   104  PHE104      0.2437
      4  O         18.8080   18.6130   10.6410 O.2   104  PHE104     -0.2733
      5  CB        22.0830   18.3480   11.4590 C.3   104  PHE104      0.0547
      6  CG        22.0350   19.8420   11.6690 C.ar  104  PHE104     -0.0202
      7  CD1       21.0740   20.4120   12.4900 C.ar  104  PHE104     -0.0042
      8  CD2       22.9730   20.6750   11.0600 C.ar  104  PHE104     -0.0042
      9  CE1       21.0630   21.7980   12.7270 C.ar  104  PHE104     -0.0003
     10  CE2       22.9640   22.0570   11.2970 C.ar  104  PHE104     -0.0003
     11  CZ        22.0100   22.6130   12.1180 C.ar  104  PHE104     -0.0000
     12  N         19.3780   16.9070   12.0360 N.am  105  PRO105     -0.2729
     13  CA        18.0230   16.8630   12.6090 C.3   105  PRO105      0.1401
     14  C         17.6250   18.1540   13.3190 C.2   105  PRO105      0.2269
     15  O         18.4680   18.8550   13.8690 O.2   105  PRO105     -0.2865
     16  CB        18.0820   15.7080   13.5940 C.3   105  PRO105      0.0296
     17  CG        19.2860   14.9050   13.1980 C.3   105  PRO105      0.0237
     18  CD        20.2470   15.8510   12.5930 C.3   105  PRO105      0.0939
     19  N         20.8130   18.8040   21.0460 N.3   116  HIS116     -0.1241
     20  CA        20.8170   17.4500   20.5070 C.3   116  HIS116      0.1621
     21  C         19.6370   16.6090   20.9560 C.2   116  HIS116      0.2264
     22  O         19.6930   15.3870   20.8740 O.2   116  HIS116     -0.2867
     23  CB        22.1670   16.7380   20.7410 C.3   116  HIS116      0.0745
     24  CG        23.3120   17.4540   20.0940 C.ar  116  HIS116      0.0817
     25  ND1       24.6190   17.1930   20.4550 N.ar  116  HIS116     -0.2268
     26  CD2       23.3050   18.4250   19.1500 C.ar  116  HIS116      0.1154
     27  CE1       25.3670   18.0250   19.7470 C.ar  116  HIS116      0.1986
     28  NE2       24.6230   18.8080   18.9640 N.ar  116  HIS116     -0.2212
     29  N         16.8820   24.4570   16.5990 N.3   136  ASP136     -0.1239
     30  CA        18.1670   24.4970   15.9340 C.3   136  ASP136      0.1674
     31  C         18.0510   23.5680   14.7270 C.2   136  ASP136      0.2266
     32  O         17.9410   22.3550   14.8880 O.2   136  ASP136     -0.2867
     33  CB        19.2580   24.0670   16.9380 C.3   136  ASP136      0.1410
     34  CG        20.7100   24.1860   16.4610 C.2   136  ASP136      0.3668
     35  OD1       20.9310   24.3620   15.2530 O.co2 136  ASP136     -0.2456
     36  OD2       21.6100   24.1490   17.3040 O.co2 136  ASP136     -0.2456
     37  N         23.8370   26.6580    9.7390 N.3   147  ASP147     -0.1239
     38  CA        23.5870   26.2010   11.1020 C.3   147  ASP147      0.1674
     39  C         23.1050   27.4380   11.8410 C.2   147  ASP147      0.2266
     40  O         23.8620   28.3870   12.0330 O.2   147  ASP147     -0.2867
     41  CB        24.8800   25.6190   11.7180 C.3   147  ASP147      0.1410
     42  CG        24.7280   24.9630   13.0880 C.2   147  ASP147      0.3668
     43  OD1       23.5920   24.9550   13.6250 O.co2 147  ASP147     -0.2456
     44  OD2       25.7700   24.5420   13.6730 O.co2 147  ASP147     -0.2456
     45  N         31.8970   26.6140   16.1050 N.3   216  HIS216     -0.1241
     46  CA        32.7650   25.6670   15.3850 C.3   216  HIS216      0.1621
     47  C         32.9240   26.0200   13.9440 C.2   216  HIS216      0.2264
     48  O         32.0140   26.5930   13.3620 O.2   216  HIS216     -0.2867
     49  CB        32.1540   24.2320   15.4650 C.3   216  HIS216      0.0745
     50  CG        30.6760   24.1880   15.1610 C.ar  216  HIS216      0.0817
     51  ND1       30.2120   23.8840   13.8890 N.ar  216  HIS216     -0.2268
     52  CD2       29.6200   24.4550   15.9640 C.ar  216  HIS216      0.1154
     53  CE1       28.8790   23.9260   13.9710 C.ar  216  HIS216      0.1986
     54  NE2       28.4790   24.2740   15.1990 N.ar  216  HIS216     -0.2212
     55  N         29.5290   19.2980    9.5380 N.3   223  ILE223     -0.1231
     56  CA        29.0490   20.3020   10.4930 C.3   223  ILE223      0.1692
     57  C         30.1660   20.8000   11.4450 C.2   223  ILE223      0.2592
     58  O         30.2060   22.0110   11.7310 O.2   223  ILE223     -0.2718
     59  CB        27.8050   19.7820   11.2430 C.3   223  ILE223      0.0266
     60  CG1       27.1050   20.8800   12.0800 C.3   223  ILE223      0.0019
     61  CG2       28.1220   18.5450   12.0940 C.3   223  ILE223      0.0020
     62  CD1       26.5460   22.0800   11.2530 C.3   223  ILE223      0.0001
     63  N         31.0760   19.8980   11.9080 N.am  224  HIS224     -0.1976
     64  CA        32.2280   20.2950   12.7530 C.3   224  HIS224      0.1656
     65  C         33.4730   20.0430   11.9000 C.2   224  HIS224      0.2291
     66  O         33.8390   18.8790   11.6850 O.2   224  HIS224     -0.2864
     67  CB        32.3070   19.4100   14.0200 C.3   224  HIS224      0.0771
     68  CG        31.4800   19.8780   15.1720 C.ar  224  HIS224      0.0820
     69  ND1       32.0620   20.4670   16.2800 N.ar  224  HIS224     -0.2267
     70  CD2       30.1410   19.8380   15.3510 C.ar  224  HIS224      0.1154
     71  CE1       31.0630   20.7610   17.0980 C.ar  224  HIS224      0.1986
     72  NE2       29.8910   20.4110   16.5830 N.ar  224  HIS224     -0.2212
     73  N         27.8970   30.4170   17.9970 N.3   247  GLU247     -0.1245
     74  CA        26.7710   30.1090   18.8590 C.3   247  GLU247      0.1567
     75  C         27.1260   30.2620   20.2990 C.2   247  GLU247      0.2260
     76  O         28.2480   29.9590   20.7060 O.2   247  GLU247     -0.2867
     77  CB        26.2260   28.7120   18.6230 C.3   247  GLU247      0.0388
     78  CG        27.2040   27.5570   18.7540 C.3   247  GLU247      0.1160
     79  CD        26.5380   26.2520   18.3800 C.2   247  GLU247      0.3649
     80  OE1       25.3440   26.0660   18.7210 O.co2 247  GLU247     -0.2457
     81  OE2       27.1760   25.4540   17.6590 O.co2 247  GLU247     -0.2457
     82  N         20.1940   11.5650   17.8520 N.3   265  HIS265     -0.1226
     83  CA        21.1240   12.0660   16.8380 C.3   265  HIS265      0.1752
     84  C         22.3310   11.1590   16.6210 C.2   265  HIS265      0.2596
     85  O         22.8960   10.6460   17.5740 O.2   265  HIS265     -0.2718
     86  CB        21.6570   13.4400   17.2430 C.3   265  HIS265      0.0759
     87  CG        20.7230   14.6040   17.1590 C.ar  265  HIS265      0.0818
     88  ND1       19.4820   14.5830   17.7660 N.ar  265  HIS265     -0.2268
     89  CD2       20.9510   15.8510   16.6770 C.ar  265  HIS265      0.1154
     90  CE1       18.9560   15.7770   17.5480 C.ar  265  HIS265      0.1986
     91  NE2       19.8110   16.5820   16.9070 N.ar  265  HIS265     -0.2212
     92  N         22.6920   10.9510   15.3680 N.am  266  TYR266     -0.1962
     93  CA        23.8410   10.1170   14.9850 C.3   266  TYR266      0.1771
     94  C         24.5020   10.7050   13.7780 C.2   266  TYR266      0.2619
     95  O         23.8720   11.4510   13.0420 O.2   266  TYR266     -0.2715
     96  CB        23.3910    8.6810   14.6270 C.3   266  TYR266      0.0574
     97  CG        22.6570    7.9730   15.7520 C.ar  266  TYR266     -0.0198
     98  CD1       21.2990    8.2060   15.9840 C.ar  266  TYR266     -0.0009
     99  CD2       23.3280    7.1280   16.6180 C.ar  266  TYR266     -0.0009
    100  CE1       20.6410    7.6180   17.0690 C.ar  266  TYR266      0.0417
    101  CE2       22.6750    6.5190   17.6870 C.ar  266  TYR266      0.0417
    102  CZ        21.3200    6.7450   17.8850 C.ar  266  TYR266      0.1957
    103  OH        20.6920    6.1570   18.9420 O.3   266  TYR266     -0.2866
    104  N         25.7990   10.4140   13.5870 N.am  267  MET267     -0.1977
    105  CA        26.4880   10.9310   12.4240 C.3   267  MET267      0.1605
    106  C         27.6610   10.0410   12.1130 C.2   267  MET267      0.2287
    107  O         28.4210    9.6800   13.0060 O.2   267  MET267     -0.2864
    108  CB        26.9950   12.3720   12.6770 C.3   267  MET267      0.0413
    109  CG        27.4980   13.0770   11.4130 C.3   267  MET267      0.0598
    110  SD        27.7620   14.8600   11.7060 S.3   267  MET267     -0.1393
    111  CE        29.0760   14.7860   12.9180 C.3   267  MET267      0.0692
    112  N         24.6360   14.6710    9.8310 N.3   297  ALA297     -0.1245
    113  CA        23.9300   14.0470   10.9510 C.3   297  ALA297      0.1562
    114  C         22.5040   13.6410   10.5600 C.2   297  ALA297      0.2260
    115  O         21.8700   14.2760    9.7270 O.2   297  ALA297     -0.2867
    116  CB        23.8980   15.0040   12.1310 C.3   297  ALA297      0.0290
    117  N         25.1350   11.0780   19.3310 N.3   327  TYR327     -0.1241
    118  CA        25.2020   12.4350   19.9060 C.3   327  TYR327      0.1605
    119  C         23.9780   12.6130   20.7960 C.2   327  TYR327      0.2264
    120  O         22.9750   13.1690   20.3720 O.2   327  TYR327     -0.2867
    121  CB        25.2710   13.5060   18.8030 C.3   327  TYR327      0.0534
    122  CG        26.5910   13.4280   18.0850 C.ar  327  TYR327     -0.0201
    123  CD1       27.7150   14.0810   18.5790 C.ar  327  TYR327     -0.0009
    124  CD2       26.7430   12.6290   16.9550 C.ar  327  TYR327     -0.0009
    125  CE1       28.9610   13.9370   17.9670 C.ar  327  TYR327      0.0417
    126  CE2       27.9690   12.5090   16.3160 C.ar  327  TYR327      0.0417
    127  CZ        29.0740   13.1630   16.8210 C.ar  327  TYR327      0.1957
    128  OH        30.2620   13.0230   16.1550 O.3   327  TYR327     -0.2866
    129  N         22.2870   31.2310   17.4920 N.3   342  GLU342     -0.1245
    130  CA        23.3880   30.8400   16.6110 C.3   342  GLU342      0.1567
    131  C         23.1950   31.3760   15.2050 C.2   342  GLU342      0.2260
    132  O         22.0800   31.3340   14.6850 O.2   342  GLU342     -0.2867
    133  CB        23.4150   29.3000   16.5500 C.3   342  GLU342      0.0388
    134  CG        24.3620   28.6790   15.5390 C.3   342  GLU342      0.1160
    135  CD        24.3720   27.1700   15.6610 C.2   342  GLU342      0.3649
    136  OE1       23.3070   26.5870   15.9550 O.co2 342  GLU342     -0.2457
    137  OE2       25.4730   26.5890   15.5980 O.co2 342  GLU342     -0.2457
@<TRIPOS>BOND
     1     1     2    1
     2    55    56    1
     3   115   114    2
     4    37    38    1
     5   112   113    1
     6     2     3    1
     7     2     5    1
     8    56    59    1
     9    56    57    1
    10   114   113    1
    11     4     3    2
    12   113   116    1
    13     8    10   ar
    14     8     6   ar
    15     3    12   am
    16    38    41    1
    17    38    39    1
    18    59    60    1
    19    59    61    1
    20    62    60    1
    21    10    11   ar
    22   109   110    1
    23   109   108    1
    24    57    58    2
    25    57    63   am
    26     5     6    1
    27     6     7   ar
    28    66    65    2
    29   110   111    1
    30    41    42    1
    31    39    40    2
    32    65    64    1
    33    63    64    1
    34    12    18    1
    35    12    13    1
    36   106   105    1
    37   106   107    2
    38    11     9   ar
    39   105   108    1
    40   105   104    1
    41     7     9   ar
    42    18    17    1
    43    13    14    1
    44    13    16    1
    45    64    67    1
    46    95    94    2
    47    42    43   ar
    48    42    44   ar
    49    17    16    1
    50    14    15    2
    51    48    47    2
    52   104    94   am
    53    94    93    1
    54    51    53   ar
    55    51    50   ar
    56    47    46    1
    57    53    54   ar
    58    67    68    1
    59    96    93    1
    60    96    97    1
    61   132   131    2
    62    31    32    2
    63    31    30    1
    64    93    92    1
    65    50    49    1
    66    50    52   ar
    67    68    70   ar
    68    68    69   ar
    69    54    52   ar
    70   131   130    1
    71    35    34   ar
    72    70    72   ar
    73    92    84   am
    74    46    49    1
    75    46    45    1
    76   134   135    1
    77   134   133    1
    78   137   135   ar
    79   135   136   ar
    80    97    98   ar
    81    97    99   ar
    82    30    29    1
    83    30    33    1
    84    98   100   ar
    85   128   127    1
    86    69    71   ar
    87   126   127   ar
    88   126   124   ar
    89    34    33    1
    90    34    36   ar
    91   133   130    1
    92    72    71   ar
    93   130   129    1
    94    99   101   ar
    95    84    83    1
    96    84    85    2
    97    89    91   ar
    98    89    87   ar
    99   127   125   ar
   100    83    86    1
   101    83    82    1
   102    91    90   ar
   103   124   122   ar
   104   100   102   ar
   105    87    86    1
   106    87    88   ar
   107    90    88   ar
   108    81    79   ar
   109   101   102   ar
   110   102   103    1
   111   125   123   ar
   112    73    74    1
   113   122   123   ar
   114   122   121    1
   115    79    80   ar
   116    79    78    1
   117    77    78    1
   118    77    74    1
   119   121   118    1
   120    74    75    1
   121    28    26   ar
   122    28    27   ar
   123    26    24   ar
   124   117   118    1
   125    27    25   ar
   126   118   119    1
   127    24    25   ar
   128    24    23    1
   129    75    76    2
   130   120   119    2
   131    20    23    1
   132    20    21    1
   133    20    19    1
   134    22    21    2
