@<TRIPOS>MOLECULE
tmp/5lyxA00.pdb
 145 141 0 0 0
SMALL
GASTEIGER

@<TRIPOS>ATOM
      1  N        -20.9960  -18.4590    9.3000 N.3   108  PHE108     -0.1228
      2  CA       -20.9780  -17.7410   10.5650 C.3   108  PHE108      0.1721
      3  C        -19.5860  -17.7470   11.1510 C.2   108  PHE108      0.2437
      4  O        -18.7510  -18.5180   10.6740 O.2   108  PHE108     -0.2733
      5  CB       -22.0160  -18.3030   11.5640 C.3   108  PHE108      0.0547
      6  CG       -21.9600  -19.7840   11.8240 C.ar  108  PHE108     -0.0202
      7  CD1      -21.0400  -20.3130   12.7300 C.ar  108  PHE108     -0.0042
      8  CD2      -22.8940  -20.6420   11.2440 C.ar  108  PHE108     -0.0042
      9  CE1      -21.0320  -21.6820   13.0200 C.ar  108  PHE108     -0.0003
     10  CE2      -22.8780  -22.0110   11.5260 C.ar  108  PHE108     -0.0003
     11  CZ       -21.9460  -22.5240   12.4080 C.ar  108  PHE108     -0.0000
     12  N        -19.2600  -16.8690   12.1270 N.am  109  PRO109     -0.2729
     13  CA       -17.8760  -16.8530   12.6390 C.3   109  PRO109      0.1401
     14  C        -17.4900  -18.1360   13.3660 C.2   109  PRO109      0.2269
     15  O        -18.3650  -18.8490   13.8680 O.2   109  PRO109     -0.2865
     16  CB       -17.8660  -15.6610   13.5800 C.3   109  PRO109      0.0296
     17  CG       -19.0700  -14.8180   13.1510 C.3   109  PRO109      0.0237
     18  CD       -20.0740  -15.8090   12.7660 C.3   109  PRO109      0.0939
     19  N        -20.7070  -18.6740   21.1840 N.3   120  HIS120     -0.1241
     20  CA       -20.6640  -17.3010   20.6720 C.3   120  HIS120      0.1621
     21  C        -19.4460  -16.4790   21.1100 C.2   120  HIS120      0.2264
     22  O        -19.4880  -15.2400   21.0570 O.2   120  HIS120     -0.2867
     23  CB       -21.9880  -16.5680   21.0050 C.3   120  HIS120      0.0745
     24  CG       -23.1920  -17.2120   20.3900 C.ar  120  HIS120      0.0817
     25  ND1      -24.4660  -16.8740   20.7880 N.ar  120  HIS120     -0.2268
     26  CD2      -23.2760  -18.1260   19.3940 C.ar  120  HIS120      0.1154
     27  CE1      -25.2830  -17.5810   20.0330 C.ar  120  HIS120      0.1986
     28  NE2      -24.6130  -18.3560   19.1830 N.ar  120  HIS120     -0.2212
     29  N        -16.9240  -24.4490   16.7760 N.3   140  ASP140     -0.1239
     30  CA       -18.2240  -24.4570   16.0920 C.3   140  ASP140      0.1674
     31  C        -18.1000  -23.5320   14.8790 C.2   140  ASP140      0.2266
     32  O        -17.9420  -22.3250   15.0320 O.2   140  ASP140     -0.2867
     33  CB       -19.3470  -24.0210   17.0690 C.3   140  ASP140      0.1410
     34  CG       -20.7740  -24.1200   16.5420 C.2   140  ASP140      0.3668
     35  OD1      -20.9470  -24.3410   15.3410 O.co2 140  ASP140     -0.2456
     36  OD2      -21.7130  -24.0200   17.3500 O.co2 140  ASP140     -0.2456
     37  N        -23.9630  -26.5800    9.8740 N.3   151  ASP151     -0.1239
     38  CA       -23.6980  -26.1480   11.2470 C.3   151  ASP151      0.1674
     39  C        -23.2050  -27.4160   11.9780 C.2   151  ASP151      0.2266
     40  O        -23.9740  -28.3570   12.1930 O.2   151  ASP151     -0.2867
     41  CB       -24.9940  -25.5490   11.8720 C.3   151  ASP151      0.1410
     42  CG       -24.8610  -24.8620   13.2380 C.2   151  ASP151      0.3668
     43  OD1      -23.7140  -24.7520   13.7500 O.co2 151  ASP151     -0.2456
     44  OD2      -25.9190  -24.5480   13.8520 O.co2 151  ASP151     -0.2456
     45  N        -31.9630  -26.6510   16.4600 N.3   220  HIS220     -0.1241
     46  CA       -32.8790  -25.7780   15.7180 C.3   220  HIS220      0.1621
     47  C        -32.9960  -26.1280   14.2500 C.2   220  HIS220      0.2264
     48  O        -32.0590  -26.6660   13.6550 O.2   220  HIS220     -0.2867
     49  CB       -32.3700  -24.3100   15.7940 C.3   220  HIS220      0.0745
     50  CG       -30.9080  -24.1940   15.4520 C.ar  220  HIS220      0.0817
     51  ND1      -30.4880  -23.8670   14.1770 N.ar  220  HIS220     -0.2268
     52  CD2      -29.8180  -24.4730   16.2100 C.ar  220  HIS220      0.1154
     53  CE1      -29.1630  -23.9170   14.2090 C.ar  220  HIS220      0.1986
     54  NE2      -28.7130  -24.2780   15.4090 N.ar  220  HIS220     -0.2212
     55  N        -29.6560  -19.2470    9.9160 N.3   227  ILE227     -0.1231
     56  CA       -29.1320  -20.2350   10.8610 C.3   227  ILE227      0.1692
     57  C        -30.2570  -20.8180   11.7660 C.2   227  ILE227      0.2592
     58  O        -30.2450  -22.0250   12.0240 O.2   227  ILE227     -0.2718
     59  CB       -27.8890  -19.7120   11.6560 C.3   227  ILE227      0.0266
     60  CG1      -27.2150  -20.8230   12.5020 C.3   227  ILE227      0.0019
     61  CG2      -28.2110  -18.4720   12.5070 C.3   227  ILE227      0.0020
     62  CD1      -26.5770  -21.9720   11.7140 C.3   227  ILE227      0.0001
     63  N        -31.2180  -19.9830   12.2140 N.am  228  HIS228     -0.1976
     64  CA       -32.3710  -20.4620   12.9940 C.3   228  HIS228      0.1656
     65  C        -33.6310  -20.1260   12.1770 C.2   228  HIS228      0.2291
     66  O        -33.8570  -18.9520   11.8700 O.2   228  HIS228     -0.2864
     67  CB       -32.4200  -19.8100   14.3920 C.3   228  HIS228      0.0771
     68  CG       -33.2470  -20.5590   15.3980 C.ar  228  HIS228      0.0820
     69  ND1      -34.5510  -20.9840   15.1140 N.ar  228  HIS228     -0.2267
     70  CD2      -32.9520  -20.8970   16.6750 C.ar  228  HIS228      0.1154
     71  CE1      -34.9820  -21.5860   16.2100 C.ar  228  HIS228      0.1986
     72  NE2      -34.0620  -21.5540   17.1800 N.ar  228  HIS228     -0.2212
     73  N        -27.8950  -30.5890   18.1550 N.3   253  GLU253     -0.1245
     74  CA       -26.7940  -30.2750   19.0450 C.3   253  GLU253      0.1567
     75  C        -27.1430  -30.3660   20.4940 C.2   253  GLU253      0.2260
     76  O        -28.2920  -30.1390   20.8850 O.2   253  GLU253     -0.2867
     77  CB       -26.2250  -28.8970   18.7410 C.3   253  GLU253      0.0388
     78  CG       -27.1650  -27.7340   18.9850 C.3   253  GLU253      0.1160
     79  CD       -26.5620  -26.4130   18.5700 C.2   253  GLU253      0.3649
     80  OE1      -25.3600  -26.1860   18.8510 O.co2 253  GLU253     -0.2457
     81  OE2      -27.2780  -25.6320   17.9050 O.co2 253  GLU253     -0.2457
     82  N        -20.1060  -11.5050   17.9710 N.3   271  HIS271     -0.1226
     83  CA       -21.0330  -12.0070   16.9520 C.3   271  HIS271      0.1752
     84  C        -22.2180  -11.0900   16.7810 C.2   271  HIS271      0.2596
     85  O        -22.8190  -10.6350   17.7710 O.2   271  HIS271     -0.2718
     86  CB       -21.5690  -13.4140   17.3260 C.3   271  HIS271      0.0759
     87  CG       -20.5890  -14.5490   17.2460 C.ar  271  HIS271      0.0818
     88  ND1      -19.3690  -14.5090   17.9050 N.ar  271  HIS271     -0.2268
     89  CD2      -20.7470  -15.7790   16.7000 C.ar  271  HIS271      0.1154
     90  CE1      -18.7920  -15.6730   17.6580 C.ar  271  HIS271      0.1986
     91  NE2      -19.5820  -16.4680   16.9360 N.ar  271  HIS271     -0.2212
     92  N        -22.5710  -10.8500   15.5130 N.am  272  TYR272     -0.1962
     93  CA       -23.6960   -9.9900   15.0960 C.3   272  TYR272      0.1771
     94  C        -24.3790  -10.6210   13.8950 C.2   272  TYR272      0.2619
     95  O        -23.7400  -11.3600   13.1520 O.2   272  TYR272     -0.2715
     96  CB       -23.2050   -8.5540   14.7430 C.3   272  TYR272      0.0574
     97  CG       -22.4540   -7.8750   15.8700 C.ar  272  TYR272     -0.0198
     98  CD1      -21.0960   -8.1200   16.0790 C.ar  272  TYR272     -0.0009
     99  CD2      -23.1140   -7.0490   16.7740 C.ar  272  TYR272     -0.0009
    100  CE1      -20.4180   -7.5620   17.1620 C.ar  272  TYR272      0.0417
    101  CE2      -22.4290   -6.4360   17.8280 C.ar  272  TYR272      0.0417
    102  CZ       -21.0830   -6.7010   18.0180 C.ar  272  TYR272      0.1957
    103  OH       -20.4180   -6.1370   19.0710 O.3   272  TYR272     -0.2866
    104  N        -25.6700  -10.3310   13.7050 N.am  273  MET273     -0.1977
    105  CA       -26.4210  -10.8580   12.5730 C.3   273  MET273      0.1605
    106  C        -27.6420   -9.9860   12.3030 C.2   273  MET273      0.2287
    107  O        -28.3830   -9.6440   13.2250 O.2   273  MET273     -0.2864
    108  CB       -26.8420  -12.3290   12.8340 C.3   273  MET273      0.0413
    109  CG       -27.4470  -13.0320   11.6180 C.3   273  MET273      0.0598
    110  SD       -27.7180  -14.8170   11.9240 S.3   273  MET273     -0.1393
    111  CE       -29.1510  -14.7590   12.9900 C.3   273  MET273      0.0692
    112  N        -24.5780  -14.5970    9.9860 N.3   303  ALA303     -0.1245
    113  CA       -23.8810  -14.0010   11.1070 C.3   303  ALA303      0.1562
    114  C        -22.4430  -13.6130   10.7130 C.2   303  ALA303      0.2260
    115  O        -21.8020  -14.2700    9.8780 O.2   303  ALA303     -0.2867
    116  CB       -23.8540  -14.9550   12.2810 C.3   303  ALA303      0.0290
    117  N        -24.9920  -11.0130   19.4840 N.3   333  TYR333     -0.1241
    118  CA       -25.0820  -12.3780   20.0400 C.3   333  TYR333      0.1605
    119  C        -23.8730  -12.5510   20.9490 C.2   333  TYR333      0.2264
    120  O        -22.8510  -13.0550   20.5020 O.2   333  TYR333     -0.2867
    121  CB       -25.1400  -13.4260   18.9100 C.3   333  TYR333      0.0534
    122  CG       -26.4790  -13.4070   18.2120 C.ar  333  TYR333     -0.0201
    123  CD1      -27.5650  -14.1080   18.7290 C.ar  333  TYR333     -0.0009
    124  CD2      -26.6940  -12.6020   17.0910 C.ar  333  TYR333     -0.0009
    125  CE1      -28.8240  -14.0320   18.1320 C.ar  333  TYR333      0.0417
    126  CE2      -27.9470  -12.5250   16.4830 C.ar  333  TYR333      0.0417
    127  CZ       -29.0020  -13.2570   16.9960 C.ar  333  TYR333      0.1957
    128  OH       -30.2250  -13.1970   16.3810 O.3   333  TYR333     -0.2866
    129  N        -22.2230  -16.7340   25.6620 N.3   336  LEU336     -0.1245
    130  CA       -23.1790  -17.3590   26.5810 C.3   336  LEU336      0.1561
    131  C        -22.4000  -18.2390   27.5430 C.2   336  LEU336      0.2260
    132  O        -21.7710  -19.2160   27.1270 O.2   336  LEU336     -0.2867
    133  CB       -24.2320  -18.1530   25.7740 C.3   336  LEU336      0.0270
    134  CG       -25.0490  -17.3190   24.7480 C.3   336  LEU336      0.0019
    135  CD1      -25.8220  -18.2100   23.8140 C.3   336  LEU336      0.0001
    136  CD2      -26.0200  -16.3430   25.4590 C.3   336  LEU336      0.0001
    137  N        -22.3060  -31.3320   17.6300 N.3   348  GLU348     -0.1245
    138  CA       -23.3710  -30.9130   16.7210 C.3   348  GLU348      0.1567
    139  C        -23.1700  -31.4610   15.3250 C.2   348  GLU348      0.2260
    140  O        -22.0470  -31.4540   14.8090 O.2   348  GLU348     -0.2867
    141  CB       -23.3810  -29.3650   16.6520 C.3   348  GLU348      0.0388
    142  CG       -24.3540  -28.7510   15.6580 C.3   348  GLU348      0.1160
    143  CD       -24.4150  -27.2380   15.7620 C.2   348  GLU348      0.3649
    144  OE1      -23.3660  -26.6070   15.9950 O.co2 348  GLU348     -0.2457
    145  OE2      -25.5230  -26.6840   15.6540 O.co2 348  GLU348     -0.2457
@<TRIPOS>BOND
     1     1     2    1
     2    37    38    1
     3   115   114    2
     4    55    56    1
     5   112   113    1
     6     2     3    1
     7     2     5    1
     8     4     3    2
     9   114   113    1
    10    56    59    1
    11    56    57    1
    12   113   116    1
    13     3    12   am
    14     8    10   ar
    15     8     6   ar
    16    38    41    1
    17    38    39    1
    18    10    11   ar
    19     5     6    1
    20   109   110    1
    21   109   108    1
    22    59    60    1
    23    59    61    1
    24    62    60    1
    25    57    58    2
    26    57    63   am
    27     6     7   ar
    28    66    65    2
    29    41    42    1
    30   110   111    1
    31    39    40    2
    32    12    13    1
    33    12    18    1
    34    65    64    1
    35    63    64    1
    36   106   105    1
    37   106   107    2
    38    11     9   ar
    39   105   108    1
    40   105   104    1
    41    13    14    1
    42    13    16    1
    43     7     9   ar
    44    18    17    1
    45    64    67    1
    46    17    16    1
    47    95    94    2
    48    42    43   ar
    49    42    44   ar
    50    14    15    2
    51    48    47    2
    52   104    94   am
    53    94    93    1
    54    51    53   ar
    55    51    50   ar
    56    53    54   ar
    57    47    46    1
    58    67    68    1
    59    96    93    1
    60    96    97    1
    61   140   139    2
    62    31    32    2
    63    31    30    1
    64    93    92    1
    65    69    68   ar
    66    69    71   ar
    67   139   138    1
    68    35    34   ar
    69    68    70   ar
    70    54    52   ar
    71    50    49    1
    72    50    52   ar
    73    92    84   am
    74   145   143   ar
    75   142   143    1
    76   142   141    1
    77    46    49    1
    78    46    45    1
    79   143   144   ar
    80    97    98   ar
    81    97    99   ar
    82    98   100   ar
    83    30    29    1
    84    30    33    1
    85    71    72   ar
    86   128   127    1
    87   126   127   ar
    88   126   124   ar
    89    34    33    1
    90    34    36   ar
    91   141   138    1
    92    70    72   ar
    93    89    91   ar
    94    89    87   ar
    95   138   137    1
    96    99   101   ar
    97    84    83    1
    98    84    85    2
    99    91    90   ar
   100    83    86    1
   101    83    82    1
   102   127   125   ar
   103   124   122   ar
   104   100   102   ar
   105    87    86    1
   106    87    88   ar
   107    90    88   ar
   108   101   102   ar
   109    81    79   ar
   110   102   103    1
   111   125   123   ar
   112    73    74    1
   113   122   123   ar
   114   122   121    1
   115    79    80   ar
   116    79    78    1
   117    77    78    1
   118    77    74    1
   119   121   118    1
   120    74    75    1
   121    28    26   ar
   122    28    27   ar
   123    26    24   ar
   124   117   118    1
   125    27    25   ar
   126   118   119    1
   127    24    25   ar
   128    24    23    1
   129    75    76    2
   130   120   119    2
   131    20    23    1
   132    20    21    1
   133    20    19    1
   134    22    21    2
   135   135   134    1
   136   134   136    1
   137   134   133    1
   138   129   130    1
   139   133   130    1
   140   130   131    1
   141   132   131    2
