@<TRIPOS>MOLECULE
tmp/5lyyA00.pdb
 159 158 0 0 0
SMALL
GASTEIGER

@<TRIPOS>ATOM
      1  N         21.9290    8.7620  -12.6090 N.3    53  LEU53      -0.1245
      2  CA        21.2250    8.0210  -11.5340 C.3    53  LEU53       0.1561
      3  C         20.4730    6.8070  -12.0910 C.2    53  LEU53       0.2260
      4  O         20.4190    5.7560  -11.4520 O.2    53  LEU53      -0.2867
      5  CB        20.2960    8.9360  -10.7410 C.3    53  LEU53       0.0270
      6  CG        21.0580    9.9030   -9.8310 C.3    53  LEU53       0.0019
      7  CD1       20.2390   11.1310   -9.4360 C.3    53  LEU53       0.0001
      8  CD2       21.5480    9.1790   -8.5890 C.3    53  LEU53       0.0001
      9  N         22.8840    4.0030  -12.5200 N.3    56  PHE56      -0.1241
     10  CA        23.1930    3.5360  -11.1580 C.3    56  PHE56       0.1605
     11  C         22.0630    2.6500  -10.6000 C.2    56  PHE56       0.2264
     12  O         22.3290    1.6900   -9.8850 O.2    56  PHE56      -0.2867
     13  CB        23.4420    4.7310  -10.2350 C.3    56  PHE56       0.0534
     14  CG        23.6740    4.3770   -8.7920 C.ar   56  PHE56      -0.0203
     15  CD1       24.7640    3.5970   -8.4150 C.ar   56  PHE56      -0.0042
     16  CD2       22.8070    4.8230   -7.8070 C.ar   56  PHE56      -0.0042
     17  CE1       24.9820    3.2690   -7.0740 C.ar   56  PHE56      -0.0003
     18  CE2       23.0090    4.5050   -6.4710 C.ar   56  PHE56      -0.0003
     19  CZ        24.1010    3.7240   -6.0970 C.ar   56  PHE56      -0.0000
     20  N         29.3420    9.2800   -2.0920 N.3    98  GLY98      -0.1210
     21  CA        29.2330    7.8320   -2.3100 C.3    98  GLY98       0.1956
     22  C         29.2200    7.3990   -3.7820 C.2    98  GLY98       0.2612
     23  O         29.2130    8.2320   -4.7110 O.2    98  GLY98      -0.2717
     24  N         29.2200    6.0800   -3.9580 N.am   99  LEU99      -0.1965
     25  CA        29.0700    5.4290   -5.2470 C.3    99  LEU99       0.1728
     26  C         27.7060    5.7530   -5.8520 C.2    99  LEU99       0.2617
     27  O         26.6790    5.5770   -5.1920 O.2    99  LEU99      -0.2715
     28  CB        29.2270    3.9060   -5.1030 C.3    99  LEU99       0.0311
     29  CG        29.1120    3.0570   -6.3880 C.3    99  LEU99       0.0022
     30  CD1       30.1850    3.4570   -7.3990 C.3    99  LEU99       0.0001
     31  CD2       29.2170    1.5710   -6.0730 C.3    99  LEU99       0.0001
     32  N         27.7070    6.2230   -7.1030 N.am  100  GLY100     -0.1940
     33  CA        26.4900    6.6410   -7.7940 C.3   100  GLY100      0.2014
     34  C         25.9400    8.0130   -7.4130 C.2   100  GLY100      0.2638
     35  O         24.8970    8.4230   -7.9480 O.2   100  GLY100     -0.2714
     36  N         26.6250    8.7180   -6.5000 N.am  101  ALA101     -0.1977
     37  CA        26.2400   10.0660   -6.0800 C.3   101  ALA101      0.1597
     38  C         27.0150   11.0980   -6.8810 C.2   101  ALA101      0.2287
     39  O         27.6070   10.7780   -7.8830 O.2   101  ALA101     -0.2864
     40  CB        26.4690   10.2310   -4.5950 C.3   101  ALA101      0.0319
     41  N         24.6130   16.2370   -3.6560 N.3   105  LEU105     -0.1231
     42  CA        23.6420   15.3950   -2.9480 C.3   105  LEU105      0.1693
     43  C         23.8540   15.2090   -1.4370 C.2   105  LEU105      0.2592
     44  O         23.1970   14.3670   -0.8140 O.2   105  LEU105     -0.2718
     45  CB        23.5900   14.0310   -3.6050 C.3   105  LEU105      0.0284
     46  CG        23.2240   14.0360   -5.0790 C.3   105  LEU105      0.0019
     47  CD1       23.2280   12.5810   -5.5440 C.3   105  LEU105      0.0001
     48  CD2       21.8630   14.6530   -5.2900 C.3   105  LEU105      0.0001
     49  N         24.7580   15.9860   -0.8540 N.am  106  TYR106     -0.1976
     50  CA        24.9330   16.0100    0.5990 C.3   106  TYR106      0.1639
     51  C         24.8940   17.4550    1.0530 C.2   106  TYR106      0.2290
     52  O         25.7240   17.8980    1.8670 O.2   106  TYR106     -0.2864
     53  CB        26.2530   15.3570    0.9720 C.3   106  TYR106      0.0560
     54  CG        26.3550   13.9150    0.5370 C.ar  106  TYR106     -0.0198
     55  CD1       26.0390   12.8840    1.4140 C.ar  106  TYR106     -0.0009
     56  CD2       26.7740   13.5840   -0.7690 C.ar  106  TYR106     -0.0009
     57  CE1       26.1300   11.5580    1.0250 C.ar  106  TYR106      0.0417
     58  CE2       26.8650   12.2680   -1.1610 C.ar  106  TYR106      0.0417
     59  CZ        26.5460   11.2570   -0.2690 C.ar  106  TYR106      0.1957
     60  OH        26.6390    9.9410   -0.6690 O.3   106  TYR106     -0.2866
     61  N         30.6910    9.9700    2.8830 N.3   218  HIS218     -0.1226
     62  CA        29.6770    8.9390    3.0250 C.3   218  HIS218      0.1752
     63  C         29.9910    7.7380    2.1590 C.2   218  HIS218      0.2597
     64  O         30.2190    7.8770    0.9340 O.2   218  HIS218     -0.2718
     65  CB        28.3170    9.5050    2.6010 C.3   218  HIS218      0.0759
     66  CG        27.2000    8.5030    2.6210 C.ar  218  HIS218      0.0818
     67  ND1       26.3930    8.2670    1.5270 N.ar  218  HIS218     -0.2268
     68  CD2       26.7590    7.6820    3.5990 C.ar  218  HIS218      0.1154
     69  CE1       25.5030    7.3420    1.8340 C.ar  218  HIS218      0.1986
     70  NE2       25.7060    6.9720    3.0860 N.ar  218  HIS218     -0.2212
     71  N         30.0000    6.5700    2.7990 N.am  219  SER219     -0.1938
     72  CA        30.0330    5.2910    2.1270 C.3   219  SER219      0.2055
     73  C         31.3690    5.1060    1.3980 C.2   219  SER219      0.2643
     74  O         32.3970    4.9190    2.0880 O.2   219  SER219     -0.2714
     75  CB        28.7960    5.1320    1.2460 C.3   219  SER219      0.2130
     76  OG        28.6070    3.7790    0.9110 O.3   219  SER219     -0.2179
     77  N         31.3880    5.1510    0.0600 N.am  220  PHE220     -0.1973
     78  CA        32.6250    5.1900   -0.6850 C.3   220  PHE220      0.1639
     79  C         33.4420    6.3900   -0.1760 C.2   220  PHE220      0.2290
     80  O         34.6550    6.3200   -0.0260 O.2   220  PHE220     -0.2864
     81  CB        32.3600    5.3530   -2.1910 C.3   220  PHE220      0.0560
     82  CG        33.3890    4.7200   -3.0810 C.ar  220  PHE220     -0.0200
     83  CD1       34.7020    4.4330   -2.6440 C.ar  220  PHE220     -0.0042
     84  CD2       33.0460    4.3950   -4.4040 C.ar  220  PHE220     -0.0042
     85  CE1       35.6230    3.8460   -3.5020 C.ar  220  PHE220     -0.0003
     86  CE2       33.9770    3.8070   -5.2570 C.ar  220  PHE220     -0.0003
     87  CZ        35.2680    3.5320   -4.8010 C.ar  220  PHE220     -0.0000
     88  N         31.9460    2.4160    3.6330 N.3   244  TRP244     -0.1241
     89  CA        32.0840    1.1720    2.8760 C.3   244  TRP244      0.1605
     90  C         33.5830    0.8580    2.7940 C.2   244  TRP244      0.2264
     91  O         34.2830    1.4580    1.9850 O.2   244  TRP244     -0.2867
     92  CB        31.4830    1.3640    1.4780 C.3   244  TRP244      0.0550
     93  CG        31.4920    0.1480    0.6060 C.ar  244  TRP244      0.0003
     94  CD1       31.2820   -1.1380    1.0000 C.ar  244  TRP244      0.0946
     95  CD2       31.7220    0.1020   -0.8070 C.ar  244  TRP244      0.0152
     96  NE1       31.3660   -1.9790   -0.0700 N.ar  244  TRP244     -0.2442
     97  CE2       31.6360   -1.2440   -1.1960 C.ar  244  TRP244      0.0810
     98  CE3       31.9910    1.0700   -1.7770 C.ar  244  TRP244      0.0012
     99  CZ2       31.8080   -1.6610   -2.5170 C.ar  244  TRP244      0.0191
    100  CZ3       32.1640    0.6580   -3.0960 C.ar  244  TRP244      0.0001
    101  CH2       32.0720   -0.7020   -3.4520 C.ar  244  TRP244      0.0015
    102  N         22.7270   -0.6470    7.6420 N.3   268  PHE268     -0.1241
    103  CA        23.7450   -0.8950    6.5950 C.3   268  PHE268      0.1605
    104  C         24.8280   -1.8920    7.0030 C.2   268  PHE268      0.2264
    105  O         25.1950   -2.7560    6.2060 O.2   268  PHE268     -0.2867
    106  CB        24.4260    0.4010    6.1550 C.3   268  PHE268      0.0534
    107  CG        25.4920    0.2020    5.1000 C.ar  268  PHE268     -0.0203
    108  CD1       25.1450   -0.1890    3.8010 C.ar  268  PHE268     -0.0042
    109  CD2       26.8520    0.4070    5.4010 C.ar  268  PHE268     -0.0042
    110  CE1       26.1270   -0.3720    2.8300 C.ar  268  PHE268     -0.0003
    111  CE2       27.8340    0.2220    4.4270 C.ar  268  PHE268     -0.0003
    112  CZ        27.4660   -0.1680    3.1390 C.ar  268  PHE268     -0.0000
    113  N         27.6360   -4.5680    8.5730 N.3   270  TYR270     -0.1241
    114  CA        27.7660   -6.0200    8.6200 C.3   270  TYR270      0.1605
    115  C         29.1590   -6.3590    9.1630 C.2   270  TYR270      0.2264
    116  O         30.0510   -5.5160    9.0790 O.2   270  TYR270     -0.2867
    117  CB        27.5370   -6.6140    7.2220 C.3   270  TYR270      0.0534
    118  CG        28.1940   -5.8640    6.0680 C.ar  270  TYR270     -0.0201
    119  CD1       29.3910   -6.3110    5.5070 C.ar  270  TYR270     -0.0009
    120  CD2       27.6160   -4.7080    5.5390 C.ar  270  TYR270     -0.0009
    121  CE1       29.9930   -5.6310    4.4530 C.ar  270  TYR270      0.0417
    122  CE2       28.2020   -4.0180    4.4900 C.ar  270  TYR270      0.0417
    123  CZ        29.3970   -4.4830    3.9450 C.ar  270  TYR270      0.1957
    124  OH        29.9940   -3.8130    2.9050 O.3   270  TYR270     -0.2866
    125  N         21.4000    3.4250    5.4540 N.3   297  HIS297     -0.1226
    126  CA        22.5300    3.9890    4.6830 C.3   297  HIS297      0.1752
    127  C         22.2110    5.3480    4.0230 C.2   297  HIS297      0.2595
    128  O         23.0580    6.2600    4.0130 O.2   297  HIS297     -0.2718
    129  CB        22.9650    2.9800    3.5960 C.3   297  HIS297      0.0759
    130  CG        24.3730    3.1540    3.0930 C.ar  297  HIS297      0.0818
    131  ND1       25.4640    3.2800    3.9290 N.ar  297  HIS297     -0.2268
    132  CD2       24.8590    3.2190    1.8270 C.ar  297  HIS297      0.1154
    133  CE1       26.5600    3.4170    3.2010 C.ar  297  HIS297      0.1986
    134  NE2       26.2190    3.3830    1.9200 N.ar  297  HIS297     -0.2212
    135  N         21.0040    5.4790    3.4780 N.am  298  GLN298     -0.1979
    136  CA        20.5960    6.7160    2.8080 C.3   298  GLN298      0.1601
    137  C         20.2700    7.9160    3.7170 C.2   298  GLN298      0.2287
    138  O         20.1180    9.0300    3.1990 O.2   298  GLN298     -0.2864
    139  CB        19.4290    6.4280    1.8500 C.3   298  GLN298      0.0394
    140  CG        19.8360    5.6590    0.6000 C.3   298  GLN298      0.0908
    141  CD        20.9370    6.3570   -0.1570 C.2   298  GLN298      0.2608
    142  OE1       20.8510    7.5470   -0.4200 O.2   298  GLN298     -0.2717
    143  NE2       21.9730    5.6260   -0.5090 N.am  298  GLN298     -0.0878
    144  N         22.4220   11.0210    2.9380 N.3   301  ALA301     -0.1245
    145  CA        22.3080   11.7410    1.6710 C.3   301  ALA301      0.1562
    146  C         20.9480   12.4290    1.5700 C.2   301  ALA301      0.2260
    147  O         20.0250   12.1140    2.3240 O.2   301  ALA301     -0.2867
    148  CB        22.5500   10.7870    0.5060 C.3   301  ALA301      0.0290
    149  N         18.4960   12.4990   -0.6100 N.3   303  PHE303     -0.1241
    150  CA        17.2840   11.8090   -1.0240 C.3   303  PHE303      0.1605
    151  C         16.4440   11.3110    0.1640 C.2   303  PHE303      0.2264
    152  O         15.2880   10.9830   -0.0240 O.2   303  PHE303     -0.2867
    153  CB        17.5920   10.6630   -1.9700 C.3   303  PHE303      0.0534
    154  CG        17.6690   11.0710   -3.4090 C.ar  303  PHE303     -0.0203
    155  CD1       16.5050   11.2450   -4.1510 C.ar  303  PHE303     -0.0042
    156  CD2       18.8960   11.2790   -4.0240 C.ar  303  PHE303     -0.0042
    157  CE1       16.5700   11.6210   -5.4830 C.ar  303  PHE303     -0.0003
    158  CE2       18.9690   11.6570   -5.3600 C.ar  303  PHE303     -0.0003
    159  CZ        17.8090   11.8270   -6.0900 C.ar  303  PHE303     -0.0000
@<TRIPOS>BOND
     1     1     2    1
     2     9    10    1
     3     3     2    1
     4     3     4    2
     5     2     5    1
     6    10    11    1
     7    10    13    1
     8     5     6    1
     9    11    12    2
    10    13    14    1
    11     6     7    1
    12     6     8    1
    13    14    15   ar
    14    14    16   ar
    15    15    17   ar
    16    35    34    2
    17    39    38    2
    18    16    18   ar
    19    33    34    1
    20    33    32    1
    21    34    36   am
    22    30    29    1
    23    32    26   am
    24    17    19   ar
    25    38    37    1
    26    36    37    1
    27    18    19   ar
    28    29    31    1
    29    29    28    1
    30   159   157   ar
    31   159   158   ar
    32    37    40    1
    33    26    25    1
    34    26    27    2
    35    47    46    1
    36   157   155   ar
    37   158   156   ar
    38    48    46    1
    39    86    87   ar
    40    86    84   ar
    41    25    28    1
    42    25    24    1
    43    46    45    1
    44    87    85   ar
    45    23    22    2
    46    84    82   ar
    47   155   154   ar
    48   156   154   ar
    49    24    22   am
    50    22    21    1
    51    41    42    1
    52    45    42    1
    53    85    83   ar
    54   101   100   ar
    55   101    99   ar
    56   154   153    1
    57   100    98   ar
    58    82    83   ar
    59    82    81    1
    60    42    43    1
    61    99    97   ar
    62    21    20    1
    63    81    78    1
    64   153   150    1
    65    98    95   ar
    66    43    49   am
    67    43    44    2
    68    97    95   ar
    69    97    96   ar
    70    58    56   ar
    71    58    59   ar
    72   150   149    1
    73   150   151    1
    74    49    50    1
    75    95    93   ar
    76    56    54   ar
    77    78    79    1
    78    78    77    1
    79    60    59    1
    80   143   141   am
    81   142   141    2
    82    59    57   ar
    83    79    80    2
    84   141   140    1
    85    96    94   ar
    86   152   151    2
    87    77    73   am
    88   148   145    1
    89    54    53    1
    90    54    55   ar
    91    50    53    1
    92    50    51    1
    93   140   139    1
    94    93    94   ar
    95    93    92    1
    96    76    75    1
    97    64    63    2
    98    57    55   ar
    99    51    52    2
   100    75    72    1
   101    73    74    2
   102    73    72    1
   103    92    89    1
   104    67    69   ar
   105    67    66   ar
   106   146   145    1
   107   146   147    2
   108   145   144    1
   109   132   134   ar
   110   132   130   ar
   111    69    70   ar
   112   139   136    1
   113   134   133   ar
   114    91    90    2
   115    72    71    1
   116    63    71   am
   117    63    62    1
   118    65    66    1
   119    65    62    1
   120    66    68   ar
   121    90    89    1
   122   136   135    1
   123   136   137    1
   124   110   112   ar
   125   110   108   ar
   126    89    88    1
   127    61    62    1
   128   124   123    1
   129    70    68   ar
   130   130   129    1
   131   130   131   ar
   132   112   111   ar
   133   138   137    2
   134   133   131   ar
   135   135   127   am
   136   129   126    1
   137   108   107   ar
   138   123   121   ar
   139   123   122   ar
   140   128   127    2
   141   127   126    1
   142   111   109   ar
   143   121   119   ar
   144   122   120   ar
   145   126   125    1
   146   107   109   ar
   147   107   106    1
   148   119   118   ar
   149   120   118   ar
   150   118   117    1
   151   106   103    1
   152   105   104    2
   153   103   104    1
   154   103   102    1
   155   117   114    1
   156   113   114    1
   157   114   115    1
   158   116   115    2
