@<TRIPOS>MOLECULE
tmp/5lz2A00.pdb
 130 128 0 0 0
SMALL
GASTEIGER

@<TRIPOS>ATOM
      1  N         21.8540    8.6990  -12.6280 N.3    53  LEU53      -0.1245
      2  CA        21.1180    8.0090  -11.5610 C.3    53  LEU53       0.1561
      3  C         20.3550    6.8020  -12.0920 C.2    53  LEU53       0.2260
      4  O         20.2320    5.7920  -11.4160 O.2    53  LEU53      -0.2867
      5  CB        20.1830    8.9660  -10.8200 C.3    53  LEU53       0.0270
      6  CG        20.9320    9.8240   -9.7970 C.3    53  LEU53       0.0019
      7  CD1       20.1380   11.0750   -9.4510 C.3    53  LEU53       0.0001
      8  CD2       21.3070    9.0650   -8.5230 C.3    53  LEU53       0.0001
      9  N         22.7870    4.0290  -12.5900 N.3    56  PHE56      -0.1241
     10  CA        23.1590    3.5290  -11.2780 C.3    56  PHE56       0.1605
     11  C         22.0680    2.6100  -10.7060 C.2    56  PHE56       0.2264
     12  O         22.3800    1.6080  -10.0570 O.2    56  PHE56      -0.2867
     13  CB        23.4650    4.6730  -10.3290 C.3    56  PHE56       0.0534
     14  CG        23.7120    4.2310   -8.9290 C.ar   56  PHE56      -0.0203
     15  CD1       24.7770    3.3770   -8.6420 C.ar   56  PHE56      -0.0042
     16  CD2       22.8880    4.6620   -7.9030 C.ar   56  PHE56      -0.0042
     17  CE1       25.0130    2.9600   -7.3450 C.ar   56  PHE56      -0.0003
     18  CE2       23.1110    4.2560   -6.6060 C.ar   56  PHE56      -0.0003
     19  CZ        24.1720    3.4070   -6.3270 C.ar   56  PHE56      -0.0000
     20  N         29.4140    9.1970   -2.0100 N.3    98  GLY98      -0.1210
     21  CA        29.4200    7.7380   -2.1690 C.3    98  GLY98       0.1956
     22  C         29.2860    7.2680   -3.6220 C.2    98  GLY98       0.2612
     23  O         29.2710    8.0850   -4.5610 O.2    98  GLY98      -0.2717
     24  N         29.1880    5.9490   -3.7850 N.am   99  LEU99      -0.1965
     25  CA        29.0340    5.3000   -5.0880 C.3    99  LEU99       0.1728
     26  C         27.6660    5.6160   -5.7020 C.2    99  LEU99       0.2617
     27  O         26.6280    5.4300   -5.0610 O.2    99  LEU99      -0.2715
     28  CB        29.1880    3.7790   -4.9770 C.3    99  LEU99       0.0311
     29  CG        29.1250    2.9630   -6.2880 C.3    99  LEU99       0.0022
     30  CD1       30.2870    3.3120   -7.2120 C.3    99  LEU99       0.0001
     31  CD2       29.0920    1.4720   -5.9920 C.3    99  LEU99       0.0001
     32  N         27.6880    6.0930   -6.9460 N.am  100  GLY100     -0.1940
     33  CA        26.4750    6.4970   -7.6570 C.3   100  GLY100      0.2014
     34  C         25.9480    7.8690   -7.2510 C.2   100  GLY100      0.2638
     35  O         24.9420    8.3460   -7.8020 O.2   100  GLY100     -0.2714
     36  N         26.6070    8.5170   -6.3010 N.am  101  ALA101     -0.1977
     37  CA        26.2280    9.8730   -5.8940 C.3   101  ALA101      0.1597
     38  C         27.0160   10.8860   -6.7530 C.2   101  ALA101      0.2287
     39  O         27.6270   10.5130   -7.7510 O.2   101  ALA101     -0.2864
     40  CB        26.4810   10.0500   -4.4430 C.3   101  ALA101      0.0319
     41  N         24.5970   16.0860   -3.5790 N.3   105  LEU105     -0.1231
     42  CA        23.6090   15.2840   -2.8260 C.3   105  LEU105      0.1693
     43  C         23.8430   15.2010   -1.2970 C.2   105  LEU105      0.2592
     44  O         23.2460   14.3580   -0.5890 O.2   105  LEU105     -0.2718
     45  CB        23.5020   13.9130   -3.4110 C.3   105  LEU105      0.0284
     46  CG        23.0820   13.8630   -4.8760 C.3   105  LEU105      0.0019
     47  CD1       23.0390   12.4090   -5.3000 C.3   105  LEU105      0.0001
     48  CD2       21.7540   14.5370   -5.1410 C.3   105  LEU105      0.0001
     49  N         24.6960   16.0610   -0.7920 N.am  106  TYR106     -0.1976
     50  CA        24.9380   16.1110    0.6350 C.3   106  TYR106      0.1639
     51  C         24.8740   17.5500    1.1270 C.2   106  TYR106      0.2290
     52  O         25.6830   17.9790    1.9510 O.2   106  TYR106     -0.2864
     53  CB        26.2810   15.4780    0.9370 C.3   106  TYR106      0.0560
     54  CG        26.3950   14.0200    0.5580 C.ar  106  TYR106     -0.0198
     55  CD1       26.0740   13.0060    1.4820 C.ar  106  TYR106     -0.0009
     56  CD2       26.8190   13.6410   -0.7140 C.ar  106  TYR106     -0.0009
     57  CE1       26.1770   11.6610    1.1380 C.ar  106  TYR106      0.0417
     58  CE2       26.9250   12.3010   -1.0630 C.ar  106  TYR106      0.0417
     59  CZ        26.6040   11.3090   -0.1360 C.ar  106  TYR106      0.1957
     60  OH        26.7130    9.9760   -0.4900 O.3   106  TYR106     -0.2866
     61  N         30.7590    9.9330    3.0310 N.3   218  HIS218     -0.1226
     62  CA        29.7230    8.9300    3.2040 C.3   218  HIS218      0.1752
     63  C         29.9740    7.7590    2.2930 C.2   218  HIS218      0.2596
     64  O         30.2260    7.9630    1.0930 O.2   218  HIS218     -0.2718
     65  CB        28.3550    9.5080    2.8330 C.3   218  HIS218      0.0759
     66  CG        27.2260    8.5210    2.9010 C.ar  218  HIS218      0.0818
     67  ND1       26.4570    8.1820    1.8020 N.ar  218  HIS218     -0.2268
     68  CD2       26.7370    7.8000    3.9420 C.ar  218  HIS218      0.1154
     69  CE1       25.5450    7.2970    2.1620 C.ar  218  HIS218      0.1986
     70  NE2       25.6930    7.0480    3.4560 N.ar  218  HIS218     -0.2212
     71  N         29.8910    6.5590    2.8620 N.am  219  SER219     -0.1952
     72  CA        29.8950    5.2870    2.1250 C.3   219  SER219      0.1924
     73  C         31.2740    5.0970    1.4610 C.2   219  SER219      0.2314
     74  O         32.2580    4.9260    2.1920 O.2   219  SER219     -0.2863
     75  CB        28.6960    5.2350    1.1680 C.3   219  SER219      0.2116
     76  OG        28.3130    3.9210    0.8670 O.3   219  SER219     -0.2180
     77  N         22.6250   -0.5320    7.8290 N.3   268  PHE268     -0.1241
     78  CA        23.6430   -0.7690    6.7820 C.3   268  PHE268      0.1605
     79  C         24.7160   -1.7800    7.1780 C.2   268  PHE268      0.2264
     80  O         25.0730   -2.6450    6.3890 O.2   268  PHE268     -0.2867
     81  CB        24.3470    0.5440    6.3660 C.3   268  PHE268      0.0534
     82  CG        25.4080    0.3550    5.3010 C.ar  268  PHE268     -0.0203
     83  CD1       25.0590   -0.0660    4.0100 C.ar  268  PHE268     -0.0042
     84  CD2       26.7520    0.5930    5.5750 C.ar  268  PHE268     -0.0042
     85  CE1       26.0310   -0.2430    3.0230 C.ar  268  PHE268     -0.0003
     86  CE2       27.7250    0.4160    4.5880 C.ar  268  PHE268     -0.0003
     87  CZ        27.3660   -0.0010    3.3140 C.ar  268  PHE268     -0.0000
     88  N         21.2650    3.5460    5.6610 N.3   297  HIS297     -0.1226
     89  CA        22.3960    4.0810    4.9150 C.3   297  HIS297      0.1752
     90  C         22.0840    5.4300    4.2650 C.2   297  HIS297      0.2595
     91  O         22.9350    6.3250    4.2510 O.2   297  HIS297     -0.2718
     92  CB        22.8340    3.0610    3.8370 C.3   297  HIS297      0.0759
     93  CG        24.2170    3.2690    3.3080 C.ar  297  HIS297      0.0818
     94  ND1       25.3220    3.3920    4.1240 N.ar  297  HIS297     -0.2268
     95  CD2       24.6800    3.3730    2.0380 C.ar  297  HIS297      0.1154
     96  CE1       26.4050    3.5640    3.3880 C.ar  297  HIS297      0.1986
     97  NE2       26.0440    3.5560    2.1190 N.ar  297  HIS297     -0.2212
     98  N         20.8690    5.5750    3.7300 N.am  298  GLN298     -0.1979
     99  CA        20.4830    6.8130    3.0480 C.3   298  GLN298      0.1601
    100  C         20.1920    8.0180    3.9670 C.2   298  GLN298      0.2287
    101  O         20.0570    9.1510    3.4790 O.2   298  GLN298     -0.2864
    102  CB        19.2990    6.5290    2.0970 C.3   298  GLN298      0.0394
    103  CG        19.6500    5.7210    0.8300 C.3   298  GLN298      0.0908
    104  CD        20.8870    6.2650    0.1420 C.2   298  GLN298      0.2608
    105  OE1       20.9860    7.4700   -0.1110 O.2   298  GLN298     -0.2717
    106  NE2       21.8350    5.3970   -0.1610 N.am  298  GLN298     -0.0878
    107  N         22.3270   11.1180    3.2730 N.3   301  ALA301     -0.1231
    108  CA        22.2730   11.8010    1.9730 C.3   301  ALA301      0.1694
    109  C         20.9090   12.4690    1.7710 C.2   301  ALA301      0.2592
    110  O         19.9610   12.2020    2.4900 O.2   301  ALA301     -0.2718
    111  CB        22.5930   10.8250    0.8370 C.3   301  ALA301      0.0304
    112  N         20.8350   13.3430    0.7740 N.am  302  ASP302     -0.1960
    113  CA        19.7290   14.2930    0.6290 C.3   302  ASP302      0.1840
    114  C         18.4040   13.6910    0.1560 C.2   302  ASP302      0.2622
    115  O         17.3380   14.2840    0.3800 O.2   302  ASP302     -0.2715
    116  CB        20.1050   15.3900   -0.3630 C.3   302  ASP302      0.1450
    117  CG        21.0630   16.3980    0.1900 C.2   302  ASP302      0.3671
    118  OD1       21.3700   16.4160    1.4140 O.co2 302  ASP302     -0.2456
    119  OD2       21.5300   17.2140   -0.6390 O.co2 302  ASP302     -0.2456
    120  N         18.4670   12.5320   -0.4910 N.am  303  PHE303     -0.1974
    121  CA        17.2660   11.8610   -0.9600 C.3   303  PHE303      0.1639
    122  C         16.4030   11.3600    0.1950 C.2   303  PHE303      0.2290
    123  O         15.2700   11.0570   -0.0340 O.2   303  PHE303     -0.2864
    124  CB        17.5700   10.7370   -1.9510 C.3   303  PHE303      0.0560
    125  CG        17.4110   11.1350   -3.3750 C.ar  303  PHE303     -0.0200
    126  CD1       16.1550   11.1570   -3.9640 C.ar  303  PHE303     -0.0042
    127  CD2       18.5070   11.4890   -4.1400 C.ar  303  PHE303     -0.0042
    128  CE1       16.0050   11.5270   -5.2890 C.ar  303  PHE303     -0.0003
    129  CE2       18.3670   11.8590   -5.4680 C.ar  303  PHE303     -0.0003
    130  CZ        17.1170   11.8800   -6.0460 C.ar  303  PHE303     -0.0000
@<TRIPOS>BOND
     1     1     2    1
     2     9    10    1
     3     3     2    1
     4     3     4    2
     5     2     5    1
     6    10    11    1
     7    10    13    1
     8     5     6    1
     9    11    12    2
    10    13    14    1
    11     6     7    1
    12     6     8    1
    13    14    15   ar
    14    14    16   ar
    15    15    17   ar
    16    16    18   ar
    17    35    34    2
    18    39    38    2
    19    33    34    1
    20    33    32    1
    21    17    19   ar
    22    34    36   am
    23    30    29    1
    24    32    26   am
    25    38    37    1
    26    18    19   ar
    27    36    37    1
    28    29    31    1
    29    29    28    1
    30   130   129   ar
    31   130   128   ar
    32    37    40    1
    33    26    25    1
    34    26    27    2
    35   129   127   ar
    36    47    46    1
    37   128   126   ar
    38    48    46    1
    39    25    28    1
    40    25    24    1
    41    46    45    1
    42    23    22    2
    43   127   125   ar
    44   126   125   ar
    45    24    22   am
    46    22    21    1
    47    41    42    1
    48    45    42    1
    49   125   124    1
    50    42    43    1
    51    21    20    1
    52   124   121    1
    53    43    49   am
    54    43    44    2
    55    58    56   ar
    56    58    59   ar
    57   121   120    1
    58   121   122    1
    59    49    50    1
    60    56    54   ar
    61   119   117   ar
    62   120   114   am
    63    60    59    1
    64   116   117    1
    65   116   113    1
    66   106   104   am
    67    59    57   ar
    68   105   104    2
    69   123   122    2
    70   104   103    1
    71   114   115    2
    72   114   113    1
    73   117   118   ar
    74    54    53    1
    75    54    55   ar
    76   113   112    1
    77    50    53    1
    78    50    51    1
    79   112   109   am
    80   103   102    1
    81   111   108    1
    82    76    75    1
    83    64    63    2
    84    51    52    2
    85    57    55   ar
    86    75    72    1
    87    73    72    1
    88    73    74    2
    89   109   108    1
    90   109   110    2
    91    67    69   ar
    92    67    66   ar
    93   108   107    1
    94    95    97   ar
    95    95    93   ar
    96   102    99    1
    97    97    96   ar
    98    72    71    1
    99    69    70   ar
   100    63    71   am
   101    63    62    1
   102    65    66    1
   103    65    62    1
   104    66    68   ar
   105    85    87   ar
   106    85    83   ar
   107    61    62    1
   108    99    98    1
   109    99   100    1
   110    93    92    1
   111    93    94   ar
   112    87    86   ar
   113    96    94   ar
   114    70    68   ar
   115   101   100    2
   116    98    90   am
   117    92    89    1
   118    83    82   ar
   119    91    90    2
   120    90    89    1
   121    86    84   ar
   122    89    88    1
   123    82    84   ar
   124    82    81    1
   125    81    78    1
   126    80    79    2
   127    78    79    1
   128    78    77    1
