@<TRIPOS>MOLECULE
tmp/5lz4A00.pdb
 155 155 0 0 0
SMALL
GASTEIGER

@<TRIPOS>ATOM
      1  N         21.9220    8.7240  -12.6760 N.3    53  LEU53      -0.1245
      2  CA        21.1640    8.0420  -11.6180 C.3    53  LEU53       0.1561
      3  C         20.3740    6.8500  -12.1640 C.2    53  LEU53       0.2260
      4  O         20.2470    5.8170  -11.5080 O.2    53  LEU53      -0.2867
      5  CB        20.2220    9.0060  -10.9010 C.3    53  LEU53       0.0270
      6  CG        20.8930    9.9370   -9.8890 C.3    53  LEU53       0.0019
      7  CD1       19.8970   10.9860   -9.4480 C.3    53  LEU53       0.0001
      8  CD2       21.4590    9.2130   -8.6720 C.3    53  LEU53       0.0001
      9  N         22.7950    4.0410  -12.4930 N.3    56  PHE56      -0.1241
     10  CA        23.1300    3.5480  -11.1510 C.3    56  PHE56       0.1605
     11  C         22.0390    2.6180  -10.5950 C.2    56  PHE56       0.2264
     12  O         22.3440    1.6100   -9.9360 O.2    56  PHE56      -0.2867
     13  CB        23.3760    4.7080  -10.2000 C.3    56  PHE56       0.0534
     14  CG        23.6320    4.2880   -8.7830 C.ar   56  PHE56      -0.0203
     15  CD1       24.7560    3.5360   -8.4630 C.ar   56  PHE56      -0.0042
     16  CD2       22.7530    4.6400   -7.7670 C.ar   56  PHE56      -0.0042
     17  CE1       24.9990    3.1440   -7.1550 C.ar   56  PHE56      -0.0003
     18  CE2       22.9860    4.2550   -6.4600 C.ar   56  PHE56      -0.0003
     19  CZ        24.1120    3.5040   -6.1510 C.ar   56  PHE56      -0.0000
     20  N         29.3060    9.3300   -2.0510 N.3    98  GLY98      -0.1210
     21  CA        29.1910    7.8850   -2.2710 C.3    98  GLY98       0.1956
     22  C         29.1980    7.4510   -3.7400 C.2    98  GLY98       0.2612
     23  O         29.1300    8.2720   -4.6640 O.2    98  GLY98      -0.2717
     24  N         29.2830    6.1350   -3.9290 N.am   99  LEU99      -0.1965
     25  CA        29.0900    5.4920   -5.2270 C.3    99  LEU99       0.1728
     26  C         27.7090    5.7490   -5.8390 C.2    99  LEU99       0.2617
     27  O         26.6800    5.5080   -5.2040 O.2    99  LEU99      -0.2715
     28  CB        29.2950    3.9780   -5.0950 C.3    99  LEU99       0.0311
     29  CG        29.2130    3.1650   -6.3900 C.3    99  LEU99       0.0022
     30  CD1       30.4140    3.4560   -7.2730 C.3    99  LEU99       0.0001
     31  CD2       29.1470    1.6930   -6.0410 C.3    99  LEU99       0.0001
     32  N         27.6980    6.2400   -7.0770 N.am  100  GLY100     -0.1940
     33  CA        26.4620    6.5960   -7.7700 C.3   100  GLY100      0.2014
     34  C         25.8940    7.9440   -7.3630 C.2   100  GLY100      0.2638
     35  O         24.8510    8.3710   -7.8810 O.2   100  GLY100     -0.2714
     36  N         26.5650    8.6240   -6.4410 N.am  101  ALA101     -0.1977
     37  CA        26.1850    9.9830   -6.0500 C.3   101  ALA101      0.1597
     38  C         27.0000   11.0000   -6.8860 C.2   101  ALA101      0.2287
     39  O         27.6090   10.6390   -7.9030 O.2   101  ALA101     -0.2864
     40  CB        26.3620   10.1610   -4.5720 C.3   101  ALA101      0.0319
     41  N         24.6120   16.1460   -3.6110 N.3   105  LEU105     -0.1231
     42  CA        23.6420   15.3110   -2.9030 C.3   105  LEU105      0.1693
     43  C         23.8510   15.1650   -1.3790 C.2   105  LEU105      0.2592
     44  O         23.1840   14.3440   -0.7060 O.2   105  LEU105     -0.2718
     45  CB        23.5570   13.9620   -3.5690 C.3   105  LEU105      0.0284
     46  CG        23.0960   13.9310   -5.0430 C.3   105  LEU105      0.0019
     47  CD1       23.0970   12.4810   -5.5090 C.3   105  LEU105      0.0001
     48  CD2       21.7200   14.5030   -5.2360 C.3   105  LEU105      0.0001
     49  N         24.7700   15.9600   -0.8440 N.am  106  TYR106     -0.1976
     50  CA        25.0280   16.0170    0.5990 C.3   106  TYR106      0.1639
     51  C         24.9610   17.4610    1.1090 C.2   106  TYR106      0.2290
     52  O         25.7750   17.8890    1.9480 O.2   106  TYR106     -0.2864
     53  CB        26.4000   15.3790    0.8610 C.3   106  TYR106      0.0560
     54  CG        26.4500   13.9050    0.4790 C.ar  106  TYR106     -0.0198
     55  CD1       26.1300   12.9140    1.4060 C.ar  106  TYR106     -0.0009
     56  CD2       26.8170   13.5040   -0.8190 C.ar  106  TYR106     -0.0009
     57  CE1       26.1750   11.5570    1.0550 C.ar  106  TYR106      0.0417
     58  CE2       26.8620   12.1700   -1.1610 C.ar  106  TYR106      0.0417
     59  CZ        26.5410   11.1920   -0.2250 C.ar  106  TYR106      0.1957
     60  OH        26.5980    9.8570   -0.6050 O.3   106  TYR106     -0.2866
     61  N         30.6590    9.9160    2.9660 N.3   218  HIS218     -0.1226
     62  CA        29.6400    8.8740    3.1300 C.3   218  HIS218      0.1752
     63  C         29.9690    7.6510    2.2950 C.2   218  HIS218      0.2597
     64  O         30.1990    7.7680    1.0800 O.2   218  HIS218     -0.2718
     65  CB        28.2600    9.4070    2.6930 C.3   218  HIS218      0.0759
     66  CG        27.1550    8.3810    2.7140 C.ar  218  HIS218      0.0818
     67  ND1       26.3350    8.1460    1.6310 N.ar  218  HIS218     -0.2268
     68  CD2       26.7380    7.5360    3.6840 C.ar  218  HIS218      0.1154
     69  CE1       25.4650    7.2040    1.9310 C.ar  218  HIS218      0.1986
     70  NE2       25.6870    6.8160    3.1690 N.ar  218  HIS218     -0.2212
     71  N         29.9870    6.4860    2.9490 N.am  219  SER219     -0.1938
     72  CA        30.0030    5.1880    2.2590 C.3   219  SER219      0.2055
     73  C         31.3120    4.9910    1.4790 C.2   219  SER219      0.2643
     74  O         32.3480    4.7750    2.1300 O.2   219  SER219     -0.2714
     75  CB        28.7490    5.0040    1.4010 C.3   219  SER219      0.2130
     76  OG        28.5410    3.6310    1.1240 O.3   219  SER219     -0.2179
     77  N         31.3110    5.0550    0.1370 N.am  220  PHE220     -0.1973
     78  CA        32.5890    5.0990   -0.6290 C.3   220  PHE220      0.1639
     79  C         33.4050    6.3150   -0.1660 C.2   220  PHE220      0.2290
     80  O         34.6270    6.2690   -0.0650 O.2   220  PHE220     -0.2864
     81  CB        32.3500    5.2220   -2.1570 C.3   220  PHE220      0.0560
     82  CG        33.4370    4.6160   -3.0350 C.ar  220  PHE220     -0.0200
     83  CD1       34.7240    4.2820   -2.5500 C.ar  220  PHE220     -0.0042
     84  CD2       33.1630    4.3760   -4.3850 C.ar  220  PHE220     -0.0042
     85  CE1       35.6870    3.7270   -3.3990 C.ar  220  PHE220     -0.0003
     86  CE2       34.1370    3.8190   -5.2220 C.ar  220  PHE220     -0.0003
     87  CZ        35.3930    3.4980   -4.7230 C.ar  220  PHE220     -0.0000
     88  N         31.9330    2.4450    3.7230 N.3   244  TRP244     -0.1241
     89  CA        32.0290    1.1960    2.9970 C.3   244  TRP244      0.1605
     90  C         33.5110    0.8520    2.9020 C.2   244  TRP244      0.2264
     91  O         34.2350    1.4850    2.1280 O.2   244  TRP244     -0.2867
     92  CB        31.4090    1.3720    1.6070 C.3   244  TRP244      0.0550
     93  CG        31.3890    0.1410    0.7680 C.ar  244  TRP244      0.0003
     94  CD1       31.0330   -1.1130    1.1640 C.ar  244  TRP244      0.0946
     95  CD2       31.7360    0.0430   -0.6100 C.ar  244  TRP244      0.0152
     96  NE1       31.1380   -1.9870    0.1240 N.ar  244  TRP244     -0.2442
     97  CE2       31.5680   -1.3060   -0.9840 C.ar  244  TRP244      0.0810
     98  CE3       32.1740    0.9610   -1.5670 C.ar  244  TRP244      0.0012
     99  CZ2       31.8230   -1.7660   -2.2880 C.ar  244  TRP244      0.0191
    100  CZ3       32.4290    0.5040   -2.8660 C.ar  244  TRP244      0.0001
    101  CH2       32.2510   -0.8450   -3.2070 C.ar  244  TRP244      0.0015
    102  N         22.6410   -0.5800    7.7890 N.3   268  PHE268     -0.1241
    103  CA        23.6590   -0.8280    6.7610 C.3   268  PHE268      0.1605
    104  C         24.7140   -1.8600    7.1420 C.2   268  PHE268      0.2264
    105  O         25.0890   -2.6820    6.3060 O.2   268  PHE268     -0.2867
    106  CB        24.3890    0.4550    6.3460 C.3   268  PHE268      0.0534
    107  CG        25.4310    0.2310    5.2770 C.ar  268  PHE268     -0.0203
    108  CD1       25.0510   -0.1150    3.9780 C.ar  268  PHE268     -0.0042
    109  CD2       26.7920    0.3610    5.5610 C.ar  268  PHE268     -0.0042
    110  CE1       26.0110   -0.3220    2.9970 C.ar  268  PHE268     -0.0003
    111  CE2       27.7490    0.1550    4.5810 C.ar  268  PHE268     -0.0003
    112  CZ        27.3630   -0.1850    3.3000 C.ar  268  PHE268     -0.0000
    113  N         21.2690    3.4090    5.5560 N.3   297  HIS297     -0.1226
    114  CA        22.4290    3.9510    4.8310 C.3   297  HIS297      0.1752
    115  C         22.1280    5.3160    4.2110 C.2   297  HIS297      0.2595
    116  O         22.9730    6.2240    4.2490 O.2   297  HIS297     -0.2718
    117  CB        22.8630    2.9620    3.7290 C.3   297  HIS297      0.0759
    118  CG        24.2760    3.1220    3.2560 C.ar  297  HIS297      0.0818
    119  ND1       25.3380    3.2900    4.1110 N.ar  297  HIS297     -0.2268
    120  CD2       24.8010    3.1330    2.0030 C.ar  297  HIS297      0.1154
    121  CE1       26.4560    3.4010    3.4160 C.ar  297  HIS297      0.1986
    122  NE2       26.1580    3.3080    2.1340 N.ar  297  HIS297     -0.2212
    123  N         20.9240    5.4550    3.6430 N.am  298  GLN298     -0.1979
    124  CA        20.5690    6.6930    2.9550 C.3   298  GLN298      0.1601
    125  C         20.2090    7.8940    3.8630 C.2   298  GLN298      0.2287
    126  O         20.0010    8.9840    3.3460 O.2   298  GLN298     -0.2864
    127  CB        19.4660    6.4200    1.9160 C.3   298  GLN298      0.0394
    128  CG        19.9590    5.6510    0.6930 C.3   298  GLN298      0.0908
    129  CD        21.1520    6.3140    0.0140 C.2   298  GLN298      0.2608
    130  OE1       21.2070    7.5290   -0.1310 O.2   298  GLN298     -0.2717
    131  NE2       22.1100    5.5120   -0.4030 N.am  298  GLN298     -0.0878
    132  N         22.4330   11.0700    3.2150 N.3   301  ALA301     -0.1231
    133  CA        22.3890   11.7490    1.8980 C.3   301  ALA301      0.1694
    134  C         21.0350   12.4190    1.6660 C.2   301  ALA301      0.2592
    135  O         20.0680   12.1230    2.3610 O.2   301  ALA301     -0.2718
    136  CB        22.6850   10.7330    0.8000 C.3   301  ALA301      0.0304
    137  N         20.9650   13.3230    0.6860 N.am  302  ASP302     -0.1960
    138  CA        19.8310   14.2500    0.5660 C.3   302  ASP302      0.1840
    139  C         18.5260   13.5870    0.1060 C.2   302  ASP302      0.2622
    140  O         17.4600   14.1170    0.3570 O.2   302  ASP302     -0.2715
    141  CB        20.1400   15.4070   -0.3930 C.3   302  ASP302      0.1450
    142  CG        21.1060   16.4400    0.1670 C.2   302  ASP302      0.3671
    143  OD1       21.3930   16.4540    1.3850 O.co2 302  ASP302     -0.2456
    144  OD2       21.5900   17.2640   -0.6610 O.co2 302  ASP302     -0.2456
    145  N         18.6000   12.4330   -0.5660 N.am  303  PHE303     -0.1974
    146  CA        17.3920   11.7800   -1.0480 C.3   303  PHE303      0.1639
    147  C         16.4930   11.3020    0.0960 C.2   303  PHE303      0.2290
    148  O         15.3350   10.9820   -0.1470 O.2   303  PHE303     -0.2864
    149  CB        17.6680   10.6660   -2.0820 C.3   303  PHE303      0.0560
    150  CG        17.4600   11.1120   -3.4980 C.ar  303  PHE303     -0.0200
    151  CD1       16.1790   11.2450   -4.0070 C.ar  303  PHE303     -0.0042
    152  CD2       18.5340   11.3990   -4.3220 C.ar  303  PHE303     -0.0042
    153  CE1       15.9700   11.6540   -5.3050 C.ar  303  PHE303     -0.0003
    154  CE2       18.3360   11.8100   -5.6240 C.ar  303  PHE303     -0.0003
    155  CZ        17.0530   11.9370   -6.1170 C.ar  303  PHE303     -0.0000
@<TRIPOS>BOND
     1     1     2    1
     2     9    10    1
     3     3     2    1
     4     3     4    2
     5     2     5    1
     6    10    11    1
     7    10    13    1
     8     5     6    1
     9    11    12    2
    10    13    14    1
    11     6     7    1
    12     6     8    1
    13    14    15   ar
    14    14    16   ar
    15    15    17   ar
    16    39    38    2
    17    35    34    2
    18    33    34    1
    19    33    32    1
    20    16    18   ar
    21    34    36   am
    22    30    29    1
    23    17    19   ar
    24    32    26   am
    25    38    37    1
    26    18    19   ar
    27    36    37    1
    28    29    31    1
    29    29    28    1
    30   155   154   ar
    31   155   153   ar
    32    37    40    1
    33    26    25    1
    34    26    27    2
    35   154   152   ar
    36    47    46    1
    37   153   151   ar
    38    48    46    1
    39    25    28    1
    40    25    24    1
    41    86    87   ar
    42    86    84   ar
    43    46    45    1
    44    87    85   ar
    45    23    22    2
    46    84    82   ar
    47   152   150   ar
    48   151   150   ar
    49    24    22   am
    50    22    21    1
    51    41    42    1
    52    45    42    1
    53   150   149    1
    54    85    83   ar
    55   101   100   ar
    56   101    99   ar
    57    82    83   ar
    58    82    81    1
    59    42    43    1
    60   100    98   ar
    61    99    97   ar
    62    21    20    1
    63    81    78    1
    64   149   146    1
    65    98    95   ar
    66    43    49   am
    67    43    44    2
    68    58    56   ar
    69    58    59   ar
    70   146   145    1
    71   146   147    1
    72    97    95   ar
    73    97    96   ar
    74    49    50    1
    75    56    54   ar
    76   144   142   ar
    77    78    79    1
    78    78    77    1
    79    95    93   ar
    80    60    59    1
    81   145   139   am
    82   131   129   am
    83   141   142    1
    84   141   138    1
    85    59    57   ar
    86    79    80    2
    87   148   147    2
    88   130   129    2
    89   129   128    1
    90   139   140    2
    91   139   138    1
    92    96    94   ar
    93    77    73   am
    94   142   143   ar
    95    54    53    1
    96    54    55   ar
    97   138   137    1
    98    50    53    1
    99    50    51    1
   100   137   134   am
   101   128   127    1
   102    93    94   ar
   103    93    92    1
   104   136   133    1
   105    57    55   ar
   106    64    63    2
   107    51    52    2
   108    76    75    1
   109    75    72    1
   110    73    74    2
   111    73    72    1
   112    92    89    1
   113    67    69   ar
   114    67    66   ar
   115   134   133    1
   116   134   135    2
   117   133   132    1
   118   127   124    1
   119    69    70   ar
   120   120   122   ar
   121   120   118   ar
   122    91    90    2
   123   122   121   ar
   124    72    71    1
   125    63    71   am
   126    63    62    1
   127    65    66    1
   128    65    62    1
   129    66    68   ar
   130    90    89    1
   131   124   123    1
   132   124   125    1
   133    61    62    1
   134    89    88    1
   135   110   112   ar
   136   110   108   ar
   137    70    68   ar
   138   118   117    1
   139   118   119   ar
   140   112   111   ar
   141   126   125    2
   142   121   119   ar
   143   123   115   am
   144   117   114    1
   145   108   107   ar
   146   115   116    2
   147   115   114    1
   148   111   109   ar
   149   114   113    1
   150   107   109   ar
   151   107   106    1
   152   105   104    2
   153   106   103    1
   154   103   104    1
   155   103   102    1
