@<TRIPOS>MOLECULE
tmp/5lz7A00.pdb
 175 173 0 0 0
SMALL
GASTEIGER

@<TRIPOS>ATOM
      1  N         21.7840    8.8340  -12.7640 N.3    53  LEU53      -0.1245
      2  CA        21.0550    8.1360  -11.6820 C.3    53  LEU53       0.1561
      3  C         20.2350    6.9570  -12.2390 C.2    53  LEU53       0.2260
      4  O         20.1540    5.9050  -11.6110 O.2    53  LEU53      -0.2867
      5  CB        20.1610    9.0910  -10.8710 C.3    53  LEU53       0.0270
      6  CG        20.8800   10.0340   -9.8990 C.3    53  LEU53       0.0019
      7  CD1       20.0400   11.2620   -9.5550 C.3    53  LEU53       0.0001
      8  CD2       21.3170    9.2980   -8.6340 C.3    53  LEU53       0.0001
      9  N         22.4710    4.0170  -12.4940 N.3    56  PHE56      -0.1241
     10  CA        22.8410    3.5740  -11.1450 C.3    56  PHE56       0.1605
     11  C         21.7080    2.7600  -10.5100 C.2    56  PHE56       0.2264
     12  O         21.9370    1.7430   -9.8490 O.2    56  PHE56      -0.2867
     13  CB        23.1660    4.7860  -10.2700 C.3    56  PHE56       0.0534
     14  CG        23.3390    4.4520   -8.8230 C.ar   56  PHE56      -0.0203
     15  CD1       24.4200    3.7080   -8.4060 C.ar   56  PHE56      -0.0042
     16  CD2       22.4110    4.8850   -7.8720 C.ar   56  PHE56      -0.0042
     17  CE1       24.5870    3.3940   -7.0580 C.ar   56  PHE56      -0.0003
     18  CE2       22.5710    4.5750   -6.5310 C.ar   56  PHE56      -0.0003
     19  CZ        23.6660    3.8250   -6.1250 C.ar   56  PHE56      -0.0000
     20  N         29.1690    9.3250   -2.0490 N.3    98  GLY98      -0.1210
     21  CA        29.0680    7.8840   -2.2960 C.3    98  GLY98       0.1956
     22  C         29.0190    7.5050   -3.7820 C.2    98  GLY98       0.2612
     23  O         29.0280    8.3620   -4.6800 O.2    98  GLY98      -0.2717
     24  N         28.9700    6.1970   -4.0120 N.am   99  LEU99      -0.1965
     25  CA        28.8350    5.6210   -5.3280 C.3    99  LEU99       0.1728
     26  C         27.4660    5.8690   -5.9340 C.2    99  LEU99       0.2617
     27  O         26.4450    5.6460   -5.3030 O.2    99  LEU99      -0.2715
     28  CB        29.0550    4.1110   -5.2390 C.3    99  LEU99       0.0311
     29  CG        29.0110    3.3170   -6.5260 C.3    99  LEU99       0.0022
     30  CD1       30.1480    3.7130   -7.4520 C.3    99  LEU99       0.0001
     31  CD2       29.0840    1.8490   -6.1510 C.3    99  LEU99       0.0001
     32  N         27.4540    6.3340   -7.1720 N.am  100  GLY100     -0.1940
     33  CA        26.2200    6.7070   -7.8390 C.3   100  GLY100      0.2014
     34  C         25.6700    8.0630   -7.4180 C.2   100  GLY100      0.2638
     35  O         24.6230    8.4810   -7.9370 O.2   100  GLY100     -0.2714
     36  N         26.3610    8.7430   -6.4920 N.am  101  ALA101     -0.1977
     37  CA        26.0050   10.1030   -6.0840 C.3   101  ALA101      0.1597
     38  C         26.8410   11.0880   -6.9040 C.2   101  ALA101      0.2287
     39  O         27.4560   10.7020   -7.8860 O.2   101  ALA101     -0.2864
     40  CB        26.2490   10.2700   -4.6060 C.3   101  ALA101      0.0319
     41  N         24.4770   16.2250   -3.6570 N.3   105  LEU105     -0.1231
     42  CA        23.5150   15.3790   -2.9740 C.3   105  LEU105      0.1693
     43  C         23.7410   15.2120   -1.4680 C.2   105  LEU105      0.2592
     44  O         23.1100   14.3680   -0.8130 O.2   105  LEU105     -0.2718
     45  CB        23.4770   14.0120   -3.6370 C.3   105  LEU105      0.0284
     46  CG        22.9520   13.9770   -5.0830 C.3   105  LEU105      0.0019
     47  CD1       22.8610   12.5180   -5.5120 C.3   105  LEU105      0.0001
     48  CD2       21.6120   14.6530   -5.2260 C.3   105  LEU105      0.0001
     49  N         24.6340   16.0090   -0.9260 N.am  106  TYR106     -0.1976
     50  CA        24.8580   16.0190    0.5140 C.3   106  TYR106      0.1639
     51  C         24.8070   17.4470    1.0530 C.2   106  TYR106      0.2290
     52  O         25.6300   17.8420    1.8800 O.2   106  TYR106     -0.2864
     53  CB        26.1860   15.3670    0.7860 C.3   106  TYR106      0.0560
     54  CG        26.2430   13.9020    0.3950 C.ar  106  TYR106     -0.0198
     55  CD1       25.9420   12.9090    1.3260 C.ar  106  TYR106     -0.0009
     56  CD2       26.5970   13.5140   -0.9070 C.ar  106  TYR106     -0.0009
     57  CE1       25.9890   11.5610    0.9820 C.ar  106  TYR106      0.0417
     58  CE2       26.6460   12.1710   -1.2550 C.ar  106  TYR106      0.0417
     59  CZ        26.3450   11.1890   -0.3170 C.ar  106  TYR106      0.1957
     60  OH        26.4040    9.8360   -0.6950 O.3   106  TYR106     -0.2866
     61  N         36.0180   -6.0490   -9.3650 N.3   160  GLU160     -0.1245
     62  CA        35.5000   -5.3260   -8.1850 C.3   160  GLU160      0.1567
     63  C         36.6150   -4.9150   -7.2310 C.2   160  GLU160      0.2260
     64  O         36.7530   -3.7370   -6.9290 O.2   160  GLU160     -0.2867
     65  CB        34.4060   -6.1280   -7.4550 C.3   160  GLU160      0.0388
     66  CG        33.0940   -6.1710   -8.2310 C.3   160  GLU160      0.1160
     67  CD        31.9480   -6.8550   -7.4880 C.2   160  GLU160      0.3649
     68  OE1       30.9440   -6.1560   -7.2100 O.co2 160  GLU160     -0.2457
     69  OE2       32.0290   -8.0690   -7.1810 O.co2 160  GLU160     -0.2457
     70  N         37.7180   -0.9530   -7.5460 N.3   164  ARG164     -0.1245
     71  CA        37.2800   -0.1330   -6.3910 C.3   164  ARG164      0.1563
     72  C         38.4600    0.4650   -5.6400 C.2   164  ARG164      0.2260
     73  O         38.3510    1.5560   -5.0810 O.2   164  ARG164     -0.2867
     74  CB        36.3850   -0.8920   -5.4000 C.3   164  ARG164      0.0307
     75  CG        35.0100   -1.3030   -5.9290 C.3   164  ARG164      0.0489
     76  CD        34.1850   -0.1660   -6.4980 C.3   164  ARG164      0.2205
     77  NE        32.9000   -0.6330   -6.9980 N.pl3 164  ARG164     -0.0865
     78  CZ        32.1270    0.0090   -7.8660 C.cat 164  ARG164      0.5346
     79  NH1       32.4750    1.1840   -8.3720 N.pl3 164  ARG164      0.1354
     80  NH2       30.9860   -0.5390   -8.2290 N.pl3 164  ARG164      0.1354
     81  N         30.5400    9.8910    2.8510 N.3   218  HIS218     -0.1226
     82  CA        29.5150    8.8800    3.0010 C.3   218  HIS218      0.1752
     83  C         29.8100    7.6490    2.1500 C.2   218  HIS218      0.2597
     84  O         30.0210    7.7560    0.9230 O.2   218  HIS218     -0.2718
     85  CB        28.1400    9.4300    2.5870 C.3   218  HIS218      0.0759
     86  CG        27.0480    8.3860    2.5900 C.ar  218  HIS218      0.0818
     87  ND1       26.1360    8.2530    1.5670 N.ar  218  HIS218     -0.2268
     88  CD2       26.7310    7.4300    3.4970 C.ar  218  HIS218      0.1154
     89  CE1       25.3050    7.2650    1.8390 C.ar  218  HIS218      0.1986
     90  NE2       25.6440    6.7460    3.0050 N.ar  218  HIS218     -0.2212
     91  N         29.8200    6.4920    2.8050 N.am  219  SER219     -0.1938
     92  CA        29.8690    5.1880    2.1360 C.3   219  SER219      0.2055
     93  C         31.2120    5.0100    1.3760 C.2   219  SER219      0.2643
     94  O         32.2670    4.8880    2.0310 O.2   219  SER219     -0.2714
     95  CB        28.6070    4.9850    1.2900 C.3   219  SER219      0.2130
     96  OG        28.3800    3.6060    1.0100 O.3   219  SER219     -0.2179
     97  N         31.2010    4.9950    0.0470 N.am  220  PHE220     -0.1973
     98  CA        32.4430    5.0850   -0.7240 C.3   220  PHE220      0.1639
     99  C         33.2620    6.3050   -0.2650 C.2   220  PHE220      0.2290
    100  O         34.4770    6.2550   -0.1640 O.2   220  PHE220     -0.2864
    101  CB        32.1470    5.2490   -2.2320 C.3   220  PHE220      0.0560
    102  CG        33.1680    4.6310   -3.1610 C.ar  220  PHE220     -0.0200
    103  CD1       34.4560    4.2470   -2.7430 C.ar  220  PHE220     -0.0042
    104  CD2       32.8280    4.4310   -4.5010 C.ar  220  PHE220     -0.0042
    105  CE1       35.3720    3.6770   -3.6420 C.ar  220  PHE220     -0.0003
    106  CE2       33.7420    3.8640   -5.3930 C.ar  220  PHE220     -0.0003
    107  CZ        35.0150    3.4860   -4.9640 C.ar  220  PHE220     -0.0000
    108  N         31.7440    2.3400    3.6020 N.3   244  TRP244     -0.1241
    109  CA        31.8360    1.0900    2.8730 C.3   244  TRP244      0.1605
    110  C         33.3230    0.8090    2.7240 C.2   244  TRP244      0.2264
    111  O         33.9930    1.4560    1.9300 O.2   244  TRP244     -0.2867
    112  CB        31.1410    1.2300    1.5030 C.3   244  TRP244      0.0550
    113  CG        31.1950    0.0200    0.6540 C.ar  244  TRP244      0.0003
    114  CD1       30.8830   -1.2460    1.0310 C.ar  244  TRP244      0.0946
    115  CD2       31.5840   -0.0590   -0.7320 C.ar  244  TRP244      0.0152
    116  NE1       31.0500   -2.1030   -0.0200 N.ar  244  TRP244     -0.2442
    117  CE2       31.4800   -1.4040   -1.1150 C.ar  244  TRP244      0.0810
    118  CE3       32.0090    0.8770   -1.6830 C.ar  244  TRP244      0.0012
    119  CZ2       31.7870   -1.8510   -2.4180 C.ar  244  TRP244      0.0191
    120  CZ3       32.3150    0.4350   -2.9810 C.ar  244  TRP244      0.0001
    121  CH2       32.2000   -0.9170   -3.3310 C.ar  244  TRP244      0.0015
    122  N         22.4590   -0.7460    7.6830 N.3   268  PHE268     -0.1241
    123  CA        23.4330   -0.9890    6.6260 C.3   268  PHE268      0.1605
    124  C         24.5140   -1.9820    7.0060 C.2   268  PHE268      0.2264
    125  O         24.8670   -2.8290    6.2080 O.2   268  PHE268     -0.2867
    126  CB        24.1050    0.3180    6.1920 C.3   268  PHE268      0.0534
    127  CG        25.1790    0.1280    5.1460 C.ar  268  PHE268     -0.0203
    128  CD1       24.8400   -0.1900    3.8280 C.ar  268  PHE268     -0.0042
    129  CD2       26.5370    0.2660    5.4740 C.ar  268  PHE268     -0.0042
    130  CE1       25.8240   -0.3670    2.8600 C.ar  268  PHE268     -0.0003
    131  CE2       27.5220    0.0900    4.5070 C.ar  268  PHE268     -0.0003
    132  CZ        27.1630   -0.2270    3.2010 C.ar  268  PHE268     -0.0000
    133  N         21.1410    3.2870    5.4670 N.3   297  HIS297     -0.1226
    134  CA        22.2770    3.8440    4.7190 C.3   297  HIS297      0.1752
    135  C         21.9870    5.2530    4.1270 C.2   297  HIS297      0.2595
    136  O         22.8390    6.1490    4.1520 O.2   297  HIS297     -0.2718
    137  CB        22.6860    2.8860    3.5900 C.3   297  HIS297      0.0759
    138  CG        24.0960    3.0650    3.1070 C.ar  297  HIS297      0.0818
    139  ND1       25.1640    3.2270    3.9630 N.ar  297  HIS297     -0.2268
    140  CD2       24.6090    3.1050    1.8510 C.ar  297  HIS297      0.1154
    141  CE1       26.2740    3.3600    3.2590 C.ar  297  HIS297      0.1986
    142  NE2       25.9630    3.2900    1.9750 N.ar  297  HIS297     -0.2212
    143  N         20.7760    5.4300    3.6010 N.am  298  GLN298     -0.1979
    144  CA        20.3970    6.6710    2.9350 C.3   298  GLN298      0.1601
    145  C         20.0870    7.8830    3.8390 C.2   298  GLN298      0.2287
    146  O         19.9160    8.9960    3.3130 O.2   298  GLN298     -0.2864
    147  CB        19.2530    6.3890    1.9320 C.3   298  GLN298      0.0394
    148  CG        19.7230    5.6520    0.6770 C.3   298  GLN298      0.0908
    149  CD        20.8690    6.3680   -0.0460 C.2   298  GLN298      0.2608
    150  OE1       20.8390    7.5850   -0.2330 O.2   298  GLN298     -0.2717
    151  NE2       21.8780    5.6190   -0.4500 N.am  298  GLN298     -0.0878
    152  N         22.2200   11.0230    3.1580 N.3   301  ALA301     -0.1231
    153  CA        22.1740   11.7260    1.8700 C.3   301  ALA301      0.1694
    154  C         20.8700   12.4350    1.6590 C.2   301  ALA301      0.2592
    155  O         19.8950   12.1780    2.3630 O.2   301  ALA301     -0.2718
    156  CB        22.4480   10.7530    0.7360 C.3   301  ALA301      0.0304
    157  N         20.8550   13.3390    0.6740 N.am  302  ASP302     -0.1960
    158  CA        19.7340   14.2690    0.5040 C.3   302  ASP302      0.1840
    159  C         18.4140   13.6240    0.0540 C.2   302  ASP302      0.2622
    160  O         17.3560   14.1900    0.2890 O.2   302  ASP302     -0.2715
    161  CB        20.0830   15.4090   -0.4520 C.3   302  ASP302      0.1450
    162  CG        21.0280   16.4570    0.1530 C.2   302  ASP302      0.3671
    163  OD1       21.2960   16.4370    1.3880 O.co2 302  ASP302     -0.2456
    164  OD2       21.5210   17.3270   -0.6330 O.co2 302  ASP302     -0.2456
    165  N         18.4620   12.4570   -0.5840 N.am  303  PHE303     -0.1974
    166  CA        17.2400   11.8390   -1.1020 C.3   303  PHE303      0.1639
    167  C         16.3400   11.3100    0.0180 C.2   303  PHE303      0.2290
    168  O         15.1970   11.0010   -0.2380 O.2   303  PHE303     -0.2864
    169  CB        17.5520   10.7610   -2.1340 C.3   303  PHE303      0.0560
    170  CG        17.3830   11.2100   -3.5480 C.ar  303  PHE303     -0.0200
    171  CD1       16.1290   11.3510   -4.0750 C.ar  303  PHE303     -0.0042
    172  CD2       18.4740   11.4870   -4.3410 C.ar  303  PHE303     -0.0042
    173  CE1       15.9420   11.7610   -5.3690 C.ar  303  PHE303     -0.0003
    174  CE2       18.3150   11.8980   -5.6400 C.ar  303  PHE303     -0.0003
    175  CZ        17.0430   12.0360   -6.1580 C.ar  303  PHE303     -0.0000
@<TRIPOS>BOND
     1     1     2    1
     2     9    10    1
     3     3     2    1
     4     3     4    2
     5     2     5    1
     6    10    11    1
     7    10    13    1
     8     5     6    1
     9    11    12    2
    10    13    14    1
    11     6     7    1
    12     6     8    1
    13    61    62    1
    14    14    15   ar
    15    14    16   ar
    16    15    17   ar
    17    79    78    1
    18    66    67    1
    19    66    65    1
    20    80    78    1
    21    62    65    1
    22    62    63    1
    23    35    34    2
    24    39    38    2
    25    16    18   ar
    26    78    77    2
    27    33    34    1
    28    33    32    1
    29    70    71    1
    30    67    68   ar
    31    67    69   ar
    32    30    29    1
    33    34    36   am
    34    63    64    2
    35    32    26   am
    36    17    19   ar
    37    77    76    1
    38    38    37    1
    39    18    19   ar
    40    29    31    1
    41    29    28    1
    42    76    75    1
    43    36    37    1
    44    71    72    1
    45    71    74    1
    46   175   174   ar
    47   175   173   ar
    48    37    40    1
    49    26    25    1
    50    26    27    2
    51    75    74    1
    52   174   172   ar
    53    72    73    2
    54    47    46    1
    55   106   107   ar
    56   106   104   ar
    57   173   171   ar
    58    25    28    1
    59    25    24    1
    60    48    46    1
    61    46    45    1
    62   107   105   ar
    63    23    22    2
    64   104   102   ar
    65   172   170   ar
    66   171   170   ar
    67    24    22   am
    68    22    21    1
    69    41    42    1
    70   105   103   ar
    71    45    42    1
    72   170   169    1
    73   121   120   ar
    74   121   119   ar
    75   102   103   ar
    76   102   101    1
    77   120   118   ar
    78    42    43    1
    79   119   117   ar
    80    21    20    1
    81   101    98    1
    82   169   166    1
    83   118   115   ar
    84    43    49   am
    85    43    44    2
    86    58    56   ar
    87    58    59   ar
    88   117   115   ar
    89   117   116   ar
    90   166   165    1
    91   166   167    1
    92    49    50    1
    93    56    54   ar
    94   115   113   ar
    95    98    99    1
    96    98    97    1
    97    60    59    1
    98   164   162   ar
    99   165   159   am
   100   161   162    1
   101   161   158    1
   102   151   149   am
   103    59    57   ar
   104    99   100    2
   105   168   167    2
   106   150   149    2
   107   149   148    1
   108   116   114   ar
   109    97    93   am
   110   159   160    2
   111   159   158    1
   112   162   163   ar
   113    54    53    1
   114    54    55   ar
   115   158   157    1
   116    50    53    1
   117    50    51    1
   118   113   114   ar
   119   113   112    1
   120   157   154   am
   121   148   147    1
   122   156   153    1
   123    84    83    2
   124    57    55   ar
   125    96    95    1
   126    51    52    2
   127    95    92    1
   128    93    94    2
   129    93    92    1
   130   112   109    1
   131    87    89   ar
   132    87    86   ar
   133   154   153    1
   134   154   155    2
   135    89    90   ar
   136   140   142   ar
   137   140   138   ar
   138   153   152    1
   139   111   110    2
   140   147   144    1
   141   142   141   ar
   142    92    91    1
   143    83    91   am
   144    83    82    1
   145    85    86    1
   146    85    82    1
   147    86    88   ar
   148   110   109    1
   149    81    82    1
   150   130   132   ar
   151   130   128   ar
   152   109   108    1
   153   144   143    1
   154   144   145    1
   155    90    88   ar
   156   138   137    1
   157   138   139   ar
   158   132   131   ar
   159   141   139   ar
   160   146   145    2
   161   137   134    1
   162   143   135   am
   163   128   127   ar
   164   135   136    2
   165   135   134    1
   166   131   129   ar
   167   134   133    1
   168   127   129   ar
   169   127   126    1
   170   126   123    1
   171   125   124    2
   172   123   124    1
   173   123   122    1
