@<TRIPOS>MOLECULE
tmp/5lz8A00.pdb
 167 167 0 0 0
SMALL
GASTEIGER

@<TRIPOS>ATOM
      1  N         21.8620    9.3380  -12.7490 N.3    53  LEU53      -0.1245
      2  CA        21.2090    8.5500  -11.6900 C.3    53  LEU53       0.1561
      3  C         20.3810    7.3900  -12.2510 C.2    53  LEU53       0.2260
      4  O         20.2610    6.3590  -11.6100 O.2    53  LEU53      -0.2867
      5  CB        20.3400    9.4230  -10.7920 C.3    53  LEU53       0.0270
      6  CG        21.0690   10.4290   -9.8870 C.3    53  LEU53       0.0019
      7  CD1       20.1800   11.6420   -9.6330 C.3    53  LEU53       0.0001
      8  CD2       21.5130    9.8300   -8.5610 C.3    53  LEU53       0.0001
      9  N         22.8300    4.7160  -12.8690 N.3    56  PHE56      -0.1241
     10  CA        23.2090    4.1990  -11.5420 C.3    56  PHE56       0.1605
     11  C         22.1740    3.2330  -10.9730 C.2    56  PHE56       0.2264
     12  O         22.5110    2.1360  -10.5180 O.2    56  PHE56      -0.2867
     13  CB        23.4010    5.3270  -10.5440 C.3    56  PHE56       0.0534
     14  CG        23.6040    4.8410   -9.1450 C.ar   56  PHE56      -0.0203
     15  CD1       24.6680    4.0060   -8.8480 C.ar   56  PHE56      -0.0042
     16  CD2       22.7370    5.2110   -8.1190 C.ar   56  PHE56      -0.0042
     17  CE1       24.8630    3.5480   -7.5480 C.ar   56  PHE56      -0.0003
     18  CE2       22.9240    4.7610   -6.8320 C.ar   56  PHE56      -0.0003
     19  CZ        23.9890    3.9290   -6.5450 C.ar   56  PHE56      -0.0000
     20  N         29.2900    9.5460   -2.2310 N.3    98  GLY98      -0.1210
     21  CA        29.2300    8.1210   -2.5550 C.3    98  GLY98       0.1956
     22  C         29.2330    7.7790   -4.0550 C.2    98  GLY98       0.2612
     23  O         29.2160    8.6480   -4.9490 O.2    98  GLY98      -0.2717
     24  N         29.2550    6.4760   -4.3030 N.am   99  LEU99      -0.1965
     25  CA        29.0980    5.8960   -5.6210 C.3    99  LEU99       0.1728
     26  C         27.6780    6.1660   -6.0980 C.2    99  LEU99       0.2617
     27  O         26.7270    6.0310   -5.3310 O.2    99  LEU99      -0.2715
     28  CB        29.3280    4.3860   -5.5260 C.3    99  LEU99       0.0311
     29  CG        29.2040    3.5380   -6.7800 C.3    99  LEU99       0.0022
     30  CD1       30.2420    3.9230   -7.8310 C.3    99  LEU99       0.0001
     31  CD2       29.3270    2.0740   -6.4190 C.3    99  LEU99       0.0001
     32  N         27.5460    6.5470   -7.3660 N.am  100  GLY100     -0.1940
     33  CA        26.2640    6.9480   -7.9380 C.3   100  GLY100      0.2014
     34  C         25.7210    8.3160   -7.5740 C.2   100  GLY100      0.2638
     35  O         24.6530    8.7180   -8.0920 O.2   100  GLY100     -0.2714
     36  N         26.4420    9.0210   -6.6990 N.am  101  ALA101     -0.1977
     37  CA        26.0780   10.3440   -6.2090 C.3   101  ALA101      0.1597
     38  C         26.9250   11.3690   -6.9280 C.2   101  ALA101      0.2287
     39  O         27.5520   11.0580   -7.9190 O.2   101  ALA101     -0.2864
     40  CB        26.2790   10.4290   -4.6820 C.3   101  ALA101      0.0319
     41  N         24.6250   16.3630   -3.3470 N.3   105  LEU105     -0.1231
     42  CA        23.6390   15.4860   -2.7060 C.3   105  LEU105      0.1693
     43  C         23.8940   15.2540   -1.2120 C.2   105  LEU105      0.2592
     44  O         23.3050   14.3700   -0.6180 O.2   105  LEU105     -0.2718
     45  CB        23.5640   14.1670   -3.4420 C.3   105  LEU105      0.0284
     46  CG        23.1710   14.1760   -4.9240 C.3   105  LEU105      0.0019
     47  CD1       23.1570   12.7380   -5.4160 C.3   105  LEU105      0.0001
     48  CD2       21.7820   14.7610   -5.1450 C.3   105  LEU105      0.0001
     49  N         24.7710   16.0550   -0.6190 N.am  106  TYR106     -0.1976
     50  CA        25.0370   16.0040    0.8210 C.3   106  TYR106      0.1639
     51  C         24.9410   17.4140    1.3930 C.2   106  TYR106      0.2290
     52  O         25.7790   17.8430    2.1830 O.2   106  TYR106     -0.2864
     53  CB        26.4120   15.3460    1.0780 C.3   106  TYR106      0.0560
     54  CG        26.4140   13.8990    0.6270 C.ar  106  TYR106     -0.0198
     55  CD1       26.0960   12.8680    1.5030 C.ar  106  TYR106     -0.0009
     56  CD2       26.7400   13.5610   -0.7120 C.ar  106  TYR106     -0.0009
     57  CE1       26.1020   11.5310    1.0630 C.ar  106  TYR106      0.0417
     58  CE2       26.7480   12.2510   -1.1470 C.ar  106  TYR106      0.0417
     59  CZ        26.4320   11.2360   -0.2700 C.ar  106  TYR106      0.1957
     60  OH        26.4490    9.9470   -0.7380 O.3   106  TYR106     -0.2866
     61  N         30.6450    9.8180    2.8030 N.3   218  HIS218     -0.1226
     62  CA        29.6230    8.7880    2.8920 C.3   218  HIS218      0.1752
     63  C         29.9640    7.6050    2.0100 C.2   218  HIS218      0.2597
     64  O         30.1640    7.7720    0.7930 O.2   218  HIS218     -0.2718
     65  CB        28.2890    9.3340    2.3890 C.3   218  HIS218      0.0759
     66  CG        27.1720    8.3350    2.3950 C.ar  218  HIS218      0.0818
     67  ND1       26.3800    8.0970    1.2940 N.ar  218  HIS218     -0.2268
     68  CD2       26.7160    7.5150    3.3720 C.ar  218  HIS218      0.1154
     69  CE1       25.4800    7.1730    1.5870 C.ar  218  HIS218      0.1986
     70  NE2       25.6630    6.8020    2.8450 N.ar  218  HIS218     -0.2212
     71  N         30.0240    6.4270    2.6320 N.am  219  SER219     -0.1938
     72  CA        30.1060    5.1310    1.9200 C.3   219  SER219      0.2055
     73  C         31.4360    5.0750    1.1190 C.2   219  SER219      0.2643
     74  O         32.5020    5.0280    1.7520 O.2   219  SER219     -0.2714
     75  CB        28.8340    4.9020    1.0960 C.3   219  SER219      0.2130
     76  OG        28.6840    3.5280    0.7550 O.3   219  SER219     -0.2179
     77  N         31.4100    5.0810   -0.2170 N.am  220  PHE220     -0.1973
     78  CA        32.6580    5.1300   -0.9900 C.3   220  PHE220      0.1639
     79  C         33.4980    6.3430   -0.5360 C.2   220  PHE220      0.2290
     80  O         34.6990    6.2770   -0.4640 O.2   220  PHE220     -0.2864
     81  CB        32.3450    5.2430   -2.4990 C.3   220  PHE220      0.0560
     82  CG        33.4210    4.7180   -3.4350 C.ar  220  PHE220     -0.0200
     83  CD1       34.6960    4.3590   -3.0080 C.ar  220  PHE220     -0.0042
     84  CD2       33.1200    4.5860   -4.7970 C.ar  220  PHE220     -0.0042
     85  CE1       35.6440    3.8830   -3.9070 C.ar  220  PHE220     -0.0003
     86  CE2       34.0510    4.1170   -5.6910 C.ar  220  PHE220     -0.0003
     87  CZ        35.3250    3.7600   -5.2510 C.ar  220  PHE220     -0.0000
     88  N         32.0550    2.2980    3.2490 N.3   244  TRP244     -0.1241
     89  CA        32.2240    1.0940    2.4550 C.3   244  TRP244      0.1605
     90  C         33.7140    0.7720    2.3260 C.2   244  TRP244      0.2264
     91  O         34.4280    1.4930    1.6470 O.2   244  TRP244     -0.2867
     92  CB        31.6650    1.3420    1.0750 C.3   244  TRP244      0.0550
     93  CG        31.6410    0.1700    0.1880 C.ar  244  TRP244      0.0003
     94  CD1       31.3210   -1.0950    0.5260 C.ar  244  TRP244      0.0946
     95  CD2       31.9530    0.1470   -1.2130 C.ar  244  TRP244      0.0152
     96  NE1       31.4080   -1.9120   -0.5550 N.ar  244  TRP244     -0.2442
     97  CE2       31.7950   -1.1810   -1.6460 C.ar  244  TRP244      0.0810
     98  CE3       32.3480    1.1190   -2.1340 C.ar  244  TRP244      0.0012
     99  CZ2       32.0180   -1.5850   -2.9810 C.ar  244  TRP244      0.0191
    100  CZ3       32.5760    0.7270   -3.4800 C.ar  244  TRP244      0.0001
    101  CH2       32.4060   -0.6210   -3.8810 C.ar  244  TRP244      0.0015
    102  N         22.7960   -1.0080    7.2950 N.3   268  PHE268     -0.1241
    103  CA        23.7730   -1.1730    6.1980 C.3   268  PHE268      0.1605
    104  C         24.9020   -2.1390    6.5160 C.2   268  PHE268      0.2264
    105  O         25.3310   -2.8730    5.6380 O.2   268  PHE268     -0.2867
    106  CB        24.4130    0.1480    5.7500 C.3   268  PHE268      0.0534
    107  CG        25.4640   -0.0410    4.6830 C.ar  268  PHE268     -0.0203
    108  CD1       25.0980   -0.2980    3.3640 C.ar  268  PHE268     -0.0042
    109  CD2       26.8280    0.0330    4.9940 C.ar  268  PHE268     -0.0042
    110  CE1       26.0740   -0.4740    2.3770 C.ar  268  PHE268     -0.0003
    111  CE2       27.7980   -0.1420    4.0180 C.ar  268  PHE268     -0.0003
    112  CZ        27.4320   -0.3950    2.7110 C.ar  268  PHE268     -0.0000
    113  N         27.8050   -4.8240    7.9980 N.3   270  TYR270     -0.1241
    114  CA        27.9500   -6.2670    7.9510 C.3   270  TYR270      0.1605
    115  C         29.3440   -6.6920    8.3930 C.2   270  TYR270      0.2264
    116  O         30.2730   -5.8920    8.3100 O.2   270  TYR270     -0.2867
    117  CB        27.6360   -6.7890    6.5540 C.3   270  TYR270      0.0534
    118  CG        28.2890   -6.0290    5.4240 C.ar  270  TYR270     -0.0201
    119  CD1       29.4650   -6.4960    4.8410 C.ar  270  TYR270     -0.0009
    120  CD2       27.7320   -4.8540    4.9400 C.ar  270  TYR270     -0.0009
    121  CE1       30.0670   -5.8100    3.8080 C.ar  270  TYR270      0.0417
    122  CE2       28.3210   -4.1600    3.9100 C.ar  270  TYR270      0.0417
    123  CZ        29.4990   -4.6470    3.3420 C.ar  270  TYR270      0.1957
    124  OH        30.1260   -3.9880    2.3100 O.3   270  TYR270     -0.2866
    125  N         21.4290    3.1150    5.2450 N.3   297  HIS297     -0.1226
    126  CA        22.5520    3.6990    4.4760 C.3   297  HIS297      0.1752
    127  C         22.2870    5.0710    3.8380 C.2   297  HIS297      0.2595
    128  O         23.1760    5.9180    3.7890 O.2   297  HIS297     -0.2718
    129  CB        22.9710    2.7390    3.3440 C.3   297  HIS297      0.0759
    130  CG        24.3850    2.9200    2.8700 C.ar  297  HIS297      0.0818
    131  ND1       25.4460    3.0820    3.7330 N.ar  297  HIS297     -0.2268
    132  CD2       24.9030    2.9620    1.6180 C.ar  297  HIS297      0.1154
    133  CE1       26.5570    3.2150    3.0290 C.ar  297  HIS297      0.1986
    134  NE2       26.2520    3.1460    1.7430 N.ar  297  HIS297     -0.2212
    135  N         21.0710    5.2830    3.3520 N.am  298  GLN298     -0.1979
    136  CA        20.7130    6.5450    2.6930 C.3   298  GLN298      0.1601
    137  C         20.3580    7.7150    3.6460 C.2   298  GLN298      0.2287
    138  O         20.2270    8.8630    3.2060 O.2   298  GLN298     -0.2864
    139  CB        19.5950    6.2800    1.6690 C.3   298  GLN298      0.0394
    140  CG        20.0790    5.5920    0.3930 C.3   298  GLN298      0.0908
    141  CD        21.2560    6.3080   -0.2460 C.2   298  GLN298      0.2608
    142  OE1       21.2320    7.5250   -0.4200 O.2   298  GLN298     -0.2717
    143  NE2       22.2890    5.5650   -0.5950 N.am  298  GLN298     -0.0878
    144  N         22.5080   10.7860    3.1430 N.3   301  ALA301     -0.1231
    145  CA        22.4630   11.5790    1.9160 C.3   301  ALA301      0.1694
    146  C         21.1450   12.3130    1.7890 C.2   301  ALA301      0.2592
    147  O         20.2130   12.0180    2.4990 O.2   301  ALA301     -0.2718
    148  CB        22.7240   10.6980    0.6910 C.3   301  ALA301      0.0304
    149  N         21.0800   13.2730    0.8750 N.am  302  ASP302     -0.1960
    150  CA        19.9260   14.2170    0.7910 C.3   302  ASP302      0.1840
    151  C         18.6160   13.6110    0.3310 C.2   302  ASP302      0.2622
    152  O         17.5600   14.1430    0.6310 O.2   302  ASP302     -0.2715
    153  CB        20.2320   15.3830   -0.1540 C.3   302  ASP302      0.1450
    154  CG        21.1560   16.4170    0.4420 C.2   302  ASP302      0.3671
    155  OD1       21.3710   16.4500    1.6810 O.co2 302  ASP302     -0.2456
    156  OD2       21.6930   17.2310   -0.3570 O.co2 302  ASP302     -0.2456
    157  N         18.6680   12.5060   -0.3980 N.am  303  PHE303     -0.1974
    158  CA        17.4450   11.8930   -0.9150 C.3   303  PHE303      0.1639
    159  C         16.5560   11.3570    0.1770 C.2   303  PHE303      0.2290
    160  O         15.3760   11.1820   -0.0540 O.2   303  PHE303     -0.2864
    161  CB        17.7210   10.8130   -1.9370 C.3   303  PHE303      0.0560
    162  CG        17.5190   11.2560   -3.3480 C.ar  303  PHE303     -0.0200
    163  CD1       16.2400   11.3640   -3.8640 C.ar  303  PHE303     -0.0042
    164  CD2       18.5980   11.5660   -4.1610 C.ar  303  PHE303     -0.0042
    165  CE1       16.0300   11.7730   -5.1740 C.ar  303  PHE303     -0.0003
    166  CE2       18.3990   11.9780   -5.4790 C.ar  303  PHE303     -0.0003
    167  CZ        17.1050   12.0830   -5.9870 C.ar  303  PHE303     -0.0000
@<TRIPOS>BOND
     1     9    10    1
     2     1     2    1
     3     3     2    1
     4     3     4    2
     5     2     5    1
     6    10    11    1
     7    10    13    1
     8    11    12    2
     9     5     6    1
    10    13    14    1
    11     6     7    1
    12     6     8    1
    13    14    15   ar
    14    14    16   ar
    15    15    17   ar
    16    16    18   ar
    17    35    34    2
    18    33    34    1
    19    33    32    1
    20    39    38    2
    21    30    29    1
    22    34    36   am
    23    17    19   ar
    24    32    26   am
    25    38    37    1
    26    18    19   ar
    27    29    31    1
    28    29    28    1
    29    36    37    1
    30    37    40    1
    31    26    25    1
    32    26    27    2
    33   167   166   ar
    34   167   165   ar
    35    86    87   ar
    36    86    84   ar
    37    25    28    1
    38    25    24    1
    39   166   164   ar
    40    47    46    1
    41    87    85   ar
    42   165   163   ar
    43    48    46    1
    44    23    22    2
    45    46    45    1
    46    84    82   ar
    47    24    22   am
    48   164   162   ar
    49    22    21    1
    50    85    83   ar
    51   101   100   ar
    52   101    99   ar
    53   163   162   ar
    54   100    98   ar
    55    45    42    1
    56    82    83   ar
    57    82    81    1
    58   162   161    1
    59    41    42    1
    60    99    97   ar
    61    42    43    1
    62    21    20    1
    63    81    78    1
    64    98    95   ar
    65   161   158    1
    66    97    95   ar
    67    97    96   ar
    68    95    93   ar
    69    43    49   am
    70    43    44    2
    71    58    56   ar
    72    58    59   ar
    73    78    79    1
    74    78    77    1
    75   158   157    1
    76   158   159    1
    77    60    59    1
    78    56    54   ar
    79    49    50    1
    80   143   141   am
    81    96    94   ar
    82    79    80    2
    83   142   141    2
    84   157   151   am
    85   156   154   ar
    86    59    57   ar
    87   141   140    1
    88    77    73   am
    89   153   154    1
    90   153   150    1
    91   160   159    2
    92    93    94   ar
    93    93    92    1
    94   151   152    2
    95   151   150    1
    96   140   139    1
    97   154   155   ar
    98    54    53    1
    99    54    55   ar
   100   148   145    1
   101    76    75    1
   102   150   149    1
   103    64    63    2
   104    50    53    1
   105    50    51    1
   106   149   146   am
   107    57    55   ar
   108    92    89    1
   109    75    72    1
   110    73    74    2
   111    73    72    1
   112    67    69   ar
   113    67    66   ar
   114    51    52    2
   115    69    70   ar
   116   132   134   ar
   117   132   130   ar
   118    91    90    2
   119   139   136    1
   120   134   133   ar
   121   146   145    1
   122   146   147    2
   123   145   144    1
   124    72    71    1
   125    63    71   am
   126    63    62    1
   127   124   123    1
   128    90    89    1
   129   110   112   ar
   130   110   108   ar
   131    65    66    1
   132    65    62    1
   133    66    68   ar
   134    89    88    1
   135   136   135    1
   136   136   137    1
   137   112   111   ar
   138    61    62    1
   139    70    68   ar
   140   130   129    1
   141   130   131   ar
   142   133   131   ar
   143   138   137    2
   144   123   121   ar
   145   123   122   ar
   146   129   126    1
   147   135   127   am
   148   108   107   ar
   149   128   127    2
   150   121   119   ar
   151   127   126    1
   152   122   120   ar
   153   111   109   ar
   154   126   125    1
   155   107   109   ar
   156   107   106    1
   157   119   118   ar
   158   120   118   ar
   159   118   117    1
   160   105   104    2
   161   106   103    1
   162   103   104    1
   163   103   102    1
   164   117   114    1
   165   114   113    1
   166   114   115    1
   167   116   115    2
