@<TRIPOS>MOLECULE
tmp/5lz9A00.pdb
 167 167 0 0 0
SMALL
GASTEIGER

@<TRIPOS>ATOM
      1  N         21.8860    8.8640  -12.7190 N.3    53  LEU53      -0.1245
      2  CA        21.1730    8.1500  -11.6310 C.3    53  LEU53       0.1561
      3  C         20.3590    6.9570  -12.1650 C.2    53  LEU53       0.2260
      4  O         20.2000    5.9580  -11.4780 O.2    53  LEU53      -0.2867
      5  CB        20.2770    9.1020  -10.8200 C.3    53  LEU53       0.0270
      6  CG        21.0220   10.0360   -9.8520 C.3    53  LEU53       0.0019
      7  CD1       20.1730   11.2320   -9.4440 C.3    53  LEU53       0.0001
      8  CD2       21.5020    9.2740   -8.6300 C.3    53  LEU53       0.0001
      9  N         22.7680    4.1550  -12.8530 N.3    56  PHE56      -0.1241
     10  CA        23.1140    3.6900  -11.5160 C.3    56  PHE56       0.1605
     11  C         22.0460    2.7680  -10.9160 C.2    56  PHE56       0.2264
     12  O         22.3730    1.7880  -10.2510 O.2    56  PHE56      -0.2867
     13  CB        23.3430    4.8820  -10.5920 C.3    56  PHE56       0.0534
     14  CG        23.4570    4.5140   -9.1490 C.ar   56  PHE56      -0.0203
     15  CD1       24.4980    3.7190   -8.7110 C.ar   56  PHE56      -0.0042
     16  CD2       22.5240    4.9630   -8.2270 C.ar   56  PHE56      -0.0042
     17  CE1       24.6150    3.3720   -7.3760 C.ar   56  PHE56      -0.0003
     18  CE2       22.6300    4.6220   -6.8890 C.ar   56  PHE56      -0.0003
     19  CZ        23.6780    3.8240   -6.4590 C.ar   56  PHE56      -0.0000
     20  N         29.3430    9.4080   -2.1670 N.3    98  GLY98      -0.1210
     21  CA        29.2210    7.9660   -2.3900 C.3    98  GLY98       0.1956
     22  C         29.1800    7.5460   -3.8670 C.2    98  GLY98       0.2612
     23  O         29.1340    8.3890   -4.7930 O.2    98  GLY98      -0.2717
     24  N         29.2000    6.2280   -4.0520 N.am   99  LEU99      -0.1965
     25  CA        29.0640    5.5860   -5.3600 C.3    99  LEU99       0.1728
     26  C         27.6780    5.8040   -5.9690 C.2    99  LEU99       0.2617
     27  O         26.6700    5.5500   -5.3250 O.2    99  LEU99      -0.2715
     28  CB        29.2970    4.0830   -5.2160 C.3    99  LEU99       0.0311
     29  CG        29.2050    3.2040   -6.4630 C.3    99  LEU99       0.0022
     30  CD1       30.3650    3.5010   -7.3960 C.3    99  LEU99       0.0001
     31  CD2       29.2110    1.7510   -6.0220 C.3    99  LEU99       0.0001
     32  N         27.6450    6.2740   -7.2110 N.am  100  GLY100     -0.1940
     33  CA        26.3900    6.6390   -7.8640 C.3   100  GLY100      0.2014
     34  C         25.8530    8.0150   -7.4920 C.2   100  GLY100      0.2638
     35  O         24.8410    8.4640   -8.0610 O.2   100  GLY100     -0.2714
     36  N         26.5170    8.6850   -6.5470 N.am  101  ALA101     -0.1977
     37  CA        26.1590   10.0410   -6.1380 C.3   101  ALA101      0.1597
     38  C         26.9630   11.0520   -6.9730 C.2   101  ALA101      0.2287
     39  O         27.5630   10.6860   -7.9830 O.2   101  ALA101     -0.2864
     40  CB        26.3990   10.2050   -4.6650 C.3   101  ALA101      0.0319
     41  N         24.6540   16.1740   -3.6880 N.3   105  LEU105     -0.1231
     42  CA        23.6910   15.3170   -3.0040 C.3   105  LEU105      0.1693
     43  C         23.8950   15.1610   -1.5100 C.2   105  LEU105      0.2592
     44  O         23.2080   14.3490   -0.8590 O.2   105  LEU105     -0.2718
     45  CB        23.6260   13.9650   -3.6860 C.3   105  LEU105      0.0284
     46  CG        23.1750   14.0060   -5.1540 C.3   105  LEU105      0.0019
     47  CD1       23.0880   12.5830   -5.6760 C.3   105  LEU105      0.0001
     48  CD2       21.8400   14.6940   -5.3410 C.3   105  LEU105      0.0001
     49  N         24.8210   15.9230   -0.9620 N.am  106  TYR106     -0.1976
     50  CA        25.0350   15.9600    0.5070 C.3   106  TYR106      0.1639
     51  C         24.9470   17.4190    1.0230 C.2   106  TYR106      0.2290
     52  O         25.7300   17.8450    1.8730 O.2   106  TYR106     -0.2864
     53  CB        26.3660   15.2840    0.8440 C.3   106  TYR106      0.0560
     54  CG        26.4050   13.8220    0.4410 C.ar  106  TYR106     -0.0198
     55  CD1       26.7660   13.4470   -0.8540 C.ar  106  TYR106     -0.0009
     56  CD2       26.0780   12.8100    1.3520 C.ar  106  TYR106     -0.0009
     57  CE1       26.8010   12.1230   -1.2220 C.ar  106  TYR106      0.0417
     58  CE2       26.1120   11.4710    0.9830 C.ar  106  TYR106      0.0417
     59  CZ        26.4780   11.1280   -0.3170 C.ar  106  TYR106      0.1957
     60  OH        26.5300    9.8000   -0.7420 O.3   106  TYR106     -0.2866
     61  N         30.6660    9.8850    2.8390 N.3   218  HIS218     -0.1226
     62  CA        29.6620    8.8410    2.9960 C.3   218  HIS218      0.1752
     63  C         29.9970    7.6200    2.1850 C.2   218  HIS218      0.2597
     64  O         30.2490    7.7420    1.0010 O.2   218  HIS218     -0.2718
     65  CB        28.3040    9.3780    2.5470 C.3   218  HIS218      0.0759
     66  CG        27.1940    8.3650    2.5710 C.ar  218  HIS218      0.0818
     67  ND1       26.3580    8.1570    1.4970 N.ar  218  HIS218     -0.2268
     68  CD2       26.7800    7.5140    3.5350 C.ar  218  HIS218      0.1154
     69  CE1       25.4810    7.2190    1.7930 C.ar  218  HIS218      0.1986
     70  NE2       25.7140    6.8100    3.0250 N.ar  218  HIS218     -0.2212
     71  N         29.9890    6.4560    2.8290 N.am  219  SER219     -0.1938
     72  CA        30.1080    5.1630    2.1670 C.3   219  SER219      0.2055
     73  C         31.4370    4.9950    1.3970 C.2   219  SER219      0.2643
     74  O         32.4660    4.8040    2.0370 O.2   219  SER219     -0.2714
     75  CB        28.8760    4.9330    1.2950 C.3   219  SER219      0.2130
     76  OG        28.6480    3.5680    1.0520 O.3   219  SER219     -0.2179
     77  N         31.4160    5.0600    0.0680 N.am  220  PHE220     -0.1973
     78  CA        32.6410    5.0900   -0.7210 C.3   220  PHE220      0.1639
     79  C         33.4680    6.3140   -0.2720 C.2   220  PHE220      0.2290
     80  O         34.6910    6.2680   -0.1860 O.2   220  PHE220     -0.2864
     81  CB        32.3320    5.1960   -2.2200 C.3   220  PHE220      0.0560
     82  CG        33.3900    4.6210   -3.1150 C.ar  220  PHE220     -0.0200
     83  CD1       34.6600    4.3200   -2.6430 C.ar  220  PHE220     -0.0042
     84  CD2       33.1160    4.3810   -4.4560 C.ar  220  PHE220     -0.0042
     85  CE1       35.6280    3.7880   -3.4760 C.ar  220  PHE220     -0.0003
     86  CE2       34.0880    3.8470   -5.2950 C.ar  220  PHE220     -0.0003
     87  CZ        35.3460    3.5510   -4.8010 C.ar  220  PHE220     -0.0000
     88  N         32.0260    2.3310    3.6970 N.3   244  TRP244     -0.1241
     89  CA        32.1250    1.0640    2.9850 C.3   244  TRP244      0.1605
     90  C         33.6100    0.7360    2.8480 C.2   244  TRP244      0.2264
     91  O         34.3210    1.3730    2.0730 O.2   244  TRP244     -0.2867
     92  CB        31.4500    1.2090    1.6190 C.3   244  TRP244      0.0550
     93  CG        31.4870    0.0140    0.7520 C.ar  244  TRP244      0.0003
     94  CD1       31.2000   -1.2510    1.1070 C.ar  244  TRP244      0.0946
     95  CD2       31.8330   -0.0230   -0.6290 C.ar  244  TRP244      0.0152
     96  NE1       31.3430   -2.0880    0.0410 N.ar  244  TRP244     -0.2442
     97  CE2       31.7340   -1.3550   -1.0450 C.ar  244  TRP244      0.0810
     98  CE3       32.2190    0.9440   -1.5560 C.ar  244  TRP244      0.0012
     99  CZ2       32.0030   -1.7560   -2.3480 C.ar  244  TRP244      0.0191
    100  CZ3       32.4870    0.5410   -2.8520 C.ar  244  TRP244      0.0001
    101  CH2       32.3770   -0.7980   -3.2330 C.ar  244  TRP244      0.0015
    102  N         22.6510   -0.7330    7.7790 N.3   268  PHE268     -0.1241
    103  CA        23.6480   -0.9830    6.7320 C.3   268  PHE268      0.1605
    104  C         24.7360   -1.9790    7.1190 C.2   268  PHE268      0.2264
    105  O         25.0950   -2.8400    6.3140 O.2   268  PHE268     -0.2867
    106  CB        24.3320    0.3060    6.2950 C.3   268  PHE268      0.0534
    107  CG        25.4060    0.0870    5.2590 C.ar  268  PHE268     -0.0203
    108  CD1       25.0650   -0.2660    3.9540 C.ar  268  PHE268     -0.0042
    109  CD2       26.7690    0.2340    5.5890 C.ar  268  PHE268     -0.0042
    110  CE1       26.0570   -0.4700    2.9930 C.ar  268  PHE268     -0.0003
    111  CE2       27.7590    0.0310    4.6340 C.ar  268  PHE268     -0.0003
    112  CZ        27.4040   -0.3200    3.3360 C.ar  268  PHE268     -0.0000
    113  N         27.6270   -4.6220    8.6010 N.3   270  TYR270     -0.1241
    114  CA        27.7580   -6.0840    8.6500 C.3   270  TYR270      0.1605
    115  C         29.1470   -6.4400    9.1610 C.2   270  TYR270      0.2264
    116  O         30.0540   -5.6360    9.0190 O.2   270  TYR270     -0.2867
    117  CB        27.5020   -6.6970    7.2700 C.3   270  TYR270      0.0534
    118  CG        28.1460   -5.9550    6.1170 C.ar  270  TYR270     -0.0201
    119  CD1       27.5860   -4.7910    5.6040 C.ar  270  TYR270     -0.0009
    120  CD2       29.3190   -6.4180    5.5340 C.ar  270  TYR270     -0.0009
    121  CE1       28.1750   -4.1040    4.5410 C.ar  270  TYR270      0.0417
    122  CE2       29.9180   -5.7400    4.4690 C.ar  270  TYR270      0.0417
    123  CZ        29.3480   -4.5860    3.9740 C.ar  270  TYR270      0.1957
    124  OH        29.9520   -3.9340    2.9280 O.3   270  TYR270     -0.2866
    125  N         21.3600    3.2780    5.4620 N.3   297  HIS297     -0.1226
    126  CA        22.5210    3.8140    4.7310 C.3   297  HIS297      0.1752
    127  C         22.2330    5.1930    4.0860 C.2   297  HIS297      0.2595
    128  O         23.0800    6.0770    4.0850 O.2   297  HIS297     -0.2718
    129  CB        22.9650    2.8030    3.6510 C.3   297  HIS297      0.0759
    130  CG        24.3810    2.9830    3.1740 C.ar  297  HIS297      0.0818
    131  ND1       25.4440    3.1490    4.0330 N.ar  297  HIS297     -0.2268
    132  CD2       24.8990    3.0180    1.9210 C.ar  297  HIS297      0.1154
    133  CE1       26.5580    3.2810    3.3340 C.ar  297  HIS297      0.1986
    134  NE2       26.2510    3.2050    2.0510 N.ar  297  HIS297     -0.2212
    135  N         21.0320    5.3630    3.5440 N.am  298  GLN298     -0.1979
    136  CA        20.6630    6.5940    2.8580 C.3   298  GLN298      0.1601
    137  C         20.3080    7.7780    3.7610 C.2   298  GLN298      0.2287
    138  O         20.0760    8.8720    3.2470 O.2   298  GLN298     -0.2864
    139  CB        19.5340    6.3000    1.8480 C.3   298  GLN298      0.0394
    140  CG        20.0180    5.5880    0.5950 C.3   298  GLN298      0.0908
    141  CD        21.1690    6.3190   -0.0870 C.2   298  GLN298      0.2608
    142  OE1       21.1350    7.5260   -0.2400 O.2   298  GLN298     -0.2717
    143  NE2       22.1850    5.5870   -0.4940 N.am  298  GLN298     -0.0878
    144  N         22.4240   10.9790    3.0720 N.3   301  ALA301     -0.1231
    145  CA        22.3990   11.6700    1.7950 C.3   301  ALA301      0.1694
    146  C         21.0630   12.3490    1.6100 C.2   301  ALA301      0.2592
    147  O         20.1250   12.0630    2.3380 O.2   301  ALA301     -0.2718
    148  CB        22.6630   10.6880    0.6800 C.3   301  ALA301      0.0304
    149  N         20.9940   13.2480    0.6270 N.am  302  ASP302     -0.1960
    150  CA        19.8800   14.1870    0.5050 C.3   302  ASP302      0.1840
    151  C         18.5570   13.5800    0.0730 C.2   302  ASP302      0.2622
    152  O         17.5210   14.1750    0.3420 O.2   302  ASP302     -0.2715
    153  CB        20.2110   15.3530   -0.4290 C.3   302  ASP302      0.1450
    154  CG        21.1390   16.3850    0.2010 C.2   302  ASP302      0.3671
    155  OD1       21.4300   16.3290    1.4350 O.co2 302  ASP302     -0.2456
    156  OD2       21.5900   17.2760   -0.5630 O.co2 302  ASP302     -0.2456
    157  N         18.5770   12.4190   -0.5830 N.am  303  PHE303     -0.1974
    158  CA        17.3270   11.7980   -1.0540 C.3   303  PHE303      0.1639
    159  C         16.4640   11.2640    0.0830 C.2   303  PHE303      0.2290
    160  O         15.3240   10.9360   -0.1530 O.2   303  PHE303     -0.2864
    161  CB        17.5900   10.6930   -2.0680 C.3   303  PHE303      0.0560
    162  CG        17.4430   11.1240   -3.4800 C.ar  303  PHE303     -0.0200
    163  CD1       16.1880   11.2260   -4.0470 C.ar  303  PHE303     -0.0042
    164  CD2       18.5460   11.4250   -4.2510 C.ar  303  PHE303     -0.0042
    165  CE1       16.0360   11.6210   -5.3520 C.ar  303  PHE303     -0.0003
    166  CE2       18.4080   11.8240   -5.5620 C.ar  303  PHE303     -0.0003
    167  CZ        17.1470   11.9200   -6.1130 C.ar  303  PHE303     -0.0000
@<TRIPOS>BOND
     1     9    10    1
     2     1     2    1
     3     3     2    1
     4     3     4    2
     5     2     5    1
     6    10    11    1
     7    10    13    1
     8    11    12    2
     9     5     6    1
    10    13    14    1
    11     6     7    1
    12     6     8    1
    13    14    15   ar
    14    14    16   ar
    15    15    17   ar
    16    16    18   ar
    17    35    34    2
    18    39    38    2
    19    33    34    1
    20    33    32    1
    21    34    36   am
    22    30    29    1
    23    17    19   ar
    24    32    26   am
    25    38    37    1
    26    18    19   ar
    27    36    37    1
    28    29    31    1
    29    29    28    1
    30    37    40    1
    31   167   166   ar
    32   167   165   ar
    33    26    25    1
    34    26    27    2
    35    47    46    1
    36   166   164   ar
    37    25    28    1
    38    25    24    1
    39   165   163   ar
    40    48    46    1
    41    86    87   ar
    42    86    84   ar
    43    46    45    1
    44    87    85   ar
    45    23    22    2
    46    84    82   ar
    47   164   162   ar
    48    24    22   am
    49   163   162   ar
    50    22    21    1
    51    41    42    1
    52    45    42    1
    53   162   161    1
    54    85    83   ar
    55   101   100   ar
    56   101    99   ar
    57    82    83   ar
    58    82    81    1
    59    42    43    1
    60   100    98   ar
    61    21    20    1
    62    99    97   ar
    63    81    78    1
    64   161   158    1
    65    98    95   ar
    66    43    49   am
    67    43    44    2
    68    57    55   ar
    69    57    59   ar
    70   158   157    1
    71   158   159    1
    72    97    95   ar
    73    97    96   ar
    74    49    50    1
    75    55    54   ar
    76    60    59    1
    77    78    79    1
    78    78    77    1
    79    95    93   ar
    80   157   151   am
    81   156   154   ar
    82   143   141   am
    83   153   154    1
    84   153   150    1
    85    59    58   ar
    86    79    80    2
    87   142   141    2
    88   160   159    2
    89   141   140    1
    90    96    94   ar
    91    77    73   am
    92   151   152    2
    93   151   150    1
    94   154   155   ar
    95    54    53    1
    96    54    56   ar
    97   150   149    1
    98    50    53    1
    99    50    51    1
   100   140   139    1
   101   149   146   am
   102   148   145    1
   103    93    94   ar
   104    93    92    1
   105    58    56   ar
   106    64    63    2
   107    51    52    2
   108    76    75    1
   109    75    72    1
   110    73    74    2
   111    73    72    1
   112    67    69   ar
   113    67    66   ar
   114   146   145    1
   115   146   147    2
   116    92    89    1
   117    69    70   ar
   118   145   144    1
   119   139   136    1
   120   132   134   ar
   121   132   130   ar
   122   134   133   ar
   123    91    90    2
   124    72    71    1
   125    63    71   am
   126    63    62    1
   127    65    66    1
   128    65    62    1
   129    66    68   ar
   130    61    62    1
   131    90    89    1
   132   136   135    1
   133   136   137    1
   134   124   123    1
   135    89    88    1
   136   110   112   ar
   137   110   108   ar
   138    70    68   ar
   139   130   129    1
   140   130   131   ar
   141   138   137    2
   142   133   131   ar
   143   112   111   ar
   144   135   127   am
   145   129   126    1
   146   108   107   ar
   147   123   122   ar
   148   123   121   ar
   149   128   127    2
   150   127   126    1
   151   122   120   ar
   152   121   119   ar
   153   111   109   ar
   154   126   125    1
   155   107   109   ar
   156   107   106    1
   157   120   118   ar
   158   119   118   ar
   159   118   117    1
   160   106   103    1
   161   105   104    2
   162   103   104    1
   163   103   102    1
   164   117   114    1
   165   113   114    1
   166   114   115    1
   167   116   115    2
