@<TRIPOS>MOLECULE
tmp/5lzhC01.pdb
 115 114 0 0 0
SMALL
GASTEIGER

@<TRIPOS>ATOM
      1  N         26.2880   -2.2290   27.3830 N.3    11  GLU11      -0.1231
      2  CA        26.7380   -2.5850   26.0420 C.3    11  GLU11       0.1699
      3  C         26.8760   -1.4590   25.1400 C.2    11  GLU11       0.2592
      4  O         27.1380   -1.6530   23.9420 O.2    11  GLU11      -0.2718
      5  CB        25.7660   -3.6440   25.4260 C.3    11  GLU11       0.0402
      6  CG        25.6800   -4.8740   26.2210 C.3    11  GLU11       0.1161
      7  CD        24.8590   -5.9100   25.4680 C.2    11  GLU11       0.3649
      8  OE1       23.6300   -5.7740   25.3900 O.co2  11  GLU11      -0.2457
      9  OE2       25.4570   -6.9010   25.0160 O.co2  11  GLU11      -0.2457
     10  N         26.7350   -0.2390   25.6440 N.am   12  TYR12      -0.1962
     11  CA        26.7650    0.9250   24.8550 C.3    12  TYR12       0.1771
     12  C         27.6150    2.0310   25.4410 C.2    12  TYR12       0.2620
     13  O         27.6240    2.2350   26.5990 O.2    12  TYR12      -0.2715
     14  CB        25.3440    1.5620   24.6180 C.3    12  TYR12       0.0574
     15  CG        24.4270    0.6740   23.8460 C.ar   12  TYR12      -0.0198
     16  CD1       23.8050   -0.3780   24.5010 C.ar   12  TYR12      -0.0009
     17  CD2       24.3180    0.7390   22.4530 C.ar   12  TYR12      -0.0009
     18  CE1       23.0360   -1.2210   23.7640 C.ar   12  TYR12       0.0417
     19  CE2       23.5450   -0.1710   21.7450 C.ar   12  TYR12       0.0417
     20  CZ        22.9420   -1.1440   22.4020 C.ar   12  TYR12       0.1957
     21  OH        22.1810   -2.0740   21.6780 O.3    12  TYR12      -0.2866
     22  N         28.2740    2.7890   24.5850 N.am   13  HIS13      -0.1959
     23  CA        28.9730    4.0270   25.1180 C.3    13  HIS13       0.1787
     24  C         27.9770    5.1550   25.4050 C.2    13  HIS13       0.2620
     25  O         26.8540    5.1170   24.8600 O.2    13  HIS13      -0.2715
     26  CB        29.9400    4.5440   24.0850 C.3    13  HIS13       0.0785
     27  CG        31.0690    3.6030   23.8370 C.ar   13  HIS13       0.0821
     28  ND1       32.1040    3.4310   24.7170 N.ar   13  HIS13      -0.2267
     29  CD2       31.3650    2.8460   22.7560 C.ar   13  HIS13       0.1154
     30  CE1       32.9490    2.5300   24.2350 C.ar   13  HIS13       0.1986
     31  NE2       32.5620    2.2170   23.0100 N.ar   13  HIS13      -0.2212
     32  N         28.3580    6.0940   26.2780 N.am   14  ASN14      -0.1972
     33  CA        27.5640    7.3300   26.5450 C.3    14  ASN14       0.1688
     34  C         26.2060    6.9600   27.1960 C.2    14  ASN14       0.2292
     35  O         25.2270    7.6700   26.9280 O.2    14  ASN14      -0.2864
     36  CB        27.3070    8.0940   25.2770 C.3    14  ASN14       0.1181
     37  CG        28.5380    8.6070   24.6140 C.2    14  ASN14       0.2629
     38  OD1       28.7160    8.3470   23.3800 O.2    14  ASN14      -0.2716
     39  ND2       29.2430    9.4510   25.2680 N.am   14  ASN14      -0.0877
     40  N         14.2140   10.4980   21.3590 N.3    51  GLU51      -0.1245
     41  CA        14.7000   11.3210   20.2970 C.3    51  GLU51       0.1567
     42  C         13.9940   11.3040   18.9950 C.2    51  GLU51       0.2260
     43  O         13.4120   10.2780   18.5900 O.2    51  GLU51      -0.2867
     44  CB        16.1830   10.9530   19.9760 C.3    51  GLU51       0.0388
     45  CG        17.1880   11.2340   21.0310 C.3    51  GLU51       0.1160
     46  CD        18.6650   11.0060   20.5270 C.2    51  GLU51       0.3649
     47  OE1       19.0290    9.8140   20.6140 O.co2  51  GLU51      -0.2457
     48  OE2       19.2530   11.9610   19.9910 O.co2  51  GLU51      -0.2457
     49  N         21.8600    9.1470   13.3290 N.3    56  GLN56      -0.1231
     50  CA        22.5380    8.2920   14.3340 C.3    56  GLN56       0.1698
     51  C         21.8410    6.9490   14.4540 C.2    56  GLN56       0.2592
     52  O         22.5050    5.9600   14.8180 O.2    56  GLN56      -0.2718
     53  CB        22.5270    8.8910   15.7030 C.3    56  GLN56       0.0381
     54  CG        21.1980    9.1860   16.4280 C.3    56  GLN56       0.0905
     55  CD        20.5580   10.4770   16.1210 C.2    56  GLN56       0.2608
     56  OE1       20.5520   10.9550   14.9630 O.2    56  GLN56      -0.2717
     57  NE2       19.8960   11.0140   17.0920 N.am   56  GLN56      -0.0878
     58  N         20.5590    6.8830   14.0680 N.am   57  HIS57      -0.1962
     59  CA        19.7820    5.6190   14.1660 C.3    57  HIS57       0.1787
     60  C         19.9250    4.7320   13.0200 C.2    57  HIS57       0.2620
     61  O         20.0740    5.1730   11.8570 O.2    57  HIS57      -0.2715
     62  CB        18.2700    5.9490   14.3700 C.3    57  HIS57       0.0785
     63  CG        18.0350    6.7250   15.6120 C.ar   57  HIS57       0.0821
     64  ND1       17.5810    8.0400   15.5910 N.ar   57  HIS57      -0.2267
     65  CD2       18.0890    6.3690   16.8950 C.ar   57  HIS57       0.1154
     66  CE1       17.4170    8.4560   16.8270 C.ar   57  HIS57       0.1986
     67  NE2       17.7410    7.4710   17.6340 N.ar   57  HIS57      -0.2212
     68  N         19.9920    3.4340   13.2830 N.am   58  ILE58      -0.1977
     69  CA        19.9750    2.4760   12.2270 C.3    58  ILE58       0.1596
     70  C         18.4910    2.0610   11.9290 C.2    58  ILE58       0.2287
     71  O         17.6060    2.2650   12.8040 O.2    58  ILE58      -0.2864
     72  CB        20.8710    1.2320   12.5400 C.3    58  ILE58       0.0276
     73  CG1       20.4260    0.5390   13.8400 C.3    58  ILE58       0.0022
     74  CG2       22.3320    1.6930   12.6250 C.3    58  ILE58       0.0022
     75  CD1       21.2390   -0.7020   14.1900 C.3    58  ILE58       0.0001
     76  N         16.0200    0.4220   14.3780 N.3    61  GLN61      -0.1245
     77  CA        15.5900    1.1480   15.5310 C.3    61  GLN61       0.1566
     78  C         14.2590    1.9290   15.2330 C.2    61  GLN61       0.2260
     79  O         13.6510    2.3940   16.2100 O.2    61  GLN61      -0.2867
     80  CB        16.6390    2.1740   16.0170 C.3    61  GLN61       0.0367
     81  CG        17.8590    1.5690   16.5720 C.3    61  GLN61       0.0905
     82  CD        18.8370    2.6240   17.0290 C.2    61  GLN61       0.2608
     83  OE1       19.6390    3.0610   16.2220 O.2    61  GLN61      -0.2717
     84  NE2       18.8300    2.9580   18.3060 N.am   61  GLN61      -0.0878
     85  N         21.0210    7.5060   26.8800 N.3    88  TRP88      -0.1241
     86  CA        22.2090    8.2570   26.3900 C.3    88  TRP88       0.1605
     87  C         22.3170    9.5660   27.0970 C.2    88  TRP88       0.2264
     88  O         21.4110   10.4140   27.0440 O.2    88  TRP88      -0.2867
     89  CB        22.2280    8.3390   24.8460 C.3    88  TRP88       0.0550
     90  CG        22.3230    7.0740   24.1950 C.ar   88  TRP88       0.0003
     91  CD1       23.5060    6.3370   23.9970 C.ar   88  TRP88       0.0946
     92  CD2       21.2790    6.2670   23.6460 C.ar   88  TRP88       0.0152
     93  NE1       23.2530    5.1720   23.3510 N.ar   88  TRP88      -0.2442
     94  CE2       21.8900    5.0760   23.1150 C.ar   88  TRP88       0.0810
     95  CE3       19.8910    6.4390   23.4600 C.ar   88  TRP88       0.0012
     96  CZ2       21.1360    4.1140   22.4460 C.ar   88  TRP88       0.0191
     97  CZ3       19.1680    5.4830   22.7610 C.ar   88  TRP88       0.0001
     98  CH2       19.7960    4.3390   22.2480 C.ar   88  TRP88       0.0015
     99  N         24.7030   11.8350   26.4270 N.3    90  ASN90      -0.1225
    100  CA        25.3310   12.8220   25.5450 C.3    90  ASN90       0.1785
    101  C         24.3570   13.6900   24.8180 C.2    90  ASN90       0.2597
    102  O         24.6240   14.2610   23.7310 O.2    90  ASN90      -0.2718
    103  CB        26.3300   12.1740   24.5360 C.3    90  ASN90       0.1169
    104  CG        25.6990   11.1870   23.5800 C.2    90  ASN90       0.2627
    105  OD1       24.5820   10.6450   23.8780 O.2    90  ASN90      -0.2716
    106  ND2       26.2780   11.0420   22.3760 N.am   90  ASN90      -0.0877
    107  N         23.0970   13.6530   25.2700 N.am   91  LYS91      -0.1980
    108  CA        21.9760   14.4600   24.7200 C.3    91  LYS91       0.1596
    109  C         21.2480   15.0950   25.8680 C.2    91  LYS91       0.2287
    110  O         21.3340   14.6010   26.9830 O.2    91  LYS91      -0.2864
    111  CB        20.9830   13.5490   23.9720 C.3    91  LYS91       0.0298
    112  CG        21.5770   12.8620   22.8000 C.3    91  LYS91       0.0038
    113  CD        21.8360   13.7760   21.6530 C.3    91  LYS91       0.0206
    114  CE        22.6580   13.2000   20.5480 C.3    91  LYS91       0.1093
    115  NZ        22.1070   11.9620   19.8930 N.3    91  LYS91      -0.1314
@<TRIPOS>BOND
     1    61    60    2
     2    70    69    1
     3    70    71    2
     4    69    72    1
     5    69    68    1
     6    72    74    1
     7    72    73    1
     8    60    68   am
     9    60    59    1
    10    49    50    1
    11    73    75    1
    12    58    59    1
    13    58    51   am
    14    59    62    1
    15    50    51    1
    16    50    53    1
    17    62    63    1
    18    76    77    1
    19    51    52    2
    20    56    55    2
    21    78    77    1
    22    78    79    2
    23    77    80    1
    24    64    63   ar
    25    64    66   ar
    26    63    65   ar
    27    53    54    1
    28    80    81    1
    29    55    54    1
    30    55    57   am
    31    83    82    2
    32    81    82    1
    33    66    67   ar
    34    65    67   ar
    35    82    84   am
    36    43    42    2
    37    42    41    1
    38   115   114    1
    39    44    41    1
    40    44    45    1
    41    48    46   ar
    42    41    40    1
    43    46    47   ar
    44    46    45    1
    45   114   113    1
    46   113   112    1
    47    21    20    1
    48    19    20   ar
    49    19    17   ar
    50    98    96   ar
    51    98    97   ar
    52   106   104   am
    53    20    18   ar
    54    96    94   ar
    55    17    15   ar
    56    29    31   ar
    57    29    27   ar
    58    97    95   ar
    59   112   111    1
    60    31    30   ar
    61    94    93   ar
    62    94    92   ar
    63    93    91   ar
    64    38    37    2
    65    95    92   ar
    66   104   105    2
    67   104   103    1
    68    92    90   ar
    69   102   101    2
    70    18    16   ar
    71    27    26    1
    72    27    28   ar
    73    15    16   ar
    74    15    14    1
    75     4     3    2
    76   111   108    1
    77    91    90   ar
    78    26    23    1
    79    90    89    1
    80    30    28   ar
    81   103   100    1
    82    22    23    1
    83    22    12   am
    84    37    39   am
    85    37    36    1
    86    14    11    1
    87   108   107    1
    88   108   109    1
    89   101   107   am
    90   101   100    1
    91    89    86    1
    92    11    12    1
    93    11    10    1
    94    25    24    2
    95     9     7   ar
    96    23    24    1
    97     3    10   am
    98     3     2    1
    99    36    33    1
   100     8     7   ar
   101    24    32   am
   102     5     2    1
   103     5     6    1
   104    12    13    2
   105     7     6    1
   106   100    99    1
   107   109   110    2
   108     2     1    1
   109    32    33    1
   110    86    85    1
   111    86    87    1
   112    33    34    1
   113    35    34    2
   114    88    87    2
