@<TRIPOS>MOLECULE
tmp/5lziD00.pdb
 121 120 0 0 0
SMALL
GASTEIGER

@<TRIPOS>ATOM
      1  N         55.1520   77.1450   33.3690 N.3    11  GLU11      -0.1231
      2  CA        54.9240   78.5710   33.5050 C.3    11  GLU11       0.1699
      3  C         54.6260   79.2880   32.2340 C.2    11  GLU11       0.2592
      4  O         54.6590   80.5240   32.2170 O.2    11  GLU11      -0.2718
      5  CB        56.1900   79.1780   34.1980 C.3    11  GLU11       0.0402
      6  CG        56.4600   78.6660   35.5950 C.3    11  GLU11       0.1161
      7  CD        57.5910   79.4310   36.2230 C.2    11  GLU11       0.3649
      8  OE1       58.6700   79.4240   35.7140 O.co2  11  GLU11      -0.2457
      9  OE2       57.4400   80.0330   37.2940 O.co2  11  GLU11      -0.2457
     10  N         54.4740   78.5420   31.1230 N.am   12  TYR12      -0.1962
     11  CA        54.3130   79.1000   29.8080 C.3    12  TYR12       0.1771
     12  C         53.1220   78.4630   29.0830 C.2    12  TYR12       0.2620
     13  O         52.9020   77.2730   29.1970 O.2    12  TYR12      -0.2715
     14  CB        55.5710   78.8610   28.9770 C.3    12  TYR12       0.0574
     15  CG        56.7370   79.5900   29.5480 C.ar   12  TYR12      -0.0198
     16  CD1       57.4990   79.0330   30.5510 C.ar   12  TYR12      -0.0009
     17  CD2       57.0470   80.8530   29.1000 C.ar   12  TYR12      -0.0009
     18  CE1       58.5630   79.7350   31.0700 C.ar   12  TYR12       0.0417
     19  CE2       58.1690   81.5400   29.5770 C.ar   12  TYR12       0.0417
     20  CZ        58.8760   80.9580   30.6320 C.ar   12  TYR12       0.1957
     21  OH        59.9360   81.6570   31.1520 O.3    12  TYR12      -0.2866
     22  N         52.4160   79.3090   28.3290 N.am   13  HIS13      -0.1959
     23  CA        51.4080   78.8450   27.3490 C.3    13  HIS13       0.1787
     24  C         52.1060   78.1670   26.1620 C.2    13  HIS13       0.2620
     25  O         53.2950   78.4120   25.9070 O.2    13  HIS13      -0.2715
     26  CB        50.5880   80.0140   26.8070 C.3    13  HIS13       0.0785
     27  CG        49.5750   80.5690   27.7480 C.ar   13  HIS13       0.0821
     28  ND1       48.4180   79.8740   28.0300 N.ar   13  HIS13      -0.2267
     29  CD2       49.4850   81.7410   28.4070 C.ar   13  HIS13       0.1154
     30  CE1       47.6930   80.5830   28.8920 C.ar   13  HIS13       0.1986
     31  NE2       48.2760   81.7520   29.0760 N.ar   13  HIS13      -0.2212
     32  N         51.3890   77.2510   25.5210 N.am   14  ASN14      -0.1972
     33  CA        51.7940   76.6660   24.2360 C.3    14  ASN14       0.1688
     34  C         53.0780   75.8000   24.4340 C.2    14  ASN14       0.2292
     35  O         53.8490   75.7070   23.4910 O.2    14  ASN14      -0.2864
     36  CB        52.0710   77.7440   23.2000 C.3    14  ASN14       0.1181
     37  CG        50.8980   78.6770   22.9560 C.2    14  ASN14       0.2629
     38  OD1       50.9830   79.9320   23.0020 O.2    14  ASN14      -0.2716
     39  ND2       49.8520   78.0800   22.6250 N.am   14  ASN14      -0.0877
     40  N         64.5090   78.5260   17.2190 N.3    51  GLU51      -0.1196
     41  CA        64.0440   79.4470   16.2490 C.3    51  GLU51       0.1783
     42  C         64.9820   80.5600   15.9050 C.2    51  GLU51       0.2306
     43  O         65.8380   80.9790   16.6860 O.2    51  GLU51      -0.2863
     44  CB        62.7660   80.1520   16.7570 C.2    51  GLU51       0.0071
     45  CG        61.5440   79.2940   16.8420 C.2    51  GLU51       0.0834
     46  CD        60.3230   79.9470   17.4900 C.2    51  GLU51       0.3877
     47  OE1       59.6470   80.7070   16.7690 O.co2  51  GLU51      -0.2406
     48  OE2       60.1130   79.7150   18.6970 O.co2  51  GLU51      -0.2406
     49  N         60.5940   88.9530   16.6360 N.3    55  SER55      -0.1202
     50  CA        59.9420   89.9810   17.4410 C.3    55  SER55       0.2020
     51  C         59.2300   89.4460   18.6860 C.2    55  SER55       0.2619
     52  O         58.9400   90.2200   19.5860 O.2    55  SER55      -0.2717
     53  CB        58.9950   90.8090   16.5760 C.3    55  SER55       0.2103
     54  OG        57.9630   89.9840   16.2400 O.3    55  SER55      -0.2182
     55  N         58.9560   88.1760   18.7520 N.am   56  GLN56      -0.1965
     56  CA        58.3960   87.5910   19.9430 C.3    56  GLN56       0.1733
     57  C         59.4310   87.4750   21.0820 C.2    56  GLN56       0.2616
     58  O         59.0480   87.3320   22.2750 O.2    56  GLN56      -0.2715
     59  CB        57.8110   86.2310   19.6910 C.3    56  GLN56       0.0408
     60  CG        58.7940   85.0360   19.4910 C.3    56  GLN56       0.0908
     61  CD        59.3480   84.8970   18.0850 C.2    56  GLN56       0.2608
     62  OE1       59.4960   85.9010   17.3150 O.2    56  GLN56      -0.2717
     63  NE2       59.6910   83.6790   17.7030 N.am   56  GLN56      -0.0878
     64  N         60.7010   87.4220   20.7070 N.am   57  HIS57      -0.1959
     65  CA        61.7550   87.3020   21.7390 C.3    57  HIS57       0.1787
     66  C         61.9850   88.5640   22.4750 C.2    57  HIS57       0.2620
     67  O         61.9070   89.6340   21.9000 O.2    57  HIS57      -0.2715
     68  CB        63.0360   86.8310   21.1300 C.3    57  HIS57       0.0785
     69  CG        62.9390   85.4500   20.6020 C.ar   57  HIS57       0.0821
     70  ND1       63.1210   85.1670   19.2570 N.ar   57  HIS57      -0.2267
     71  CD2       62.7360   84.2690   21.2050 C.ar   57  HIS57       0.1154
     72  CE1       62.9920   83.8710   19.0710 C.ar   57  HIS57       0.1986
     73  NE2       62.7930   83.3020   20.2430 N.ar   57  HIS57      -0.2212
     74  N         62.2920   88.4810   23.7780 N.am   58  ILE58      -0.1977
     75  CA        62.6780   89.6540   24.5260 C.3    58  ILE58       0.1596
     76  C         64.1960   89.7560   24.6390 C.2    58  ILE58       0.2287
     77  O         64.9300   88.7760   24.3240 O.2    58  ILE58      -0.2864
     78  CB        62.0350   89.6920   25.9410 C.3    58  ILE58       0.0276
     79  CG1       62.4320   88.4420   26.7580 C.3    58  ILE58       0.0022
     80  CG2       60.5120   89.8030   25.8050 C.3    58  ILE58       0.0022
     81  CD1       61.8530   88.4340   28.2070 C.3    58  ILE58       0.0001
     82  N         66.4540   87.1140   26.1060 N.3    61  GLN61      -0.1245
     83  CA        66.5880   85.8010   25.4700 C.3    61  GLN61       0.1566
     84  C         67.7250   85.7600   24.4360 C.2    61  GLN61       0.2260
     85  O         68.0690   84.6870   23.9920 O.2    61  GLN61      -0.2867
     86  CB        65.2970   85.3950   24.7870 C.3    61  GLN61       0.0367
     87  CG        64.2430   85.0960   25.7920 C.3    61  GLN61       0.0905
     88  CD        62.9340   84.7540   25.0790 C.2    61  GLN61       0.2608
     89  OE1       62.2350   85.6840   24.5670 O.2    61  GLN61      -0.2717
     90  NE2       62.6280   83.5070   24.9440 N.am   61  GLN61      -0.0878
     91  N         57.8580   74.7230   22.7540 N.3    88  TRP88      -0.1241
     92  CA        56.6930   75.4350   22.2650 C.3    88  TRP88       0.1605
     93  C         56.1340   74.6390   21.1250 C.2    88  TRP88       0.2264
     94  O         56.8200   74.3420   20.1380 O.2    88  TRP88      -0.2867
     95  CB        56.9730   76.8470   21.8680 C.3    88  TRP88       0.0550
     96  CG        57.3160   77.7440   23.0170 C.ar   88  TRP88       0.0003
     97  CD1       56.4260   78.2550   23.9250 C.ar   88  TRP88       0.0946
     98  CD2       58.6000   78.2780   23.3510 C.ar   88  TRP88       0.0152
     99  NE1       57.0810   79.0550   24.8200 N.ar   88  TRP88      -0.2442
    100  CE2       58.4220   79.0670   24.5480 C.ar   88  TRP88       0.0810
    101  CE3       59.9040   78.0790   22.8620 C.ar   88  TRP88       0.0012
    102  CZ2       59.4500   79.7510   25.1250 C.ar   88  TRP88       0.0191
    103  CZ3       60.9050   78.7590   23.4060 C.ar   88  TRP88       0.0001
    104  CH2       60.7100   79.5570   24.5640 C.ar   88  TRP88       0.0015
    105  N         53.4150   75.4930   19.2380 N.3    90  ASN90      -0.1225
    106  CA        52.7560   76.3130   18.2670 C.3    90  ASN90       0.1785
    107  C         53.6330   76.7330   17.1140 C.2    90  ASN90       0.2597
    108  O         53.4300   77.7550   16.4920 O.2    90  ASN90      -0.2718
    109  CB        52.1140   77.5050   18.9430 C.3    90  ASN90       0.1169
    110  CG        53.1440   78.4860   19.5450 C.2    90  ASN90       0.2627
    111  OD1       54.2970   78.0790   19.8640 O.2    90  ASN90      -0.2716
    112  ND2       52.7600   79.6790   19.6970 N.am   90  ASN90      -0.0877
    113  N         54.6930   75.9420   16.9230 N.am   91  LYS91      -0.1980
    114  CA        55.6700   76.1090   15.8310 C.3    91  LYS91       0.1596
    115  C         56.0040   74.8040   15.2770 C.2    91  LYS91       0.2287
    116  O         55.9680   73.7980   15.9480 O.2    91  LYS91      -0.2864
    117  CB        56.9690   76.8150   16.2980 C.3    91  LYS91       0.0298
    118  CG        56.8130   78.1720   16.8910 C.3    91  LYS91       0.0038
    119  CD        56.4510   79.2370   15.8880 C.3    91  LYS91       0.0206
    120  CE        55.9470   80.5260   16.4830 C.3    91  LYS91       0.1093
    121  NZ        56.9160   81.2510   17.3590 N.3    91  LYS91      -0.1314
@<TRIPOS>BOND
     1   115   114    1
     2   115   116    2
     3   114   117    1
     4   114   113    1
     5   119   120    1
     6   119   118    1
     7    42    41    1
     8    42    43    2
     9    54    53    1
    10    41    44    1
    11    41    40    1
    12   117   118    1
    13   120   121    1
    14   108   107    2
    15    53    50    1
    16    49    50    1
    17    44    45    2
    18    47    46   ar
    19    45    46    1
    20   113   107   am
    21   107   106    1
    22    62    61    2
    23    50    51    1
    24    46    48   ar
    25    63    61   am
    26    61    60    1
    27   106   109    1
    28   106   105    1
    29    51    55   am
    30    51    52    2
    31    55    56    1
    32   109   110    1
    33    72    70   ar
    34    72    73   ar
    35    70    69   ar
    36    60    59    1
    37   110   112   am
    38   110   111    2
    39    59    56    1
    40    56    57    1
    41    94    93    2
    42    73    71   ar
    43    69    68    1
    44    69    71   ar
    45    64    57   am
    46    64    65    1
    47    57    58    2
    48    93    92    1
    49    68    65    1
    50    65    66    1
    51    95    92    1
    52    95    96    1
    53    67    66    2
    54    92    91    1
    55    66    74   am
    56    39    37   am
    57   101    98   ar
    58   101   103   ar
    59    37    38    2
    60    37    36    1
    61    96    98   ar
    62    96    97   ar
    63    36    33    1
    64    98   100   ar
    65   103   104   ar
    66    35    34    2
    67    74    75    1
    68    97    99   ar
    69    85    84    2
    70    33    34    1
    71    33    32    1
    72    77    76    2
    73    84    83    1
    74    75    76    1
    75    75    78    1
    76   100    99   ar
    77   100   102   ar
    78   104   102   ar
    79    89    88    2
    80    86    83    1
    81    86    87    1
    82    90    88   am
    83    88    87    1
    84    83    82    1
    85    32    24   am
    86    80    78    1
    87    25    24    2
    88    78    79    1
    89    24    23    1
    90    79    81    1
    91    26    23    1
    92    26    27    1
    93    23    22    1
    94    27    28   ar
    95    27    29   ar
    96    28    30   ar
    97    22    12   am
    98    29    31   ar
    99    30    31   ar
   100    14    15    1
   101    14    11    1
   102    12    13    2
   103    12    11    1
   104    17    15   ar
   105    17    19   ar
   106    15    16   ar
   107    19    20   ar
   108    11    10    1
   109    16    18   ar
   110    20    18   ar
   111    20    21    1
   112    10     3   am
   113     4     3    2
   114     3     2    1
   115     1     2    1
   116     2     5    1
   117     5     6    1
   118     6     7    1
   119     8     7   ar
   120     7     9   ar
