@<TRIPOS>MOLECULE
tmp/5lzjD01.pdb
 106 105 0 0 0
SMALL
GASTEIGER

@<TRIPOS>ATOM
      1  N          0.6940  -28.0260   16.6240 N.3    12  TYR12      -0.1227
      2  CA         1.9510  -27.3480   16.4090 C.3    12  TYR12       0.1736
      3  C          3.0440  -28.0010   17.2380 C.2    12  TYR12       0.2595
      4  O          2.8140  -28.5340   18.3470 O.2    12  TYR12      -0.2718
      5  CB         1.8490  -25.8450   16.7960 C.3    12  TYR12       0.0548
      6  CG         0.8920  -25.0980   15.9220 C.ar   12  TYR12      -0.0200
      7  CD1       -0.4520  -25.1160   16.2040 C.ar   12  TYR12      -0.0009
      8  CD2        1.2930  -24.4100   14.8060 C.ar   12  TYR12      -0.0009
      9  CE1       -1.3580  -24.4500   15.3880 C.ar   12  TYR12       0.0417
     10  CE2        0.3580  -23.7480   13.9640 C.ar   12  TYR12       0.0417
     11  CZ        -0.9430  -23.8240   14.2680 C.ar   12  TYR12       0.1957
     12  OH        -1.8360  -23.1800   13.4600 O.3    12  TYR12      -0.2866
     13  N          4.2400  -27.9240   16.7000 N.am   13  HIS13      -0.1961
     14  CA         5.4320  -28.3540   17.4230 C.3    13  HIS13       0.1787
     15  C          5.9090  -27.2370   18.3340 C.2    13  HIS13       0.2620
     16  O          5.6470  -26.0630   18.0750 O.2    13  HIS13      -0.2715
     17  CB         6.5260  -28.7000   16.4310 C.3    13  HIS13       0.0785
     18  CG         6.2320  -29.9250   15.5910 C.ar   13  HIS13       0.0821
     19  ND1        5.7720  -29.8610   14.2890 N.ar   13  HIS13      -0.2267
     20  CD2        6.3670  -31.2440   15.8710 C.ar   13  HIS13       0.1154
     21  CE1        5.6070  -31.0820   13.8080 C.ar   13  HIS13       0.1986
     22  NE2        5.9870  -31.9440   14.7370 N.ar   13  HIS13      -0.2212
     23  N          6.5750  -27.5990   19.3750 N.am   14  ASN14      -0.1972
     24  CA         7.2090  -26.6320   20.2470 C.3    14  ASN14       0.1688
     25  C          6.1560  -25.8290   21.0420 C.2    14  ASN14       0.2292
     26  O          6.4540  -24.7240   21.4070 O.2    14  ASN14      -0.2864
     27  CB         8.1660  -25.6580   19.5270 C.3    14  ASN14       0.1181
     28  CG         9.2990  -26.3580   18.8310 C.2    14  ASN14       0.2629
     29  OD1        9.3770  -26.3800   17.5820 O.2    14  ASN14      -0.2716
     30  ND2       10.1370  -26.9640   19.6320 N.am   14  ASN14      -0.0877
     31  N          5.4870  -12.0090   20.4390 N.3    51  GLU51      -0.1245
     32  CA         6.7620  -11.7570   19.7770 C.3    51  GLU51       0.1567
     33  C          6.7670  -10.5570   18.8640 C.2    51  GLU51       0.2260
     34  O          5.7730  -10.2080   18.2660 O.2    51  GLU51      -0.2867
     35  CB         7.2090  -12.9470   18.9430 C.3    51  GLU51       0.0388
     36  CG         7.5250  -14.2120   19.7530 C.3    51  GLU51       0.1160
     37  CD         8.0380  -15.3360   18.9160 C.2    51  GLU51       0.3649
     38  OE1        7.2160  -16.1240   18.4860 O.co2  51  GLU51      -0.2457
     39  OE2        9.2510  -15.3990   18.6910 O.co2  51  GLU51      -0.2457
     40  N          9.9800  -15.6830   11.0390 N.3    56  GLN56      -0.1231
     41  CA         9.2860  -16.9110   11.4330 C.3    56  GLN56       0.1698
     42  C          7.7660  -16.8600   11.0790 C.2    56  GLN56       0.2592
     43  O          7.1380  -17.9080   10.9050 O.2    56  GLN56      -0.2718
     44  CB         9.4600  -17.2660   12.9070 C.3    56  GLN56       0.0381
     45  CG         8.8410  -16.3550   13.9270 C.3    56  GLN56       0.0905
     46  CD         9.6500  -15.1750   14.3320 C.2    56  GLN56       0.2608
     47  OE1       10.3440  -14.5700   13.5210 O.2    56  GLN56      -0.2717
     48  NE2        9.5360  -14.7780   15.5860 N.am   56  GLN56      -0.0878
     49  N          7.1870  -15.6500   11.0110 N.am   57  HIS57      -0.1962
     50  CA         5.7500  -15.4640   10.8490 C.3    57  HIS57       0.1787
     51  C          5.3560  -15.4060    9.3950 C.2    57  HIS57       0.2620
     52  O          6.0820  -14.8590    8.5530 O.2    57  HIS57      -0.2715
     53  CB         5.3770  -14.1290   11.4980 C.3    57  HIS57       0.0785
     54  CG         5.5290  -14.1260   12.9820 C.ar   57  HIS57       0.0821
     55  ND1        6.3980  -13.2870   13.5990 N.ar   57  HIS57      -0.2267
     56  CD2        4.9730  -14.8820   13.9450 C.ar   57  HIS57       0.1154
     57  CE1        6.3450  -13.4930   14.8980 C.ar   57  HIS57       0.1986
     58  NE2        5.4910  -14.4750   15.1240 N.ar   57  HIS57      -0.2212
     59  N          4.2150  -16.0290    9.0530 N.am   58  ILE58      -0.1977
     60  CA         3.6920  -15.8940    7.6950 C.3    58  ILE58       0.1596
     61  C          2.8490  -14.6190    7.6070 C.2    58  ILE58       0.2287
     62  O          2.4000  -14.0800    8.6480 O.2    58  ILE58      -0.2864
     63  CB         2.9460  -17.1830    7.2670 C.3    58  ILE58       0.0276
     64  CG1        1.7190  -17.4320    8.1340 C.3    58  ILE58       0.0022
     65  CG2        3.8680  -18.3810    7.3370 C.3    58  ILE58       0.0022
     66  CD1        0.8140  -18.5870    7.6560 C.3    58  ILE58       0.0001
     67  N         -0.3340  -13.9790    9.7540 N.3    61  GLN61      -0.1245
     68  CA        -0.1950  -13.8030   11.1730 C.3    61  GLN61       0.1566
     69  C         -0.0070  -12.3760   11.5440 C.2    61  GLN61       0.2260
     70  O         -0.1940  -12.0560   12.6970 O.2    61  GLN61      -0.2867
     71  CB         1.0260  -14.5980   11.7220 C.3    61  GLN61       0.0367
     72  CG         0.8030  -16.0980   11.7000 C.3    61  GLN61       0.0905
     73  CD         1.9860  -16.8520   12.1710 C.2    61  GLN61       0.2608
     74  OE1        2.9240  -17.0990   11.3890 O.2    61  GLN61      -0.2717
     75  NE2        1.9630  -17.2110   13.4170 N.am   61  GLN61      -0.0878
     76  N          4.5110  -21.1500   22.4960 N.3    88  TRP88      -0.1241
     77  CA         5.7410  -21.7100   22.0440 C.3    88  TRP88       0.1605
     78  C          6.7450  -21.6700   23.1360 C.2    88  TRP88       0.2264
     79  O          7.0570  -20.6450   23.6970 O.2    88  TRP88      -0.2867
     80  CB         6.2370  -20.9470   20.8190 C.3    88  TRP88       0.0550
     81  CG         5.4860  -21.2430   19.5590 C.ar   88  TRP88       0.0003
     82  CD1        5.4480  -22.3850   18.8190 C.ar   88  TRP88       0.0946
     83  CD2        4.5280  -20.3600   18.9640 C.ar   88  TRP88       0.0152
     84  NE1        4.6080  -22.2410   17.7160 N.ar   88  TRP88      -0.2442
     85  CE2        4.0100  -20.9980   17.8000 C.ar   88  TRP88       0.0810
     86  CE3        4.0820  -19.0490   19.2760 C.ar   88  TRP88       0.0012
     87  CZ2        3.0590  -20.4130   16.9940 C.ar   88  TRP88       0.0191
     88  CZ3        3.1380  -18.4750   18.4220 C.ar   88  TRP88       0.0001
     89  CH2        2.6530  -19.1460   17.3070 C.ar   88  TRP88       0.0015
     90  N          9.9610  -22.7620   22.7180 N.3    90  ASN90      -0.1225
     91  CA        11.3260  -22.6200   22.2020 C.3    90  ASN90       0.1785
     92  C         11.8180  -21.1640   22.2210 C.2    90  ASN90       0.2597
     93  O         12.7810  -20.8430   21.5880 O.2    90  ASN90      -0.2718
     94  CB        11.4580  -23.2140   20.8260 C.3    90  ASN90       0.1169
     95  CG        10.6020  -22.5280   19.7570 C.2    90  ASN90       0.2627
     96  OD1        9.5410  -21.9630   20.0350 O.2    90  ASN90      -0.2716
     97  ND2       11.0560  -22.5640   18.5420 N.am   90  ASN90      -0.0877
     98  N         11.1120  -20.3050   22.9540 N.am   91  LYS91      -0.1980
     99  CA        11.4740  -18.8980   23.0990 C.3    91  LYS91       0.1596
    100  C         11.3910  -18.5520   24.5780 C.2    91  LYS91       0.2287
    101  O         10.6220  -19.1760   25.2970 O.2    91  LYS91      -0.2864
    102  CB        10.4380  -17.9960   22.3180 C.3    91  LYS91       0.0298
    103  CG        10.3540  -18.2690   20.8600 C.3    91  LYS91       0.0038
    104  CD        11.6010  -17.7340   20.1430 C.3    91  LYS91       0.0206
    105  CE        11.7770  -18.1400   18.7000 C.3    91  LYS91       0.1093
    106  NZ        10.6110  -17.7970   17.8900 N.3    91  LYS91      -0.1314
@<TRIPOS>BOND
     1    63    65    1
     2    63    60    1
     3    63    64    1
     4    61    60    1
     5    61    62    2
     6    66    64    1
     7    60    59    1
     8    52    51    2
     9    59    51   am
    10    51    50    1
    11    67    68    1
    12    50    49    1
    13    50    53    1
    14    43    42    2
    15    49    42   am
    16    40    41    1
    17    42    41    1
    18    68    69    1
    19    68    71    1
    20    74    73    2
    21    41    44    1
    22    53    54    1
    23    69    70    2
    24    72    71    1
    25    72    73    1
    26    73    75   am
    27    44    45    1
    28    54    55   ar
    29    54    56   ar
    30    12    11    1
    31    47    46    2
    32    55    57   ar
    33    21    19   ar
    34    21    22   ar
    35    45    46    1
    36    56    58   ar
    37    10    11   ar
    38    10     8   ar
    39    11     9   ar
    40    19    18   ar
    41    46    48   am
    42    22    20   ar
    43     8     6   ar
    44    57    58   ar
    45     9     7   ar
    46    18    20   ar
    47    18    17    1
    48     6     7   ar
    49     6     5    1
    50     2     1    1
    51     2     5    1
    52     2     3    1
    53    17    14    1
    54    13     3   am
    55    13    14    1
    56    87    89   ar
    57    87    85   ar
    58     3     4    2
    59    89    88   ar
    60    14    15    1
    61    29    28    2
    62    84    85   ar
    63    84    82   ar
    64    85    83   ar
    65   106   105    1
    66    16    15    2
    67    34    33    2
    68    15    23   am
    69    88    86   ar
    70    38    37   ar
    71    97    95   am
    72    39    37   ar
    73   105   104    1
    74    82    81   ar
    75    28    27    1
    76    28    30   am
    77    33    32    1
    78    37    36    1
    79    35    36    1
    80    35    32    1
    81    83    86   ar
    82    83    81   ar
    83    23    24    1
    84    27    24    1
    85    81    80    1
    86    95    96    2
    87    95    94    1
    88    32    31    1
    89   104   103    1
    90    24    25    1
    91    80    77    1
    92    94    91    1
    93   103   102    1
    94    25    26    2
    95    93    92    2
    96    77    76    1
    97    77    78    1
    98    91    92    1
    99    91    90    1
   100    92    98   am
   101   102    99    1
   102    98    99    1
   103    99   100    1
   104    78    79    2
   105   100   101    2
