@<TRIPOS>MOLECULE
tmp/5lzqA00.pdb
 141 126 0 0 0
SMALL
GASTEIGER

@<TRIPOS>ATOM
      1  N         35.3850    2.7720  -48.8440 N.3   198  LYS198     -0.1245
      2  CA        34.5460    1.6080  -49.1030 C.3   198  LYS198      0.1561
      3  C         33.4200    1.8660  -50.0940 C.2   198  LYS198      0.2260
      4  O         33.0990    0.9900  -50.8970 O.2   198  LYS198     -0.2867
      5  CB        33.9790    1.0660  -47.7920 C.3   198  LYS198      0.0271
      6  CG        35.0140    0.3360  -46.9420 C.3   198  LYS198      0.0035
      7  CD        35.6930   -0.7900  -47.7230 C.3   198  LYS198      0.0206
      8  CE        37.1250   -0.4510  -48.1270 C.3   198  LYS198      0.1093
      9  NZ        37.7860   -1.5810  -48.8390 N.3   198  LYS198     -0.1314
     10  N         35.3480    1.9460  -53.4230 N.3   201  ASP201     -0.1239
     11  CA        35.8260    0.6170  -53.7940 C.3   201  ASP201      0.1674
     12  C         34.6800   -0.2940  -54.2260 C.2   201  ASP201      0.2266
     13  O         34.8000   -1.0290  -55.2100 O.2   201  ASP201     -0.2867
     14  CB        36.5900   -0.0200  -52.6290 C.3   201  ASP201      0.1410
     15  CG        37.2820   -1.3120  -53.0210 C.2   201  ASP201      0.3668
     16  OD1       37.5430   -1.5080  -54.2270 O.co2 201  ASP201     -0.2456
     17  OD2       37.5650   -2.1320  -52.1220 O.co2 201  ASP201     -0.2456
     18  N         34.6810   -1.5480  -58.0840 N.3   205  ASP205     -0.1239
     19  CA        34.8110   -2.9790  -58.3330 C.3   205  ASP205      0.1674
     20  C         33.5410   -3.5610  -58.9440 C.2   205  ASP205      0.2266
     21  O         33.6070   -4.2800  -59.9390 O.2   205  ASP205     -0.2867
     22  CB        35.1590   -3.7250  -57.0440 C.3   205  ASP205      0.1410
     23  CG        36.6030   -3.5300  -56.6290 C.2   205  ASP205      0.3668
     24  OD1       37.2290   -2.5540  -57.0930 O.co2 205  ASP205     -0.2456
     25  OD2       37.1150   -4.3590  -55.8480 O.co2 205  ASP205     -0.2456
     26  N         40.3720   -4.6460  -63.1820 N.3   216  GLU216     -0.1245
     27  CA        40.4520   -3.9130  -61.9240 C.3   216  GLU216      0.1567
     28  C         41.4250   -2.7450  -62.0350 C.2   216  GLU216      0.2260
     29  O         42.5130   -2.8910  -62.5870 O.2   216  GLU216     -0.2867
     30  CB        40.8680   -4.8410  -60.7820 C.3   216  GLU216      0.0388
     31  CG        40.7800   -4.1990  -59.4060 C.3   216  GLU216      0.1160
     32  CD        41.0610   -5.1780  -58.2840 C.2   216  GLU216      0.3649
     33  OE1       41.0800   -6.3980  -58.5500 O.co2 216  GLU216     -0.2457
     34  OE2       41.2600   -4.7290  -57.1360 O.co2 216  GLU216     -0.2457
     35  N         39.1410    4.9870  -55.4000 N.3   227  ASP227     -0.1239
     36  CA        39.5100    3.7620  -54.7030 C.3   227  ASP227      0.1674
     37  C         40.9170    3.8550  -54.1220 C.2   227  ASP227      0.2266
     38  O         41.1350    3.5220  -52.9570 O.2   227  ASP227     -0.2867
     39  CB        39.4090    2.5590  -55.6450 C.3   227  ASP227      0.1410
     40  CG        39.9180    1.2780  -55.0130 C.2   227  ASP227      0.3668
     41  OD1       39.6650    1.0650  -53.8080 O.co2 227  ASP227     -0.2456
     42  OD2       40.5720    0.4830  -55.7220 O.co2 227  ASP227     -0.2456
     43  N         42.2180    4.1120  -50.3300 N.3   231  ASP231     -0.1239
     44  CA        43.1870    3.1810  -49.7590 C.3   231  ASP231      0.1674
     45  C         44.2500    3.9330  -48.9740 C.2   231  ASP231      0.2266
     46  O         44.6940    3.4800  -47.9210 O.2   231  ASP231     -0.2867
     47  CB        43.8430    2.3320  -50.8490 C.3   231  ASP231      0.1410
     48  CG        42.8870    1.3310  -51.4640 C.2   231  ASP231      0.3668
     49  OD1       41.9940    0.8390  -50.7420 O.co2 231  ASP231     -0.2456
     50  OD2       43.0290    1.0340  -52.6690 O.co2 231  ASP231     -0.2456
     51  N         42.6780    2.7800  -45.2120 N.3   235  ASP235     -0.1239
     52  CA        43.4820    1.6260  -44.8140 C.3   235  ASP235      0.1674
     53  C         44.8150    2.0090  -44.1740 C.2   235  ASP235      0.2266
     54  O         45.4710    1.1730  -43.5520 O.2   235  ASP235     -0.2867
     55  CB        43.7370    0.7160  -46.0180 C.3   235  ASP235      0.1410
     56  CG        42.4710    0.0640  -46.5350 C.2   235  ASP235      0.3668
     57  OD1       41.3710    0.5130  -46.1520 O.co2 235  ASP235     -0.2456
     58  OD2       42.5770   -0.9030  -47.3190 O.co2 235  ASP235     -0.2456
     59  N         48.7630   -2.4020  -52.8000 N.3   464  ASP464     -0.1239
     60  CA        47.4990   -2.2550  -53.5150 C.3   464  ASP464      0.1674
     61  C         47.5340   -1.0380  -54.4350 C.2   464  ASP464      0.2266
     62  O         47.1580   -1.1170  -55.6090 O.2   464  ASP464     -0.2867
     63  CB        46.3380   -2.1390  -52.5260 C.3   464  ASP464      0.1410
     64  CG        44.9860   -2.1340  -53.2110 C.2   464  ASP464      0.3668
     65  OD1       44.8910   -2.6410  -54.3490 O.co2 464  ASP464     -0.2456
     66  OD2       44.0180   -1.6260  -52.6080 O.co2 464  ASP464     -0.2456
     67  N         49.7660   -7.4790  -52.4800 N.3   487  ASP487     -0.1239
     68  CA        48.4750   -6.9490  -52.0560 C.3   487  ASP487      0.1674
     69  C         47.6710   -7.9830  -51.2800 C.2   487  ASP487      0.2266
     70  O         47.0450   -7.6560  -50.2760 O.2   487  ASP487     -0.2867
     71  CB        47.6650   -6.4660  -53.2610 C.3   487  ASP487      0.1410
     72  CG        46.3200   -5.8900  -52.8660 C.2   487  ASP487      0.3668
     73  OD1       46.2280   -5.2870  -51.7750 O.co2 487  ASP487     -0.2456
     74  OD2       45.3550   -6.0450  -53.6440 O.co2 487  ASP487     -0.2456
     75  N         46.4940   -7.9470  -47.4730 N.3   491  ASN491     -0.1240
     76  CA        45.1390   -8.2420  -47.0260 C.3   491  ASN491      0.1653
     77  C         45.1410   -9.2070  -45.8510 C.2   491  ASN491      0.2266
     78  O         44.3100   -9.1020  -44.9500 O.2   491  ASN491     -0.2867
     79  CB        44.3050   -8.8160  -48.1720 C.3   491  ASN491      0.1155
     80  CG        44.0510   -7.8050  -49.2710 C.2   491  ASN491      0.2627
     81  OD1       44.0530   -6.5970  -49.0340 O.2   491  ASN491     -0.2716
     82  ND2       43.8270   -8.2970  -50.4850 N.am  491  ASN491     -0.0877
     83  N         38.1580  -11.3890  -50.2320 N.3   659  ASP659     -0.1239
     84  CA        39.0800  -10.6410  -51.0770 C.3   659  ASP659      0.1674
     85  C         40.1800  -11.5380  -51.6390 C.2   659  ASP659      0.2266
     86  O         40.4520  -11.5200  -52.8390 O.2   659  ASP659     -0.2867
     87  CB        39.6980   -9.4810  -50.2940 C.3   659  ASP659      0.1410
     88  CG        40.3520   -8.4530  -51.1950 C.2   659  ASP659      0.3668
     89  OD1       39.7390   -8.0800  -52.2170 O.co2 659  ASP659     -0.2456
     90  OD2       41.4780   -8.0160  -50.8810 O.co2 659  ASP659     -0.2456
     91  N         38.8590  -13.8530  -54.2930 N.3   662  LYS662     -0.1231
     92  CA        38.8050  -13.1030  -55.5420 C.3   662  LYS662      0.1693
     93  C         40.1870  -13.0720  -56.1880 C.2   662  LYS662      0.2591
     94  O         40.3380  -13.3880  -57.3690 O.2   662  LYS662     -0.2718
     95  CB        38.2940  -11.6800  -55.3020 C.3   662  LYS662      0.0285
     96  CG        38.2850  -10.7990  -56.5240 C.3   662  LYS662      0.0035
     97  CD        37.8050   -9.3910  -56.1970 C.3   662  LYS662      0.0206
     98  CE        38.8320   -8.5960  -55.3860 C.3   662  LYS662      0.1093
     99  NZ        40.1020   -8.3260  -56.1380 N.3   662  LYS662     -0.1314
    100  N         41.1930  -12.7020  -55.4000 N.am  663  LYS663     -0.1980
    101  CA        42.5730  -12.6690  -55.8750 C.3   663  LYS663      0.1596
    102  C         43.0720  -14.0670  -56.2420 C.2   663  LYS663      0.2287
    103  O         43.9570  -14.2190  -57.0830 O.2   663  LYS663     -0.2864
    104  CB        43.4890  -12.0520  -54.8140 C.3   663  LYS663      0.0298
    105  CG        43.0870  -10.6520  -54.3730 C.3   663  LYS663      0.0038
    106  CD        43.1820   -9.6510  -55.5100 C.3   663  LYS663      0.0206
    107  CE        44.6260   -9.4120  -55.9120 C.3   663  LYS663      0.1093
    108  NZ        44.7310   -8.3710  -56.9690 N.3   663  LYS663     -0.1314
    109  N         33.3750   -9.9990  -52.5800 N.3   687  ASP687     -0.1239
    110  CA        34.3810   -9.0510  -52.1180 C.3   687  ASP687      0.1674
    111  C         33.7580   -7.6940  -51.8070 C.2   687  ASP687      0.2266
    112  O         34.1540   -7.0290  -50.8530 O.2   687  ASP687     -0.2867
    113  CB        35.4900   -8.8930  -53.1590 C.3   687  ASP687      0.1410
    114  CG        36.6090   -7.9870  -52.6840 C.2   687  ASP687      0.3668
    115  OD1       36.8990   -7.9840  -51.4690 O.co2 687  ASP687     -0.2456
    116  OD2       37.1960   -7.2740  -53.5240 O.co2 687  ASP687     -0.2456
    117  N         33.8550   -5.8760  -48.2180 N.3   691  ASP691     -0.1239
    118  CA        34.5530   -4.5950  -48.1250 C.3   691  ASP691      0.1674
    119  C         34.0440   -3.7010  -46.9820 C.2   691  ASP691      0.2266
    120  O         34.8320   -3.3260  -46.1130 O.2   691  ASP691     -0.2867
    121  CB        34.4750   -3.8450  -49.4620 C.3   691  ASP691      0.1410
    122  CG        35.5040   -4.3300  -50.4660 C.2   691  ASP691      0.3668
    123  OD1       36.4230   -5.0760  -50.0660 O.co2 691  ASP691     -0.2456
    124  OD2       35.3920   -3.9700  -51.6560 O.co2 691  ASP691     -0.2456
    125  N         34.9230   -5.4120  -43.3860 N.3   694  LYS694     -0.1231
    126  CA        36.2750   -5.5570  -42.8520 C.3   694  LYS694      0.1693
    127  C         37.0060   -4.2260  -42.6850 C.2   694  LYS694      0.2592
    128  O         37.9540   -4.1310  -41.9060 O.2   694  LYS694     -0.2718
    129  CB        37.1100   -6.4820  -43.7430 C.3   694  LYS694      0.0285
    130  CG        37.4160   -5.9290  -45.1270 C.3   694  LYS694      0.0035
    131  CD        38.3480   -6.8600  -45.8910 C.3   694  LYS694      0.0206
    132  CE        38.6640   -6.3250  -47.2790 C.3   694  LYS694      0.1093
    133  NZ        37.4580   -6.2810  -48.1460 N.3   694  LYS694     -0.1314
    134  N         36.5710   -3.1990  -43.4100 N.am  695  ASP695     -0.1974
    135  CA        37.2920   -1.9300  -43.4160 C.3   695  ASP695      0.1709
    136  C         36.4700   -0.7490  -42.9010 C.2   695  ASP695      0.2293
    137  O         36.8810    0.4030  -43.0390 O.2   695  ASP695     -0.2864
    138  CB        37.7930   -1.6220  -44.8280 C.3   695  ASP695      0.1436
    139  CG        38.7660   -2.6660  -45.3410 C.2   695  ASP695      0.3671
    140  OD1       39.5120   -3.2400  -44.5200 O.co2 695  ASP695     -0.2456
    141  OD2       38.7850   -2.9120  -46.5660 O.co2 695  ASP695     -0.2456
@<TRIPOS>BOND
     1    26    27    1
     2    29    28    2
     3    28    27    1
     4    27    30    1
     5    30    31    1
     6    21    20    2
     7    31    32    1
     8    20    19    1
     9    33    32   ar
    10    19    18    1
    11    19    22    1
    12    32    34   ar
    13    94    93    2
    14    24    23   ar
    15   103   102    2
    16    22    23    1
    17   108   107    1
    18    23    25   ar
    19    96    97    1
    20    96    95    1
    21   102   101    1
    22    97    98    1
    23    93    92    1
    24    93   100   am
    25    99    98    1
    26   107   106    1
    27   101   100    1
    28   101   104    1
    29    42    40   ar
    30    39    40    1
    31    39    36    1
    32    62    61    2
    33    92    95    1
    34    92    91    1
    35   106   105    1
    36    35    36    1
    37    13    12    2
    38    40    41   ar
    39   104   105    1
    40    36    37    1
    41    61    60    1
    42    65    64   ar
    43    16    15   ar
    44    12    11    1
    45    37    38    2
    46    11    10    1
    47    11    14    1
    48    74    72   ar
    49   116   114   ar
    50    60    59    1
    51    60    63    1
    52    71    72    1
    53    71    68    1
    54    64    66   ar
    55    64    63    1
    56   113   114    1
    57   113   110    1
    58    15    14    1
    59    15    17   ar
    60    72    73   ar
    61    86    85    2
    62   114   115   ar
    63    50    48   ar
    64   109   110    1
    65    67    68    1
    66    89    88   ar
    67   110   111    1
    68    68    69    1
    69   111   112    2
    70   124   122   ar
    71    85    84    1
    72    48    47    1
    73    48    49   ar
    74    69    70    2
    75    88    90   ar
    76    88    87    1
    77    84    87    1
    78    84    83    1
    79     4     3    2
    80    47    44    1
    81    82    80   am
    82   122   123   ar
    83   122   121    1
    84    43    44    1
    85     3     2    1
    86    44    45    1
    87   121   118    1
    88    80    81    2
    89    80    79    1
    90     2     1    1
    91     2     5    1
    92    45    46    2
    93     9     8    1
    94   117   118    1
    95    79    76    1
    96   133   132    1
    97     8     7    1
    98   118   119    1
    99     5     6    1
   100     7     6    1
   101    75    76    1
   102    58    56   ar
   103   132   131    1
   104    76    77    1
   105   119   120    2
   106   141   139   ar
   107    56    57   ar
   108    56    55    1
   109    55    52    1
   110   131   130    1
   111    77    78    2
   112   139   138    1
   113   139   140   ar
   114    51    52    1
   115   130   129    1
   116   138   135    1
   117    52    53    1
   118    53    54    2
   119   129   126    1
   120   135   134    1
   121   135   136    1
   122   134   127   am
   123   125   126    1
   124   137   136    2
   125   126   127    1
   126   127   128    2
