@<TRIPOS>MOLECULE
tmp/5m03A02.pdb
 123 121 0 0 0
SMALL
GASTEIGER

@<TRIPOS>ATOM
      1  N         -2.6600   26.5210   -1.6530 N.3   164  TYR164     -0.1227
      2  CA        -1.7970   25.3540   -1.5050 C.3   164  TYR164      0.1736
      3  C         -2.6050   24.0890   -1.5980 C.2   164  TYR164      0.2595
      4  O         -3.7410   23.9720   -1.1180 O.2   164  TYR164     -0.2718
      5  CB        -0.9980   25.4210   -0.2080 C.3   164  TYR164      0.0548
      6  CG         0.0240   24.3050   -0.1580 C.ar  164  TYR164     -0.0200
      7  CD1        1.1170   24.2880   -1.0260 C.ar  164  TYR164     -0.0009
      8  CD2       -0.1060   23.2230    0.7190 C.ar  164  TYR164     -0.0009
      9  CE1        1.9950   23.2320   -1.0560 C.ar  164  TYR164      0.0417
     10  CE2        0.7920   22.1680    0.6760 C.ar  164  TYR164      0.0417
     11  CZ         1.8130   22.1690   -0.2290 C.ar  164  TYR164      0.1957
     12  OH         2.6940   21.1090   -0.3030 O.3   164  TYR164     -0.2866
     13  N         -2.0510   23.0790   -2.2970 N.am  165  ASP165     -0.1974
     14  CA        -2.7060   21.7870   -2.4440 C.3   165  ASP165      0.1709
     15  C         -4.1190   21.9540   -2.9570 C.2   165  ASP165      0.2293
     16  O         -5.0730   21.2820   -2.5060 O.2   165  ASP165     -0.2864
     17  CB        -2.6100   20.8920   -1.1890 C.3   165  ASP165      0.1436
     18  CG        -1.2480   20.2280   -1.0580 C.2   165  ASP165      0.3671
     19  OD1       -0.3640   20.5010   -1.9010 O.co2 165  ASP165     -0.2456
     20  OD2       -1.0740   19.4600   -0.0890 O.co2 165  ASP165     -0.2456
     21  N          5.3750   26.0190   -5.9890 N.3   221  TYR221     -0.1227
     22  CA         5.7780   25.9780   -4.5820 C.3   221  TYR221      0.1736
     23  C          7.1320   25.3200   -4.2800 C.2   221  TYR221      0.2595
     24  O          8.0220   25.9520   -3.6890 O.2   221  TYR221     -0.2718
     25  CB         4.7160   25.3900   -3.6140 C.3   221  TYR221      0.0548
     26  CG         5.1610   25.6320   -2.2050 C.ar  221  TYR221     -0.0200
     27  CD1        5.0400   26.8780   -1.6170 C.ar  221  TYR221     -0.0009
     28  CD2        5.8410   24.6580   -1.4840 C.ar  221  TYR221     -0.0009
     29  CE1        5.5860   27.1540   -0.3810 C.ar  221  TYR221      0.0417
     30  CE2        6.4110   24.9260   -0.2430 C.ar  221  TYR221      0.0417
     31  CZ         6.2800   26.1710    0.3080 C.ar  221  TYR221      0.1957
     32  OH         6.8990   26.4210    1.5250 O.3   221  TYR221     -0.2866
     33  N          7.3030   24.0410   -4.5970 N.am  222  PHE222     -0.1976
     34  CA         8.3720   23.2690   -3.9510 C.3   222  PHE222      0.1639
     35  C          9.7310   23.8330   -4.3230 C.2   222  PHE222      0.2290
     36  O         10.0530   23.9950   -5.5040 O.2   222  PHE222     -0.2864
     37  CB         8.2590   21.7910   -4.3010 C.3   222  PHE222      0.0560
     38  CG         6.8640   21.2850   -4.0350 C.ar  222  PHE222     -0.0200
     39  CD1        6.4390   21.1050   -2.7270 C.ar  222  PHE222     -0.0042
     40  CD2        5.9540   21.0710   -5.0370 C.ar  222  PHE222     -0.0042
     41  CE1        5.1280   20.7980   -2.4460 C.ar  222  PHE222     -0.0003
     42  CE2        4.6470   20.7370   -4.7560 C.ar  222  PHE222     -0.0003
     43  CZ         4.2440   20.6110   -3.4850 C.ar  222  PHE222     -0.0000
     44  N         10.9890   17.4840   -7.3690 N.3   227  PHE227     -0.1241
     45  CA        10.0420   16.8840   -6.4300 C.3   227  PHE227      0.1605
     46  C          8.7040   16.5830   -7.1160 C.2   227  PHE227      0.2264
     47  O          8.0720   15.5570   -6.8460 O.2   227  PHE227     -0.2867
     48  CB         9.8670   17.7680   -5.1950 C.3   227  PHE227      0.0534
     49  CG         8.9510   17.1700   -4.1700 C.ar  227  PHE227     -0.0203
     50  CD1        9.2860   15.9950   -3.5590 C.ar  227  PHE227     -0.0042
     51  CD2        7.7420   17.7840   -3.8210 C.ar  227  PHE227     -0.0042
     52  CE1        8.4340   15.4300   -2.6230 C.ar  227  PHE227     -0.0003
     53  CE2        6.9170   17.2070   -2.8890 C.ar  227  PHE227     -0.0003
     54  CZ         7.2490   16.0200   -2.3080 C.ar  227  PHE227     -0.0000
     55  N         16.7650   22.7660   -0.0660 N.3   258  TYR258     -0.1241
     56  CA        15.7310   22.0790    0.7050 C.3   258  TYR258      0.1605
     57  C         16.3870   21.0840    1.6400 C.2   258  TYR258      0.2264
     58  O         17.2340   20.2880    1.1880 O.2   258  TYR258     -0.2867
     59  CB        14.7230   21.3620   -0.2030 C.3   258  TYR258      0.0534
     60  CG        13.5490   20.7920    0.5350 C.ar  258  TYR258     -0.0201
     61  CD1       13.6260   19.5630    1.1640 C.ar  258  TYR258     -0.0009
     62  CD2       12.3640   21.5120    0.6610 C.ar  258  TYR258     -0.0009
     63  CE1       12.5570   19.0550    1.9000 C.ar  258  TYR258      0.0417
     64  CE2       11.2950   21.0260    1.3620 C.ar  258  TYR258      0.0417
     65  CZ        11.3910   19.8030    1.9920 C.ar  258  TYR258      0.1957
     66  OH        10.3080   19.3410    2.7140 O.3   258  TYR258     -0.2866
     67  N         14.7330   18.9050    5.2810 N.3   260  ASP260     -0.1239
     68  CA        13.7380   18.8610    6.3460 C.3   260  ASP260      0.1674
     69  C         13.9580   17.6850    7.2730 C.2   260  ASP260      0.2266
     70  O         13.0180   17.2690    7.9680 O.2   260  ASP260     -0.2867
     71  CB        12.3250   18.7930    5.7510 C.3   260  ASP260      0.1410
     72  CG        12.0100   17.5200    5.0380 C.2   260  ASP260      0.3668
     73  OD1       12.8460   16.6220    4.9790 O.co2 260  ASP260     -0.2456
     74  OD2       10.8670   17.4400    4.4630 O.co2 260  ASP260     -0.2456
     75  N         11.5380   15.4200    9.4600 N.3   264  ARG264     -0.1245
     76  CA        11.1370   14.3080    8.5800 C.3   264  ARG264      0.1563
     77  C         12.3980   13.5030    8.2620 C.2   264  ARG264      0.2260
     78  O         12.9450   13.5720    7.1540 O.2   264  ARG264     -0.2867
     79  CB        10.4590   14.7940    7.2860 C.3   264  ARG264      0.0307
     80  CG         9.2740   15.7290    7.5290 C.3   264  ARG264      0.0489
     81  CD         8.4460   15.9710    6.3010 C.3   264  ARG264      0.2205
     82  NE         7.3900   16.9720    6.4950 N.pl3 264  ARG264     -0.0865
     83  CZ         7.4180   18.2360    6.0980 C.cat 264  ARG264      0.5346
     84  NH1        8.4610   18.7550    5.4850 N.pl3 264  ARG264      0.1354
     85  NH2        6.3940   19.0240    6.3580 N.pl3 264  ARG264      0.1354
     86  N         13.1330   10.5740    7.5080 N.3   266  TRP266     -0.1227
     87  CA        12.9780    9.6450    6.3820 C.3   266  TRP266      0.1737
     88  C         12.9650   10.3110    5.0160 C.2   266  TRP266      0.2595
     89  O         12.9070    9.6090    3.9940 O.2   266  TRP266     -0.2718
     90  CB        11.6500    8.8450    6.5960 C.3   266  TRP266      0.0564
     91  CG        10.5160    9.7470    6.9890 C.ar  266  TRP266      0.0003
     92  CD1       10.1220   10.0210    8.2610 C.ar  266  TRP266      0.0946
     93  CD2        9.6710   10.5300    6.1340 C.ar  266  TRP266      0.0152
     94  NE1        9.1340   10.9660    8.2650 N.ar  266  TRP266     -0.2442
     95  CE2        8.8070   11.2730    6.9660 C.ar  266  TRP266      0.0810
     96  CE3        9.5550   10.6670    4.7510 C.ar  266  TRP266      0.0012
     97  CZ2        7.8260   12.1440    6.4600 C.ar  266  TRP266      0.0191
     98  CZ3        8.5670   11.5420    4.2450 C.ar  266  TRP266      0.0001
     99  CH2        7.7170   12.2430    5.0950 C.ar  266  TRP266      0.0015
    100  N         12.9920   11.6490    4.9510 N.am  267  ASN267     -0.1974
    101  CA        12.7760   12.3740    3.7010 C.3   267  ASN267      0.1688
    102  C         14.0640   12.8840    3.0580 C.2   267  ASN267      0.2292
    103  O         14.0360   13.8530    2.2880 O.2   267  ASN267     -0.2864
    104  CB        11.7770   13.5120    3.9440 C.3   267  ASN267      0.1181
    105  CG        11.0590   13.9640    2.7000 C.2   267  ASN267      0.2629
    106  OD1       10.7500   13.1370    1.8380 O.2   267  ASN267     -0.2716
    107  ND2       10.6940   15.2390    2.6270 N.am  267  ASN267     -0.0877
    108  N         14.7890   14.1630   -0.7050 N.3   270  VAL270     -0.1245
    109  CA        14.3670   15.4840   -1.1610 C.3   270  VAL270      0.1561
    110  C         15.4130   16.5550   -0.8600 C.2   270  VAL270      0.2260
    111  O         15.2660   17.7000   -1.2640 O.2   270  VAL270     -0.2867
    112  CB        12.9490   15.8120   -0.5980 C.3   270  VAL270      0.0252
    113  CG1       12.3620   17.0620   -1.2040 C.3   270  VAL270      0.0019
    114  CG2       12.0120   14.6500   -0.8750 C.3   270  VAL270      0.0019
    115  N         11.7910   23.2730    6.6450 N.3   305  GLU305     -0.1245
    116  CA        12.0740   22.7040    5.3420 C.3   305  GLU305      0.1567
    117  C         13.3770   23.1750    4.7380 C.2   305  GLU305      0.2260
    118  O         13.7530   22.7200    3.6570 O.2   305  GLU305     -0.2867
    119  CB        10.8720   22.9210    4.4170 C.3   305  GLU305      0.0388
    120  CG         9.6900   22.0960    4.8720 C.3   305  GLU305      0.1160
    121  CD         8.4710   22.1220    4.0060 C.2   305  GLU305      0.3649
    122  OE1        8.2220   23.1520    3.3200 O.co2 305  GLU305     -0.2457
    123  OE2        7.6850   21.1380    4.0840 O.co2 305  GLU305     -0.2457
@<TRIPOS>BOND
     1    44    45    1
     2    46    47    2
     3    46    45    1
     4    45    48    1
     5    21    22    1
     6    36    35    2
     7    48    49    1
     8    40    42   ar
     9    40    38   ar
    10    42    43   ar
    11    33    23   am
    12    33    34    1
    13    22    23    1
    14    22    25    1
    15    35    34    1
    16    37    38    1
    17    37    34    1
    18    23    24    2
    19    49    51   ar
    20    49    50   ar
    21    38    39   ar
    22    51    53   ar
    23    25    26    1
    24    50    52   ar
    25    43    41   ar
    26    15    16    2
    27    15    14    1
    28    53    54   ar
    29    39    41   ar
    30    52    54   ar
    31    14    13    1
    32    14    17    1
    33    13     3   am
    34    26    27   ar
    35    26    28   ar
    36    19    18   ar
    37     1     2    1
    38    27    29   ar
    39     3     2    1
    40     3     4    2
    41     2     5    1
    42    28    30   ar
    43   111   110    2
    44   113   112    1
    45    17    18    1
    46   109   110    1
    47   109   108    1
    48   109   112    1
    49    18    20   ar
    50     9     7   ar
    51     9    11   ar
    52     7     6   ar
    53   114   112    1
    54    29    31   ar
    55    12    11    1
    56    30    31   ar
    57    11    10   ar
    58     5     6    1
    59    59    60    1
    60    59    56    1
    61     6     8   ar
    62    55    56    1
    63    31    32    1
    64    60    62   ar
    65    60    61   ar
    66    62    64   ar
    67    10     8   ar
    68    56    57    1
    69    61    63   ar
    70    58    57    2
    71    64    65   ar
    72   106   105    2
    73    63    65   ar
    74    65    66    1
    75   103   102    2
    76   107   105   am
    77   105   104    1
    78   102   101    1
    79   122   121   ar
    80   118   117    2
    81   101   104    1
    82   101   100    1
    83    89    88    2
    84   121   123   ar
    85   121   120    1
    86    98    96   ar
    87    98    99   ar
    88   119   120    1
    89   119   116    1
    90    74    72   ar
    91   117   116    1
    92    96    93   ar
    93   100    88   am
    94    73    72   ar
    95    88    87    1
    96    72    71    1
    97    99    97   ar
    98    67    68    1
    99   116   115    1
   100    84    83    1
   101    71    68    1
   102    83    85    1
   103    83    82    2
   104    93    95   ar
   105    93    91   ar
   106    81    82    1
   107    81    80    1
   108    68    69    1
   109    87    90    1
   110    87    86    1
   111    97    95   ar
   112    90    91    1
   113    95    94   ar
   114    91    92   ar
   115    78    77    2
   116    69    70    2
   117    79    80    1
   118    79    76    1
   119    92    94   ar
   120    77    76    1
   121    76    75    1
