@<TRIPOS>MOLECULE
tmp/5m04A00.pdb
 95 92 0 0 0
SMALL
GASTEIGER

@<TRIPOS>ATOM
      1  N         -9.5930   37.7070   12.3000 N.3   167  PRO167     -0.2102
      2  CA        -9.2100   38.9000   11.5410 C.3   167  PRO167      0.1504
      3  C         -7.8570   39.4570   12.0250 C.2   167  PRO167      0.2576
      4  O         -7.6060   39.4760   13.1960 O.2   167  PRO167     -0.2718
      5  CB       -10.3560   39.8880   11.8060 C.3   167  PRO167      0.0282
      6  CG       -11.4930   39.0860   12.3320 C.3   167  PRO167      0.0208
      7  CD       -10.9340   37.8110   12.9130 C.3   167  PRO167      0.0893
      8  N         -7.0070   39.8750   11.0870 N.am  168  ASN168     -0.1961
      9  CA        -5.6790   40.4650   11.3750 C.3   168  ASN168      0.1819
     10  C         -4.5940   39.5080   11.8950 C.2   168  ASN168      0.2621
     11  O         -3.5370   39.9540   12.3150 O.2   168  ASN168     -0.2715
     12  CB        -5.7920   41.6830   12.3030 C.3   168  ASN168      0.1195
     13  CG        -6.7020   42.7530   11.7410 C.2   168  ASN168      0.2630
     14  OD1       -7.5790   43.2610   12.4310 O.2   168  ASN168     -0.2716
     15  ND2       -6.5150   43.0780   10.4820 N.am  168  ASN168     -0.0877
     16  N         -4.8420   38.2030   11.8370 N.am  169  ALA169     -0.1963
     17  CA        -3.8020   37.1860   12.0900 C.3   169  ALA169      0.1728
     18  C         -2.6260   37.1760   11.0760 C.2   169  ALA169      0.2617
     19  O         -1.5020   36.7790   11.4420 O.2   169  ALA169     -0.2715
     20  CB        -4.4330   35.8190   12.1540 C.3   169  ALA169      0.0334
     21  N         -2.9000   37.6070    9.8380 N.am  170  GLY170     -0.1940
     22  CA        -1.9410   37.6230    8.7170 C.3   170  GLY170      0.2014
     23  C         -2.2450   36.6380    7.5750 C.2   170  GLY170      0.2639
     24  O         -1.3660   36.3090    6.7950 O.2   170  GLY170     -0.2714
     25  N         -3.5110   36.2610    7.4170 N.am  171  LYS171     -0.1963
     26  CA        -3.9480   35.2680    6.4350 C.3   171  LYS171      0.1728
     27  C         -3.7560   35.7350    5.0050 C.2   171  LYS171      0.2617
     28  O         -3.1700   35.0230    4.2210 O.2   171  LYS171     -0.2715
     29  CB        -5.4210   34.8830    6.6760 C.3   171  LYS171      0.0311
     30  CG        -5.6420   34.2530    8.0420 C.3   171  LYS171      0.0038
     31  CD        -7.0680   33.7390    8.2560 C.3   171  LYS171      0.0206
     32  CE        -8.1200   34.8050    8.0060 C.3   171  LYS171      0.1093
     33  NZ        -8.0660   35.8700    9.0350 N.3   171  LYS171     -0.1314
     34  N         -4.1910   36.9530    4.6550 N.am  172  SER172     -0.1936
     35  CA        -4.0070   37.3870    3.2880 C.3   172  SER172      0.2055
     36  C         -2.5370   37.7310    3.0540 C.2   172  SER172      0.2643
     37  O         -2.0510   37.5460    1.9570 O.2   172  SER172     -0.2714
     38  CB        -4.9960   38.5090    2.9250 C.3   172  SER172      0.2130
     39  OG        -4.6460   39.6470    3.6210 O.3   172  SER172     -0.2179
     40  N         -1.8120   38.1920    4.0760 N.am  173  THR173     -0.1950
     41  CA        -0.3530   38.4230    3.9670 C.3   173  THR173      0.1897
     42  C          0.3400   37.0810    3.6450 C.2   173  THR173      0.2313
     43  O          1.1530   36.9720    2.7150 O.2   173  THR173     -0.2863
     44  CB         0.2350   39.0480    5.2530 C.3   173  THR173      0.1794
     45  OG1       -0.4140   40.3110    5.4850 O.3   173  THR173     -0.2208
     46  CG2        1.7970   39.2920    5.1440 C.3   173  THR173      0.0378
     47  N          2.2990   33.4640   14.0050 N.3   282  ASN282     -0.1225
     48  CA         2.7670   34.4730   13.0790 C.3   282  ASN282      0.1785
     49  C          3.2040   35.7700   13.7950 C.2   282  ASN282      0.2597
     50  O          2.8540   35.9840   14.9510 O.2   282  ASN282     -0.2718
     51  CB         1.6240   34.8140   12.1350 C.3   282  ASN282      0.1169
     52  CG         2.0650   35.6300   10.9510 C.2   282  ASN282      0.2627
     53  OD1        3.1890   35.4810   10.4380 O.2   282  ASN282     -0.2716
     54  ND2        1.1860   36.5280   10.5060 N.am  282  ASN282     -0.0877
     55  N          3.9260   36.6130   13.0730 N.am  283  LYS283     -0.1980
     56  CA         4.4570   37.9210   13.5590 C.3   283  LYS283      0.1596
     57  C          5.5610   37.7530   14.6240 C.2   283  LYS283      0.2287
     58  O          5.6630   38.5560   15.5430 O.2   283  LYS283     -0.2864
     59  CB         3.3340   38.8500   14.0510 C.3   283  LYS283      0.0298
     60  CG         2.0860   38.8580   13.1740 C.3   283  LYS283      0.0038
     61  CD         1.2500   40.1160   13.3500 C.3   283  LYS283      0.0206
     62  CE        -0.1070   39.9530   12.7000 C.3   283  LYS283      0.1093
     63  NZ        -0.9850   41.1120   12.9790 N.3   283  LYS283     -0.1314
     64  N          8.6760   38.1240   14.0130 N.3   285  ASP285     -0.1225
     65  CA         9.6410   39.2010   13.7530 C.3   285  ASP285      0.1805
     66  C          9.5670   40.3490   14.7830 C.2   285  ASP285      0.2597
     67  O         10.5700   40.9910   15.0350 O.2   285  ASP285     -0.2718
     68  CB         9.4550   39.7860   12.3420 C.3   285  ASP285      0.1424
     69  CG         8.0200   40.3130   12.1050 C.2   285  ASP285      0.3668
     70  OD1        7.0720   39.4820   11.9850 O.co2 285  ASP285     -0.2456
     71  OD2        7.8150   41.5440   12.0610 O.co2 285  ASP285     -0.2456
     72  N          8.3830   40.6130   15.3340 N.am  286  LEU286     -0.1979
     73  CA         8.1900   41.6850   16.3170 C.3   286  LEU286      0.1596
     74  C          8.8570   41.3780   17.6510 C.2   286  LEU286      0.2287
     75  O          9.2150   42.2980   18.3720 O.2   286  LEU286     -0.2864
     76  CB         6.7050   41.9270   16.5670 C.3   286  LEU286      0.0297
     77  CG         5.8820   42.3770   15.3610 C.3   286  LEU286      0.0022
     78  CD1        4.4540   42.6540   15.7930 C.3   286  LEU286      0.0001
     79  CD2        6.4960   43.5890   14.6640 C.3   286  LEU286      0.0001
     80  N          7.2200   34.4600   10.2580 N.3   313  SER313     -0.1202
     81  CA         6.8000   35.8390    9.9640 C.3   313  SER313      0.2020
     82  C          6.3360   35.8730    8.5440 C.2   313  SER313      0.2619
     83  O          7.1430   35.7770    7.6170 O.2   313  SER313     -0.2717
     84  CB         7.9420   36.8500   10.1250 C.3   313  SER313      0.2103
     85  OG         7.5040   38.1970    9.7790 O.3   313  SER313     -0.2182
     86  N          5.0520   36.0650    8.3520 N.am  314  ALA314     -0.1965
     87  CA         4.5230   36.2040    7.0010 C.3   314  ALA314      0.1728
     88  C          5.0340   37.4560    6.2990 C.2   314  ALA314      0.2616
     89  O          5.1950   37.4390    5.0590 O.2   314  ALA314     -0.2715
     90  CB         3.0020   36.2150    7.0430 C.3   314  ALA314      0.0334
     91  N          5.3100   38.5110    7.0950 N.am  315  ALA315     -0.1977
     92  CA         5.9590   39.7650    6.5910 C.3   315  ALA315      0.1597
     93  C          7.3850   39.5830    6.0660 C.2   315  ALA315      0.2287
     94  O          7.6800   39.9610    4.9160 O.2   315  ALA315     -0.2864
     95  CB         5.9410   40.8520    7.6510 C.3   315  ALA315      0.0319
@<TRIPOS>BOND
     1    37    36    2
     2    43    42    2
     3    38    35    1
     4    38    39    1
     5    36    35    1
     6    36    40   am
     7    35    34    1
     8    42    41    1
     9    41    40    1
    10    41    44    1
    11    28    27    2
    12    34    27   am
    13    94    93    2
    14    27    26    1
    15    89    88    2
    16    46    44    1
    17    44    45    1
    18    93    92    1
    19    88    87    1
    20    88    91   am
    21    26    29    1
    22    26    25    1
    23    92    91    1
    24    92    95    1
    25    29    30    1
    26    24    23    2
    27    87    90    1
    28    87    86    1
    29    25    23   am
    30    23    22    1
    31    83    82    2
    32    32    31    1
    33    32    33    1
    34    30    31    1
    35    86    82   am
    36    82    81    1
    37    22    21    1
    38    85    84    1
    39    21    18   am
    40    81    84    1
    41    81    80    1
    42    53    52    2
    43    15    13   am
    44    54    52   am
    45    52    51    1
    46    18    19    2
    47    18    17    1
    48     8     9    1
    49     8     3   am
    50     9    10    1
    51     9    12    1
    52     2     5    1
    53     2     3    1
    54     2     1    1
    55    13    12    1
    56    13    14    2
    57     5     6    1
    58    16    10   am
    59    16    17    1
    60    10    11    2
    61    70    69   ar
    62     3     4    2
    63    71    69   ar
    64    17    20    1
    65    69    68    1
    66    51    48    1
    67     1     7    1
    68     6     7    1
    69    68    65    1
    70    62    63    1
    71    62    61    1
    72    55    56    1
    73    55    49   am
    74    48    49    1
    75    48    47    1
    76    60    61    1
    77    60    59    1
    78    56    59    1
    79    56    57    1
    80    65    64    1
    81    65    66    1
    82    49    50    2
    83    57    58    2
    84    79    77    1
    85    66    67    2
    86    66    72   am
    87    72    73    1
    88    77    78    1
    89    77    76    1
    90    73    76    1
    91    73    74    1
    92    74    75    2
