@<TRIPOS>MOLECULE
tmp/5m0bA00.pdb
 159 150 0 0 0
SMALL
GASTEIGER

@<TRIPOS>ATOM
      1  N         16.4440  -26.9170  -32.0550 N.3    51  LEU51      -0.1231
      2  CA        15.5790  -27.2340  -30.9210 C.3    51  LEU51       0.1693
      3  C         14.1630  -26.7200  -31.0780 C.2    51  LEU51       0.2593
      4  O         13.2490  -27.2320  -30.4170 O.2    51  LEU51      -0.2718
      5  CB        16.1580  -26.6170  -29.6410 C.3    51  LEU51       0.0284
      6  CG        17.4730  -27.2350  -29.1920 C.3    51  LEU51       0.0019
      7  CD1       18.1290  -26.3700  -28.1430 C.3    51  LEU51       0.0001
      8  CD2       17.2500  -28.6460  -28.6690 C.3    51  LEU51       0.0001
      9  N         13.9750  -25.6950  -31.8950 N.am   52  GLY52      -0.1942
     10  CA        12.6790  -25.0760  -32.0400 C.3    52  GLY52       0.2014
     11  C         12.8520  -23.6530  -32.5230 C.2    52  GLY52       0.2640
     12  O         13.8960  -23.2880  -33.0700 O.2    52  GLY52      -0.2714
     13  N         11.8100  -22.8660  -32.3100 N.am   53  THR53      -0.1936
     14  CA        11.8540  -21.4680  -32.6640 C.3    53  THR53       0.2028
     15  C         11.7010  -20.6170  -31.4140 C.2    53  THR53       0.2642
     16  O         11.3280  -21.0970  -30.3400 O.2    53  THR53      -0.2714
     17  CB        10.7550  -21.1110  -33.6560 C.3    53  THR53       0.1808
     18  OG1        9.4820  -21.2800  -33.0180 O.3    53  THR53      -0.2208
     19  CG2       10.8640  -21.9870  -34.8940 C.3    53  THR53       0.0379
     20  N         12.0340  -19.3470  -31.5760 N.am   54  GLY54      -0.1954
     21  CA        11.6280  -18.3110  -30.6510 C.3    54  GLY54       0.1869
     22  C         11.1860  -17.1310  -31.4840 C.2    54  GLY54       0.2309
     23  O         11.2860  -17.1620  -32.7080 O.2    54  GLY54      -0.2863
     24  N         16.1570  -21.5660  -32.8500 N.3    59  VAL59      -0.1245
     25  CA        17.0020  -21.8860  -31.7050 C.3    59  VAL59       0.1561
     26  C         17.7320  -23.1980  -31.9740 C.2    59  VAL59       0.2260
     27  O         17.1040  -24.2180  -32.2840 O.2    59  VAL59      -0.2867
     28  CB        16.1800  -21.9450  -30.4110 C.3    59  VAL59       0.0252
     29  CG1       17.0740  -22.2560  -29.2180 C.3    59  VAL59       0.0019
     30  CG2       15.4390  -20.6070  -30.2050 C.3    59  VAL59       0.0019
     31  N         21.6850  -23.2520  -25.8890 N.3    72  ALA72      -0.1245
     32  CA        20.6180  -23.0470  -26.8620 C.3    72  ALA72       0.1562
     33  C         20.7850  -21.6580  -27.4490 C.2    72  ALA72       0.2260
     34  O         20.5620  -20.6550  -26.7660 O.2    72  ALA72      -0.2867
     35  CB        19.2450  -23.2060  -26.2220 C.3    72  ALA72       0.0290
     36  N         19.7590  -18.7960  -30.0030 N.3    74  LYS74      -0.1245
     37  CA        18.7740  -18.2130  -30.8950 C.3    74  LYS74       0.1561
     38  C         19.4820  -17.3660  -31.9500 C.2    74  LYS74       0.2260
     39  O         20.3300  -16.5240  -31.6200 O.2    74  LYS74      -0.2867
     40  CB        17.7630  -17.3700  -30.1160 C.3    74  LYS74       0.0271
     41  CG        16.6520  -16.8360  -31.0240 C.3    74  LYS74       0.0035
     42  CD        15.3070  -16.7130  -30.3270 C.3    74  LYS74       0.0206
     43  CE        14.9750  -15.3130  -30.0700 C.3    74  LYS74       0.1093
     44  NZ        13.6670  -15.0630  -29.3800 N.3    74  LYS74      -0.1314
     45  N         15.3080  -17.9150  -18.0620 N.3   106  VAL106     -0.1245
     46  CA        16.4510  -18.4620  -18.7800 C.3   106  VAL106      0.1561
     47  C         17.5620  -17.4280  -18.8230 C.2   106  VAL106      0.2260
     48  O         17.3190  -16.2320  -19.0140 O.2   106  VAL106     -0.2867
     49  CB        16.0540  -18.9060  -20.1990 C.3   106  VAL106      0.0252
     50  CG1       15.7950  -17.7110  -21.1260 C.3   106  VAL106      0.0019
     51  CG2       17.1230  -19.8380  -20.7980 C.3   106  VAL106      0.0019
     52  N         21.7320  -18.8950  -24.9560 N.3   122  MET122     -0.1230
     53  CA        21.0550  -19.1220  -23.6900 C.3   122  MET122      0.1702
     54  C         21.4830  -20.4550  -23.0960 C.2   122  MET122      0.2592
     55  O         22.0500  -21.3160  -23.7700 O.2   122  MET122     -0.2718
     56  CB        19.5450  -19.1150  -23.8950 C.3   122  MET122      0.0401
     57  CG        18.9740  -17.7450  -24.1990 C.3   122  MET122      0.0596
     58  SD        17.2570  -17.8250  -24.7760 S.3   122  MET122     -0.1393
     59  CE        17.5800  -18.3240  -26.4860 C.3   122  MET122      0.0692
     60  N         21.1820  -20.6270  -21.8140 N.am  123  GLU123     -0.1966
     61  CA        21.2640  -21.9490  -21.2210 C.3   123  GLU123      0.1733
     62  C         20.4580  -22.9350  -22.0510 C.2   123  GLU123      0.2616
     63  O         19.3380  -22.6370  -22.4840 O.2   123  GLU123     -0.2715
     64  CB        20.6910  -21.9640  -19.8050 C.3   123  GLU123      0.0429
     65  CG        21.1430  -20.9390  -18.8390 C.3   123  GLU123      0.1163
     66  CD        20.3680  -21.1090  -17.5270 C.2   123  GLU123      0.3649
     67  OE1       19.3120  -20.4190  -17.3330 O.co2 123  GLU123     -0.2457
     68  OE2       20.7980  -21.9980  -16.7490 O.co2 123  GLU123     -0.2457
     69  N         20.9850  -24.1510  -22.1770 N.am  124  TYR124     -0.1960
     70  CA        20.2180  -25.2500  -22.7430 C.3   124  TYR124      0.1771
     71  C         19.3910  -25.8640  -21.6350 C.2   124  TYR124      0.2619
     72  O         19.9410  -26.2820  -20.6040 O.2   124  TYR124     -0.2715
     73  CB        21.1390  -26.2940  -23.3550 C.3   124  TYR124      0.0574
     74  CG        20.4290  -27.5240  -23.8820 C.ar  124  TYR124     -0.0198
     75  CD1       19.2580  -27.4120  -24.6110 C.ar  124  TYR124     -0.0009
     76  CD2       20.9610  -28.7880  -23.6880 C.ar  124  TYR124     -0.0009
     77  CE1       18.6100  -28.5310  -25.1130 C.ar  124  TYR124      0.0417
     78  CE2       20.3210  -29.9190  -24.1950 C.ar  124  TYR124      0.0417
     79  CZ        19.1410  -29.7710  -24.9100 C.ar  124  TYR124      0.1957
     80  OH        18.4950  -30.8710  -25.4300 O.3   124  TYR124     -0.2866
     81  N         18.0770  -25.8750  -21.8400 N.am  125  VAL125     -0.1977
     82  CA        17.1260  -26.4050  -20.8720 C.3   125  VAL125      0.1596
     83  C         16.6170  -27.7320  -21.4350 C.2   125  VAL125      0.2287
     84  O         15.7410  -27.7500  -22.3160 O.2   125  VAL125     -0.2864
     85  CB        15.9990  -25.4000  -20.5870 C.3   125  VAL125      0.0276
     86  CG1       15.1590  -25.8770  -19.4110 C.3   125  VAL125      0.0022
     87  CG2       16.5830  -24.0130  -20.3000 C.3   125  VAL125      0.0022
     88  N          9.7880  -28.5770  -23.7500 N.3   129  GLU129     -0.1245
     89  CA         8.7490  -27.6010  -23.4720 C.3   129  GLU129      0.1567
     90  C          7.6730  -28.1850  -22.5850 C.2   129  GLU129      0.2260
     91  O          7.3000  -29.3550  -22.7160 O.2   129  GLU129     -0.2867
     92  CB         8.0870  -27.1280  -24.7620 C.3   129  GLU129      0.0388
     93  CG         9.0160  -26.4030  -25.7310 C.3   129  GLU129      0.1160
     94  CD         8.3280  -26.0860  -27.0510 C.2   129  GLU129      0.3649
     95  OE1        7.1040  -26.3430  -27.1730 O.co2 129  GLU129     -0.2457
     96  OE2        9.0040  -25.5710  -27.9630 O.co2 129  GLU129     -0.2457
     97  N          4.2990  -23.3940  -24.6270 N.3   172  GLU172     -0.1231
     98  CA         5.3530  -23.4710  -25.6290 C.3   172  GLU172      0.1699
     99  C          6.6200  -22.7480  -25.1980 C.2   172  GLU172      0.2592
    100  O          7.7160  -23.0870  -25.6660 O.2   172  GLU172     -0.2718
    101  CB         4.8630  -22.8570  -26.9390 C.3   172  GLU172      0.0402
    102  CG         3.7340  -23.5940  -27.6710 C.3   172  GLU172      0.1161
    103  CD         2.3120  -23.1800  -27.2720 C.2   172  GLU172      0.3649
    104  OE1        2.0110  -23.0130  -26.0660 O.co2 172  GLU172     -0.2457
    105  OE2        1.4840  -23.0460  -28.2060 O.co2 172  GLU172     -0.2457
    106  N          6.4920  -21.7120  -24.3670 N.am  173  ASN173     -0.1974
    107  CA         7.6220  -20.8680  -24.0050 C.3   173  ASN173      0.1688
    108  C          8.2440  -21.2550  -22.6780 C.2   173  ASN173      0.2292
    109  O          9.1900  -20.5940  -22.2360 O.2   173  ASN173     -0.2864
    110  CB         7.1990  -19.4050  -23.9410 C.3   173  ASN173      0.1181
    111  CG         7.0370  -18.7820  -25.3160 C.2   173  ASN173      0.2629
    112  OD1        7.4110  -19.3730  -26.3450 O.2   173  ASN173     -0.2716
    113  ND2        6.4710  -17.5830  -25.3420 N.am  173  ASN173     -0.0877
    114  N         10.2180  -23.9950  -20.5140 N.3   175  LEU175     -0.1245
    115  CA        11.0720  -25.1620  -20.6640 C.3   175  LEU175      0.1561
    116  C         11.2820  -25.8250  -19.3060 C.2   175  LEU175      0.2260
    117  O         11.3650  -25.1490  -18.2850 O.2   175  LEU175     -0.2867
    118  CB        12.4080  -24.7620  -21.2880 C.3   175  LEU175      0.0270
    119  CG        12.4660  -24.5320  -22.8090 C.3   175  LEU175      0.0019
    120  CD1       12.4450  -25.8910  -23.5240 C.3   175  LEU175      0.0001
    121  CD2       11.3750  -23.6330  -23.3700 C.3   175  LEU175      0.0001
    122  N         11.1820  -18.5170  -21.2490 N.3   185  THR185     -0.1203
    123  CA        11.9300  -18.0550  -22.4040 C.3   185  THR185      0.1994
    124  C         11.0750  -17.1020  -23.2240 C.2   185  THR185      0.2617
    125  O          9.8490  -17.0410  -23.0910 O.2   185  THR185     -0.2717
    126  CB        12.3950  -19.2200  -23.3120 C.3   185  THR185      0.1784
    127  OG1       11.2880  -19.7480  -24.0580 O.3   185  THR185     -0.2211
    128  CG2       13.0260  -20.3510  -22.4960 C.3   185  THR185      0.0376
    129  N         11.7680  -16.3880  -24.0910 N.am  186  ASP186     -0.1973
    130  CA        11.2270  -15.4860  -25.1060 C.3   186  ASP186      0.1709
    131  C         10.6870  -14.1800  -24.5490 C.2   186  ASP186      0.2293
    132  O          9.5110  -14.0660  -24.1860 O.2   186  ASP186     -0.2864
    133  CB        10.1490  -16.1590  -25.9450 C.3   186  ASP186      0.1436
    134  CG        10.0010  -15.4910  -27.2960 C.2   186  ASP186      0.3671
    135  OD1       10.3780  -14.2850  -27.3980 O.co2 186  ASP186     -0.2456
    136  OD2        9.5420  -16.1700  -28.2450 O.co2 186  ASP186     -0.2456
    137  N         12.6940  -33.1520  -27.3630 N.3   328  PHE328     -0.1241
    138  CA        12.3030  -32.1260  -28.3190 C.3   328  PHE328      0.1605
    139  C         11.7910  -32.7120  -29.6290 C.2   328  PHE328      0.2264
    140  O         12.1950  -33.7890  -30.0600 O.2   328  PHE328     -0.2867
    141  CB        13.4770  -31.1740  -28.6260 C.3   328  PHE328      0.0534
    142  CG        13.8770  -30.3370  -27.4580 C.ar  328  PHE328     -0.0203
    143  CD1       13.3270  -29.0860  -27.2800 C.ar  328  PHE328     -0.0042
    144  CD2       14.7600  -30.8180  -26.5110 C.ar  328  PHE328     -0.0042
    145  CE1       13.6720  -28.3060  -26.1930 C.ar  328  PHE328     -0.0003
    146  CE2       15.1110  -30.0430  -25.4260 C.ar  328  PHE328     -0.0003
    147  CZ        14.5630  -28.7830  -25.2650 C.ar  328  PHE328     -0.0000
    148  N         12.9860  -30.4370  -36.1360 N.3   331  TYR331     -0.1241
    149  CA        12.6750  -29.2760  -36.9570 C.3   331  TYR331      0.1605
    150  C         13.5220  -29.2900  -38.2180 C.2   331  TYR331      0.2264
    151  O         14.5770  -29.9290  -38.2760 O.2   331  TYR331     -0.2867
    152  CB        12.9140  -27.9670  -36.1860 C.3   331  TYR331      0.0534
    153  CG        11.9650  -27.7560  -35.0210 C.ar  331  TYR331     -0.0201
    154  CD1       10.8270  -26.9760  -35.1580 C.ar  331  TYR331     -0.0009
    155  CD2       12.1990  -28.3540  -33.7890 C.ar  331  TYR331     -0.0009
    156  CE1        9.9500  -26.7850  -34.0890 C.ar  331  TYR331      0.0417
    157  CE2       11.3350  -28.1820  -32.7400 C.ar  331  TYR331      0.0417
    158  CZ        10.2230  -27.3870  -32.8820 C.ar  331  TYR331      0.1957
    159  OH         9.3770  -27.2030  -31.8090 O.3   331  TYR331     -0.2866
@<TRIPOS>BOND
     1   151   150    2
     2   150   149    1
     3   149   152    1
     4   149   148    1
     5   152   153    1
     6   154   153   ar
     7   154   156   ar
     8   153   155   ar
     9    19    17    1
    10   156   158   ar
    11   155   157   ar
    12    17    18    1
    13    17    14    1
    14    12    11    2
    15   158   157   ar
    16   158   159    1
    17    24    25    1
    18    23    22    2
    19    14    13    1
    20    14    15    1
    21    11    13   am
    22    11    10    1
    23    27    26    2
    24     1     2    1
    25    10     9    1
    26    26    25    1
    27    38    39    2
    28    38    37    1
    29     9     3   am
    30    25    28    1
    31    20    15   am
    32    20    21    1
    33    22    21    1
    34    15    16    2
    35     3     2    1
    36     3     4    2
    37    41    42    1
    38    41    40    1
    39     2     5    1
    40    37    40    1
    41    37    36    1
    42    28    30    1
    43    28    29    1
    44    42    43    1
    45    43    44    1
    46   140   139    2
    47     5     6    1
    48   139   138    1
    49     6     8    1
    50     6     7    1
    51   141   138    1
    52   141   142    1
    53   138   137    1
    54   136   134   ar
    55   105   103   ar
    56    96    94   ar
    57   102   103    1
    58   102   101    1
    59   142   143   ar
    60   142   144   ar
    61    33    32    1
    62    33    34    2
    63   135   134   ar
    64   134   133    1
    65   143   145   ar
    66   103   104   ar
    67    95    94   ar
    68    94    93    1
    69   101    98    1
    70    32    35    1
    71    32    31    1
    72   144   146   ar
    73    59    58    1
    74   112   111    2
    75   145   147   ar
    76   133   130    1
    77    93    92    1
    78   100    99    2
    79    98    99    1
    80    98    97    1
    81    80    79    1
    82   146   147   ar
    83   113   111   am
    84   111   110    1
    85    99   106   am
    86    77    79   ar
    87    77    75   ar
    88   130   131    1
    89   130   129    1
    90    52    53    1
    91    79    78   ar
    92    58    57    1
    93    92    89    1
    94    75    74   ar
    95   131   132    2
    96   106   107    1
    97    57    56    1
    98    78    76   ar
    99   129   124   am
   100   127   126    1
   101   107   110    1
   102   107   108    1
   103    56    53    1
   104    74    76   ar
   105    74    73    1
   106    55    54    2
   107    88    89    1
   108    53    54    1
   109   120   119    1
   110    89    90    1
   111   121   119    1
   112    73    70    1
   113   126   128    1
   114   126   123    1
   115   124   125    2
   116   124   123    1
   117    54    60   am
   118   119   118    1
   119    70    69    1
   120    70    71    1
   121    91    90    2
   122   108   109    2
   123    63    62    2
   124   123   122    1
   125    84    83    2
   126    69    62   am
   127    62    61    1
   128    81    71   am
   129    81    82    1
   130    60    61    1
   131    71    72    2
   132    83    82    1
   133   118   115    1
   134    61    64    1
   135    50    49    1
   136    82    85    1
   137    51    49    1
   138   115   114    1
   139   115   116    1
   140    85    87    1
   141    85    86    1
   142    49    46    1
   143    64    65    1
   144   116   117    2
   145    48    47    2
   146    65    66    1
   147    47    46    1
   148    46    45    1
   149    66    67   ar
   150    66    68   ar
