@<TRIPOS>MOLECULE
tmp/5m0cA01.pdb
 135 126 0 0 0
SMALL
GASTEIGER

@<TRIPOS>ATOM
      1  N        -27.6470   15.1080    8.0540 N.3    37  LEU37      -0.1231
      2  CA       -27.8970   13.6910    8.2910 C.3    37  LEU37       0.1693
      3  C        -26.7020   12.8060    7.9520 C.2    37  LEU37       0.2593
      4  O        -26.5840   11.7050    8.5040 O.2    37  LEU37      -0.2718
      5  CB       -29.1020   13.2340    7.4540 C.3    37  LEU37       0.0284
      6  CG       -30.4270   13.9100    7.7960 C.3    37  LEU37       0.0019
      7  CD1      -31.4030   13.6650    6.6610 C.3    37  LEU37       0.0001
      8  CD2      -30.9480   13.3210    9.0880 C.3    37  LEU37       0.0001
      9  N        -25.8130   13.2590    7.0740 N.am   38  GLY38      -0.1942
     10  CA       -24.6950   12.4540    6.6290 C.3    38  GLY38       0.2014
     11  C        -23.7870   13.2790    5.7480 C.2    38  GLY38       0.2639
     12  O        -24.1850   14.3250    5.2250 O.2    38  GLY38      -0.2714
     13  N        -22.5480   12.8130    5.6110 N.am   39  THR39      -0.1950
     14  CA       -21.5820   13.4730    4.7400 C.3    39  THR39       0.1897
     15  C        -20.8960   12.4420    3.8510 C.2    39  THR39       0.2313
     16  O        -21.1210   11.2340    3.9650 O.2    39  THR39      -0.2863
     17  CB       -20.5190   14.2420    5.5330 C.3    39  THR39       0.1794
     18  OG1      -19.7640   13.3100    6.3190 O.3    39  THR39      -0.2208
     19  CG2      -21.1460   15.3070    6.4260 C.3    39  THR39       0.0378
     20  N        -25.6700   15.5080    3.1690 N.3    45  VAL45      -0.1245
     21  CA       -27.1110   15.3300    3.0880 C.3    45  VAL45       0.1561
     22  C        -27.7360   16.0150    4.2910 C.2    45  VAL45       0.2260
     23  O        -27.3350   15.7560    5.4290 O.2    45  VAL45      -0.2867
     24  CB       -27.5040   13.8450    3.0430 C.3    45  VAL45       0.0252
     25  CG1      -29.0210   13.7180    3.1210 C.3    45  VAL45       0.0019
     26  CG2      -26.9900   13.2060    1.7410 C.3    45  VAL45       0.0019
     27  N        -34.6870   14.6970    2.6490 N.3    58  ALA58      -0.1245
     28  CA       -33.2390   14.6040    2.7870 C.3    58  ALA58       0.1562
     29  C        -32.6270   15.2080    1.5370 C.2    58  ALA58       0.2260
     30  O        -32.7820   14.6570    0.4420 O.2    58  ALA58      -0.2867
     31  CB       -32.7850   13.1620    2.9540 C.3    58  ALA58       0.0290
     32  N        -29.4640   16.1830   -0.6240 N.3    60  LYS60      -0.1245
     33  CA       -28.0490   16.0160   -0.9150 C.3    60  LYS60       0.1561
     34  C        -27.5270   17.2570   -1.6150 C.2    60  LYS60       0.2260
     35  O        -28.1100   17.7110   -2.6020 O.2    60  LYS60      -0.2867
     36  CB       -27.8320   14.7900   -1.8020 C.3    60  LYS60       0.0271
     37  CG       -26.3670   14.5230   -2.1520 C.3    60  LYS60       0.0035
     38  CD       -26.2340   13.1160   -2.7430 C.3    60  LYS60       0.0206
     39  CE       -24.7920   12.7250   -2.9560 C.3    60  LYS60       0.1093
     40  NZ       -24.6920   11.3300   -3.5020 N.3    60  LYS60      -0.1314
     41  N        -34.8130    4.8380   -2.6640 N.3    92  VAL92      -0.1245
     42  CA       -35.2560    6.1400   -2.1760 C.3    92  VAL92       0.1561
     43  C        -35.6960    6.9810   -3.3630 C.2    92  VAL92       0.2260
     44  O        -35.0770    6.9580   -4.4370 O.2    92  VAL92      -0.2867
     45  CB       -34.1470    6.8420   -1.3700 C.3    92  VAL92       0.0252
     46  CG1      -33.0440    7.3560   -2.2820 C.3    92  VAL92       0.0019
     47  CG2      -34.7210    7.9840   -0.5680 C.3    92  VAL92       0.0019
     48  N        -34.4770   14.1560   -1.7010 N.3   108  MET108     -0.1230
     49  CA       -35.0060   12.8030   -1.6100 C.3   108  MET108      0.1702
     50  C        -36.0530   12.6970   -0.5110 C.2   108  MET108      0.2592
     51  O        -36.2030   13.5840    0.3290 O.2   108  MET108     -0.2718
     52  CB       -33.8840   11.7980   -1.3280 C.3   108  MET108      0.0401
     53  CG       -33.4770   10.9650   -2.5190 C.3   108  MET108      0.0596
     54  SD       -32.5950   11.9550   -3.7230 S.3   108  MET108     -0.1393
     55  CE       -31.1870   12.4800   -2.7570 C.3   108  MET108      0.0692
     56  N        -36.7740   11.5770   -0.5220 N.am  109  GLU109     -0.1966
     57  CA       -37.5890   11.2080    0.6290 C.3   109  GLU109      0.1733
     58  C        -36.7020   11.1220    1.8630 C.2   109  GLU109      0.2616
     59  O        -35.5950   10.5790    1.8020 O.2   109  GLU109     -0.2715
     60  CB       -38.2380    9.8410    0.4370 C.3   109  GLU109      0.0429
     61  CG       -39.1910    9.6570   -0.6990 C.3   109  GLU109      0.1163
     62  CD       -39.7200    8.2320   -0.7000 C.2   109  GLU109      0.3649
     63  OE1      -38.9670    7.3060   -1.1110 O.co2 109  GLU109     -0.2457
     64  OE2      -40.8630    8.0390   -0.2330 O.co2 109  GLU109     -0.2457
     65  N        -37.1950   11.6430    2.9830 N.am  110  TYR110     -0.1960
     66  CA       -36.5010   11.4730    4.2540 C.3   110  TYR110      0.1771
     67  C        -36.8560   10.1090    4.8400 C.2   110  TYR110      0.2619
     68  O        -38.0380    9.7830    5.0160 O.2   110  TYR110     -0.2715
     69  CB       -36.8590   12.5960    5.2270 C.3   110  TYR110      0.0574
     70  CG       -36.2630   12.4000    6.6080 C.ar  110  TYR110     -0.0198
     71  CD1      -34.9250   12.0690    6.7600 C.ar  110  TYR110     -0.0009
     72  CD2      -37.0330   12.5610    7.7540 C.ar  110  TYR110     -0.0009
     73  CE1      -34.3670   11.8890    8.0230 C.ar  110  TYR110      0.0417
     74  CE2      -36.4820   12.3830    9.0200 C.ar  110  TYR110      0.0417
     75  CZ       -35.1480   12.0550    9.1440 C.ar  110  TYR110      0.1957
     76  OH       -34.5810   11.8640   10.3940 O.3   110  TYR110     -0.2866
     77  N        -35.8300    9.3130    5.1230 N.am  111  VAL111     -0.1977
     78  CA       -35.9950    7.9830    5.6990 C.3   111  VAL111      0.1596
     79  C        -35.5170    8.0670    7.1430 C.2   111  VAL111      0.2287
     80  O        -34.3060    8.0210    7.4060 O.2   111  VAL111     -0.2864
     81  CB       -35.2350    6.9220    4.8970 C.3   111  VAL111      0.0276
     82  CG1      -35.6340    5.5250    5.3720 C.3   111  VAL111      0.0022
     83  CG2      -35.5050    7.0880    3.4160 C.3   111  VAL111      0.0022
     84  N        -29.3810    4.6710    9.0070 N.3   115  GLU115     -0.1245
     85  CA       -28.6310    3.7600    8.1530 C.3   115  GLU115      0.1567
     86  C        -28.6050    2.3750    8.7690 C.2   115  GLU115      0.2260
     87  O        -28.4450    2.2300    9.9810 O.2   115  GLU115     -0.2867
     88  CB       -27.1950    4.2560    7.9740 C.3   115  GLU115      0.0388
     89  CG       -27.1390    5.6260    7.3260 C.3   115  GLU115      0.1160
     90  CD       -25.7730    6.2830    7.3610 C.2   115  GLU115      0.3649
     91  OE1      -24.8100    5.6870    7.8880 O.co2 115  GLU115     -0.2457
     92  OE2      -25.6620    7.4090    6.8330 O.co2 115  GLU115     -0.2457
     93  N        -23.9330    1.5070    4.9020 N.3   158  GLU158     -0.1245
     94  CA       -24.0170    2.9580    5.0030 C.3   158  GLU158      0.1567
     95  C        -25.0370    3.5240    4.0230 C.2   158  GLU158      0.2260
     96  O        -25.5920    4.6020    4.2560 O.2   158  GLU158     -0.2867
     97  CB       -22.6430    3.5760    4.7280 C.3   158  GLU158      0.0388
     98  CG       -21.5750    3.2630    5.7710 C.3   158  GLU158      0.1160
     99  CD       -20.7410    2.0100    5.4830 C.2   158  GLU158      0.3649
    100  OE1      -21.2970    0.9500    5.1020 O.co2 158  GLU158     -0.2457
    101  OE2      -19.5110    2.0850    5.6610 O.co2 158  GLU158     -0.2457
    102  N        -31.0060    2.5780    4.0180 N.3   161  LEU161     -0.1245
    103  CA       -31.7600    3.2570    5.0620 C.3   161  LEU161      0.1561
    104  C        -32.9730    2.4140    5.4430 C.2   161  LEU161      0.2260
    105  O        -33.5770    1.7570    4.5900 O.2   161  LEU161     -0.2867
    106  CB       -32.1950    4.6450    4.5850 C.3   161  LEU161      0.0270
    107  CG       -31.1860    5.8060    4.5480 C.3   161  LEU161      0.0019
    108  CD1      -31.0240    6.4140    5.9290 C.3   161  LEU161      0.0001
    109  CD2      -29.8260    5.4300    3.9920 C.3   161  LEU161      0.0001
    110  N        -29.9690    4.2590   -1.0460 N.3   171  THR171     -0.1203
    111  CA       -29.6050    5.6410   -1.3220 C.3   171  THR171      0.1994
    112  C        -28.2430    5.6690   -2.0100 C.2   171  THR171      0.2617
    113  O        -27.5700    4.6450   -2.1550 O.2   171  THR171     -0.2717
    114  CB       -29.5640    6.4750   -0.0370 C.3   171  THR171      0.1784
    115  OG1      -28.4740    6.0280    0.7790 O.3   171  THR171     -0.2211
    116  CG2      -30.8730    6.3660    0.7430 C.3   171  THR171      0.0376
    117  N        -27.8360    6.8680   -2.4110 N.am  172  ASP172     -0.1973
    118  CA       -26.5290    7.1180   -3.0010 C.3   172  ASP172      0.1709
    119  C        -26.3430    6.3950   -4.3220 C.2   172  ASP172      0.2293
    120  O        -25.8130    5.2790   -4.3800 O.2   172  ASP172     -0.2864
    121  CB       -25.3810    6.7520   -2.0680 C.3   172  ASP172      0.1436
    122  CG       -24.1170    7.5170   -2.4170 C.2   172  ASP172      0.3671
    123  OD1      -23.9680    7.9120   -3.6020 O.co2 172  ASP172     -0.2456
    124  OD2      -23.2850    7.7440   -1.5220 O.co2 172  ASP172     -0.2456
    125  N        -29.8300    9.0530   13.6270 N.3   314  PHE314     -0.1241
    126  CA       -28.6660    9.4560   12.8570 C.3   314  PHE314      0.1605
    127  C        -27.6090   10.0540   13.7740 C.2   314  PHE314      0.2264
    128  O        -27.9230   10.6940   14.7860 O.2   314  PHE314     -0.2867
    129  CB       -29.0440   10.4750   11.7850 C.3   314  PHE314      0.0534
    130  CG       -29.8870    9.9030   10.6800 C.ar  314  PHE314     -0.0203
    131  CD1      -29.2970    9.4030    9.5330 C.ar  314  PHE314     -0.0042
    132  CD2      -31.2700    9.8640   10.7950 C.ar  314  PHE314     -0.0042
    133  CE1      -30.0700    8.8690    8.5120 C.ar  314  PHE314     -0.0003
    134  CE2      -32.0520    9.3330    9.7770 C.ar  314  PHE314     -0.0003
    135  CZ       -31.4460    8.8390    8.6340 C.ar  314  PHE314     -0.0000
@<TRIPOS>BOND
     1    44    43    2
     2   120   119    2
     3   119   118    1
     4    54    55    1
     5    54    53    1
     6   123   122   ar
     7    40    39    1
     8    43    42    1
     9   118   117    1
    10   118   121    1
    11    39    38    1
    12    38    37    1
    13    41    42    1
    14    35    34    2
    15    53    52    1
    16   122   121    1
    17   122   124   ar
    18   117   112   am
    19    46    45    1
    20    42    45    1
    21   113   112    2
    22    37    36    1
    23   112   111    1
    24    36    33    1
    25    48    49    1
    26    34    33    1
    27    49    52    1
    28    49    50    1
    29    45    47    1
    30   111   110    1
    31   111   114    1
    32    63    62   ar
    33    33    32    1
    34    62    61    1
    35    62    64   ar
    36    61    60    1
    37    56    50   am
    38    56    57    1
    39    50    51    2
    40   114   116    1
    41   114   115    1
    42    60    57    1
    43    30    29    2
    44    57    58    1
    45    29    28    1
    46    26    24    1
    47    59    58    2
    48    58    65   am
    49    27    28    1
    50    28    31    1
    51    65    66    1
    52    24    21    1
    53    24    25    1
    54    21    20    1
    55    21    22    1
    56    83    81    1
    57    15    16    2
    58    15    14    1
    59   109   107    1
    60   102   103    1
    61    95    96    2
    62    95    94    1
    63    66    67    1
    64    66    69    1
    65    22    23    2
    66   107   106    1
    67   107   108    1
    68   106   103    1
    69   105   104    2
    70    97    94    1
    71    97    98    1
    72    14    17    1
    73    14    13    1
    74    67    68    2
    75    67    77   am
    76    81    82    1
    77    81    78    1
    78    93    94    1
    79   103   104    1
    80   100    99   ar
    81    77    78    1
    82    12    11    2
    83    69    70    1
    84    99   101   ar
    85    99    98    1
    86    17    18    1
    87    17    19    1
    88    13    11   am
    89    78    79    1
    90    11    10    1
    91    70    71   ar
    92    70    72   ar
    93    10     9    1
    94     7     6    1
    95    71    73   ar
    96    92    90   ar
    97     9     3   am
    98    79    80    2
    99    89    90    1
   100    89    88    1
   101    90    91   ar
   102     5     6    1
   103     5     2    1
   104    72    74   ar
   105     6     8    1
   106     3     2    1
   107     3     4    2
   108    88    85    1
   109    73    75   ar
   110     1     2    1
   111    85    86    1
   112    85    84    1
   113   133   135   ar
   114   133   131   ar
   115   135   134   ar
   116    86    87    2
   117    74    75   ar
   118    75    76    1
   119   131   130   ar
   120   134   132   ar
   121   130   132   ar
   122   130   129    1
   123   129   126    1
   124   126   125    1
   125   126   127    1
   126   127   128    2
