@<TRIPOS>MOLECULE
tmp/5m0lA02.pdb
 121 118 0 0 0
SMALL
GASTEIGER

@<TRIPOS>ATOM
      1  N          9.6210  -11.6830   10.7610 N.3     3  GLU3       -0.1231
      2  CA        10.1820  -10.8740    9.6900 C.3     3  GLU3        0.1699
      3  C          9.0520  -10.4340    8.7650 C.2     3  GLU3        0.2593
      4  O          8.2140  -11.2430    8.3580 O.2     3  GLU3       -0.2718
      5  CB        11.2120  -11.6820    8.9020 C.3     3  GLU3        0.0402
      6  CG        12.2950  -12.3270    9.7510 C.3     3  GLU3        0.1161
      7  CD        13.4020  -12.9200    8.9040 C.2     3  GLU3        0.3649
      8  OE1       13.8840  -12.2200    7.9920 O.co2   3  GLU3       -0.2457
      9  OE2       13.7800  -14.0870    9.1390 O.co2   3  GLU3       -0.2457
     10  N          9.0110   -9.1440    8.4640 N.am    4  SER4       -0.1938
     11  CA         7.9060   -8.5900    7.6970 C.3     4  SER4        0.2055
     12  C          8.0220   -8.9640    6.2210 C.2     4  SER4        0.2642
     13  O          9.0570   -8.7440    5.6030 O.2     4  SER4       -0.2714
     14  CB         7.9450   -7.0780    7.8380 C.3     4  SER4        0.2130
     15  OG         7.1410   -6.4660    6.8590 O.3     4  SER4       -0.2179
     16  N          6.9450   -9.4980    5.6390 N.am    5  VAL5       -0.1977
     17  CA         6.9470   -9.7690    4.2040 C.3     5  VAL5        0.1596
     18  C          7.0540   -8.4700    3.4210 C.2     5  VAL5        0.2287
     19  O          7.7840   -8.3910    2.4320 O.2     5  VAL5       -0.2864
     20  CB         5.7150  -10.5930    3.7930 C.3     5  VAL5        0.0276
     21  CG1        5.6530  -10.7550    2.2700 C.3     5  VAL5        0.0022
     22  CG2        5.7790  -11.9460    4.4490 C.3     5  VAL5        0.0022
     23  N         10.6340   -7.4220    3.5570 N.3     8  PHE8       -0.1227
     24  CA        11.4410   -8.2930    2.7160 C.3     8  PHE8        0.1736
     25  C         11.2970   -7.9120    1.2540 C.2     8  PHE8        0.2595
     26  O         12.2880   -7.8320    0.5150 O.2     8  PHE8       -0.2718
     27  CB        11.0440   -9.7570    2.9240 C.3     8  PHE8        0.0547
     28  CG        11.8230  -10.6850    2.0720 C.ar    8  PHE8       -0.0202
     29  CD1       12.9420  -11.3220    2.5730 C.ar    8  PHE8       -0.0042
     30  CD2       11.4590  -10.8880    0.7660 C.ar    8  PHE8       -0.0042
     31  CE1       13.6800  -12.1620    1.7740 C.ar    8  PHE8       -0.0003
     32  CE2       12.2040  -11.7280   -0.0530 C.ar    8  PHE8       -0.0003
     33  CZ        13.3130  -12.3560    0.4530 C.ar    8  PHE8       -0.0000
     34  N         10.0590   -7.7040    0.8100 N.am    9  LEU9       -0.1980
     35  CA         9.8340   -7.4180   -0.6000 C.3     9  LEU9        0.1596
     36  C         10.3550   -6.0500   -0.9940 C.2     9  LEU9        0.2287
     37  O         10.7730   -5.8580   -2.1430 O.2     9  LEU9       -0.2864
     38  CB         8.3520   -7.5290   -0.9300 C.3     9  LEU9        0.0297
     39  CG         7.8080   -8.9330   -0.9550 C.3     9  LEU9        0.0022
     40  CD1        6.2810   -8.9100   -1.0630 C.3     9  LEU9        0.0001
     41  CD2        8.4090   -9.7420   -2.0820 C.3     9  LEU9        0.0001
     42  N         14.9160  -15.4370   -6.5380 N.3    90  PHE90      -0.1241
     43  CA        13.9290  -15.9930   -5.6180 C.3    90  PHE90       0.1605
     44  C         14.1750  -17.4810   -5.5440 C.2    90  PHE90       0.2264
     45  O         14.6930  -18.0590   -6.4960 O.2    90  PHE90      -0.2867
     46  CB        12.5120  -15.7030   -6.1330 C.3    90  PHE90       0.0534
     47  CG        11.4550  -15.7100   -5.0540 C.ar   90  PHE90      -0.0203
     48  CD1       11.4400  -14.7530   -4.0480 C.ar   90  PHE90      -0.0042
     49  CD2       10.4570  -16.6870   -5.0370 C.ar   90  PHE90      -0.0042
     50  CE1       10.4670  -14.7610   -3.0680 C.ar   90  PHE90      -0.0003
     51  CE2        9.5050  -16.6820   -4.0660 C.ar   90  PHE90      -0.0003
     52  CZ         9.5050  -15.7520   -3.0740 C.ar   90  PHE90      -0.0000
     53  N          3.9530  -17.8550   -3.7160 N.3   142  LEU142     -0.1245
     54  CA         5.0240  -16.9870   -3.2290 C.3   142  LEU142      0.1561
     55  C          5.8020  -16.3790   -4.3790 C.2   142  LEU142      0.2260
     56  O          6.1750  -15.2040   -4.3270 O.2   142  LEU142     -0.2867
     57  CB         5.9760  -17.7680   -2.3230 C.3   142  LEU142      0.0270
     58  CG         5.3700  -18.1920   -0.9980 C.3   142  LEU142      0.0019
     59  CD1        6.3270  -19.0620   -0.2240 C.3   142  LEU142      0.0001
     60  CD2        4.9760  -16.9960   -0.1820 C.3   142  LEU142      0.0001
     61  N          3.6750  -13.6300   -5.8480 N.3   145  GLU145     -0.1245
     62  CA         3.7160  -12.4850   -4.9420 C.3   145  GLU145      0.1567
     63  C          4.9970  -11.6830   -5.1700 C.2   145  GLU145      0.2260
     64  O          4.9710  -10.4500   -5.2870 O.2   145  GLU145     -0.2867
     65  CB         3.5950  -12.9610   -3.4840 C.3   145  GLU145      0.0388
     66  CG         3.6740  -11.8360   -2.4720 C.3   145  GLU145      0.1160
     67  CD         3.5500  -12.2910   -1.0400 C.2   145  GLU145      0.3649
     68  OE1        3.9500  -13.4280   -0.7010 O.co2 145  GLU145     -0.2457
     69  OE2        3.0390  -11.4810   -0.2290 O.co2 145  GLU145     -0.2457
     70  N         -3.5150  -16.7220    0.1970 N.3   281  LYS281     -0.1245
     71  CA        -2.7150  -17.3160    1.2570 C.3   281  LYS281      0.1561
     72  C         -3.5530  -17.6680    2.4670 C.2   281  LYS281      0.2260
     73  O         -3.2200  -18.6110    3.1960 O.2   281  LYS281     -0.2867
     74  CB        -1.5920  -16.3620    1.6590 C.3   281  LYS281      0.0271
     75  CG        -0.5770  -16.1690    0.5710 C.3   281  LYS281      0.0035
     76  CD         0.4300  -15.0460    0.8370 C.3   281  LYS281      0.0206
     77  CE         1.7150  -15.5450    1.4070 C.3   281  LYS281      0.1093
     78  NZ         2.6650  -14.3950    1.6700 N.3   281  LYS281     -0.1314
     79  N          3.7500  -20.6430    5.2860 N.3   291  TRP291     -0.1227
     80  CA         4.3210  -19.8610    4.1920 C.3   291  TRP291      0.1737
     81  C          5.7850  -19.5340    4.4390 C.2   291  TRP291      0.2595
     82  O          6.5970  -19.5650    3.5100 O.2   291  TRP291     -0.2718
     83  CB         3.4960  -18.5860    3.9680 C.3   291  TRP291      0.0564
     84  CG         2.1240  -18.8900    3.4900 C.ar  291  TRP291      0.0003
     85  CD1        0.9790  -18.8950    4.2270 C.ar  291  TRP291      0.0946
     86  CD2        1.7580  -19.3080    2.1770 C.ar  291  TRP291      0.0152
     87  NE1       -0.0800  -19.2770    3.4510 N.ar  291  TRP291     -0.2442
     88  CE2        0.3710  -19.5390    2.1870 C.ar  291  TRP291      0.0810
     89  CE3        2.4650  -19.4860    0.9870 C.ar  291  TRP291      0.0012
     90  CZ2       -0.3180  -19.9510    1.0590 C.ar  291  TRP291      0.0191
     91  CZ3        1.7650  -19.8990   -0.1310 C.ar  291  TRP291      0.0001
     92  CH2        0.3850  -20.1170   -0.0790 C.ar  291  TRP291      0.0015
     93  N          6.1380  -19.2100    5.6820 N.am  292  ILE292     -0.1980
     94  CA         7.5290  -18.9480    6.0370 C.3   292  ILE292      0.1595
     95  C          8.3870  -20.1790    5.7630 C.2   292  ILE292      0.2287
     96  O          9.4710  -20.0820    5.1670 O.2   292  ILE292     -0.2864
     97  CB         7.6160  -18.5100    7.5060 C.3   292  ILE292      0.0276
     98  CG1        6.8600  -17.2020    7.7160 C.3   292  ILE292      0.0022
     99  CG2        9.0490  -18.3520    7.9320 C.3   292  ILE292      0.0022
    100  CD1        6.6880  -16.8440    9.1930 C.3   292  ILE292      0.0001
    101  N          8.9740  -20.7330    1.9820 N.3   295  TYR295     -0.1227
    102  CA         9.9830  -19.8240    1.4540 C.3   295  TYR295      0.1736
    103  C         11.3780  -20.2770    1.8740 C.2   295  TYR295      0.2595
    104  O         12.3260  -20.2310    1.0670 O.2   295  TYR295     -0.2718
    105  CB         9.7510  -18.3800    1.9320 C.3   295  TYR295      0.0548
    106  CG        10.9280  -17.5000    1.5490 C.ar  295  TYR295     -0.0200
    107  CD1       11.0460  -16.9850    0.2720 C.ar  295  TYR295     -0.0009
    108  CD2       11.9650  -17.2710    2.4540 C.ar  295  TYR295     -0.0009
    109  CE1       12.1600  -16.2370   -0.0970 C.ar  295  TYR295      0.0417
    110  CE2       13.0670  -16.5290    2.0960 C.ar  295  TYR295      0.0417
    111  CZ        13.1650  -16.0290    0.8410 C.ar  295  TYR295      0.1957
    112  OH        14.2860  -15.2970    0.4940 O.3   295  TYR295     -0.2866
    113  N         11.5160  -20.7040    3.1290 N.am  296  GLN296     -0.1979
    114  CA        12.8030  -21.0850    3.6980 C.3   296  GLN296      0.1601
    115  C         13.2050  -22.5010    3.3200 C.2   296  GLN296      0.2287
    116  O         14.2760  -22.9550    3.7380 O.2   296  GLN296     -0.2864
    117  CB        12.8150  -20.8460    5.2260 C.3   296  GLN296      0.0394
    118  CG        12.7040  -19.3510    5.5680 C.3   296  GLN296      0.0908
    119  CD        12.6610  -19.0120    7.0590 C.2   296  GLN296      0.2608
    120  OE1       12.9810  -19.8280    7.9100 O.2   296  GLN296     -0.2717
    121  NE2       12.2600  -17.7810    7.3680 N.am  296  GLN296     -0.0878
@<TRIPOS>BOND
     1    42    43    1
     2    45    44    2
     3    46    43    1
     4    46    47    1
     5    61    62    1
     6    43    44    1
     7    64    63    2
     8    63    62    1
     9    47    49   ar
    10    47    48   ar
    11    49    51   ar
    12    62    65    1
    13    55    56    2
    14    55    54    1
    15    51    52   ar
    16    48    50   ar
    17    53    54    1
    18    65    66    1
    19    54    57    1
    20    52    50   ar
    21    66    67    1
    22    57    58    1
    23    37    36    2
    24    41    39    1
    25    40    39    1
    26    67    68   ar
    27    67    69   ar
    28    58    59    1
    29    58    60    1
    30    36    35    1
    31    39    38    1
    32    38    35    1
    33    35    34    1
    34    91    92   ar
    35    91    89   ar
    36   109   107   ar
    37   109   111   ar
    38    92    90   ar
    39    32    33   ar
    40    32    30   ar
    41    70    71    1
    42   107   106   ar
    43    33    31   ar
    44   112   111    1
    45    26    25    2
    46    75    76    1
    47    75    74    1
    48    30    28   ar
    49    34    25   am
    50    76    77    1
    51   111   110   ar
    52    89    86   ar
    53    90    88   ar
    54   104   103    2
    55    25    24    1
    56    71    74    1
    57    71    72    1
    58    77    78    1
    59   102   103    1
    60   102   105    1
    61   102   101    1
    62   106   105    1
    63   106   108   ar
    64    31    29   ar
    65   103   113   am
    66    28    29   ar
    67    28    27    1
    68   110   108   ar
    69    86    88   ar
    70    86    84   ar
    71    88    87   ar
    72    21    20    1
    73    19    18    2
    74    72    73    2
    75    24    27    1
    76    24    23    1
    77   113   114    1
    78   115   114    1
    79   115   116    2
    80    18    17    1
    81    87    85   ar
    82    84    83    1
    83    84    85   ar
    84    82    81    2
    85   114   117    1
    86    20    17    1
    87    20    22    1
    88    83    80    1
    89    80    81    1
    90    80    79    1
    91    17    16    1
    92    81    93   am
    93    96    95    2
    94   117   118    1
    95   118   119    1
    96    13    12    2
    97    16    12   am
    98    93    94    1
    99    95    94    1
   100    94    97    1
   101    12    11    1
   102    15    14    1
   103   119   121   am
   104   119   120    2
   105    97    98    1
   106    97    99    1
   107    11    14    1
   108    11    10    1
   109    98   100    1
   110     8     7   ar
   111     4     3    2
   112    10     3   am
   113     3     2    1
   114     5     2    1
   115     5     6    1
   116     7     9   ar
   117     7     6    1
   118     2     1    1
