@<TRIPOS>MOLECULE
tmp/5m0lA01.pdb
 143 134 0 0 0
SMALL
GASTEIGER

@<TRIPOS>ATOM
      1  N         17.7550  -31.1640  -23.6620 N.3    39  LEU39      -0.1231
      2  CA        16.8510  -31.3960  -22.5340 C.3    39  LEU39       0.1693
      3  C         15.4080  -31.0410  -22.8390 C.2    39  LEU39       0.2593
      4  O         14.4970  -31.6240  -22.2410 O.2    39  LEU39      -0.2718
      5  CB        17.2720  -30.5110  -21.3520 C.3    39  LEU39       0.0284
      6  CG        18.6330  -30.8450  -20.7480 C.3    39  LEU39       0.0019
      7  CD1       19.1370  -29.7610  -19.8280 C.3    39  LEU39       0.0001
      8  CD2       18.5430  -32.1650  -20.0160 C.3    39  LEU39       0.0001
      9  N         15.1790  -30.0570  -23.6960 N.am   40  GLY40      -0.1942
     10  CA        13.8330  -29.6210  -23.9960 C.3    40  GLY40       0.2014
     11  C         13.8280  -28.7200  -25.2050 C.2    40  GLY40       0.2639
     12  O         14.8600  -28.1560  -25.5850 O.2    40  GLY40      -0.2714
     13  N         12.6460  -28.5950  -25.8070 N.am   41  THR41      -0.1950
     14  CA        12.4220  -27.6700  -26.9060 C.3    41  THR41       0.1897
     15  C         11.1060  -26.9470  -26.6790 C.2    41  THR41       0.2313
     16  O         10.1840  -27.4800  -26.0580 O.2    41  THR41      -0.2863
     17  CB        12.3310  -28.3970  -28.2460 C.3    41  THR41       0.1794
     18  OG1       11.1590  -29.2250  -28.2440 O.3    41  THR41      -0.2208
     19  CG2       13.5770  -29.2410  -28.4840 C.3    41  THR41       0.0378
     20  N         16.8320  -26.1670  -25.3620 N.3    47  VAL47      -0.1245
     21  CA        17.6610  -26.1190  -24.1650 C.3    47  VAL47       0.1561
     22  C         18.5490  -27.3560  -24.1420 C.2    47  VAL47       0.2260
     23  O         18.0560  -28.4850  -24.2710 O.2    47  VAL47      -0.2867
     24  CB        16.7980  -26.0310  -22.8970 C.3    47  VAL47       0.0252
     25  CG1       17.6720  -26.0610  -21.6500 C.3    47  VAL47       0.0019
     26  CG2       15.9520  -24.7760  -22.9510 C.3    47  VAL47       0.0019
     27  N         22.1470  -25.7910  -18.0190 N.3    60  ALA60      -0.1245
     28  CA        21.1480  -25.9080  -19.0710 C.3    60  ALA60       0.1562
     29  C         21.1940  -24.6390  -19.9100 C.2    60  ALA60       0.2260
     30  O         20.8580  -23.5550  -19.4150 O.2    60  ALA60      -0.2867
     31  CB        19.7650  -26.1130  -18.4690 C.3    60  ALA60       0.0290
     32  N         19.8860  -22.4500  -22.9390 N.3    62  LYS62      -0.1245
     33  CA        18.8550  -22.1590  -23.9190 C.3    62  LYS62       0.1561
     34  C         19.4860  -21.4290  -25.0880 C.2    62  LYS62       0.2260
     35  O         20.2610  -20.4890  -24.9010 O.2    62  LYS62      -0.2867
     36  CB        17.7650  -21.2920  -23.2860 C.3    62  LYS62       0.0271
     37  CG        16.5650  -21.0260  -24.1830 C.3    62  LYS62       0.0035
     38  CD        15.4710  -20.3130  -23.3880 C.3    62  LYS62       0.0206
     39  CE        14.2690  -19.9660  -24.2470 C.3    62  LYS62       0.1093
     40  NZ        13.1280  -19.5530  -23.3550 N.3    62  LYS62      -0.1314
     41  N         14.5440  -20.3320  -11.5590 N.3    94  VAL94      -0.1245
     42  CA        15.8350  -20.8110  -12.0510 C.3    94  VAL94       0.1561
     43  C         16.8000  -19.6480  -12.1720 C.2    94  VAL94       0.2260
     44  O         16.4570  -18.5630  -12.6600 O.2    94  VAL94      -0.2867
     45  CB        15.7650  -21.4530  -13.4340 C.3    94  VAL94       0.0252
     46  CG1       15.2030  -20.6600  -14.5130 C.3    94  VAL94       0.0019
     47  CG2       16.6920  -22.5400  -13.6770 C.3    94  VAL94       0.0019
     48  N         21.5770  -21.4600  -17.7630 N.3   110  MET110     -0.1230
     49  CA        20.8890  -21.5380  -16.4860 C.3   110  MET110      0.1702
     50  C         21.3870  -22.7160  -15.6680 C.2   110  MET110      0.2592
     51  O         22.0140  -23.6410  -16.1830 O.2   110  MET110     -0.2718
     52  CB        19.3970  -21.7130  -16.7390 C.3   110  MET110      0.0401
     53  CG        18.7660  -20.4540  -17.3140 C.3   110  MET110      0.0596
     54  SD        17.1690  -20.7630  -18.0300 S.3   110  MET110     -0.1393
     55  CE        17.6750  -21.4760  -19.5920 C.3   110  MET110      0.0692
     56  N         21.0970  -22.6730  -14.3770 N.am  111  GLU111     -0.1966
     57  CA        21.3530  -23.8280  -13.5360 C.3   111  GLU111      0.1733
     58  C         20.6070  -25.0320  -14.0930 C.2   111  GLU111      0.2616
     59  O         19.4650  -24.9250  -14.5600 O.2   111  GLU111     -0.2715
     60  CB        20.8880  -23.5310  -12.1100 C.3   111  GLU111      0.0429
     61  CG        21.2130  -24.6140  -11.1050 C.3   111  GLU111      0.1163
     62  CD        21.3700  -24.0620   -9.7060 C.2   111  GLU111      0.3649
     63  OE1       20.3650  -23.5870   -9.1510 O.co2 111  GLU111     -0.2457
     64  OE2       22.4980  -24.0800   -9.1700 O.co2 111  GLU111     -0.2457
     65  N         21.2730  -26.1790  -14.0590 N.am  112  TYR112     -0.1960
     66  CA        20.6900  -27.4320  -14.5060 C.3   112  TYR112      0.1771
     67  C         19.9470  -28.0650  -13.3420 C.2   112  TYR112      0.2619
     68  O         20.5020  -28.2150  -12.2470 O.2   112  TYR112     -0.2715
     69  CB        21.7770  -28.3680  -15.0290 C.3   112  TYR112      0.0574
     70  CG        21.2720  -29.7450  -15.3760 C.ar  112  TYR112     -0.0198
     71  CD1       20.1410  -29.9190  -16.1690 C.ar  112  TYR112     -0.0009
     72  CD2       21.9350  -30.8800  -14.9050 C.ar  112  TYR112     -0.0009
     73  CE1       19.6770  -31.1810  -16.4730 C.ar  112  TYR112      0.0417
     74  CE2       21.4730  -32.1330  -15.2050 C.ar  112  TYR112      0.0417
     75  CZ        20.3620  -32.2790  -15.9830 C.ar  112  TYR112      0.1957
     76  OH        19.8720  -33.5290  -16.2890 O.3   112  TYR112     -0.2866
     77  N         18.7000  -28.4300  -13.5930 N.am  113  VAL113     -0.1977
     78  CA        17.8280  -29.0350  -12.5890 C.3   113  VAL113      0.1596
     79  C         17.5630  -30.4590  -13.0710 C.2   113  VAL113      0.2287
     80  O         16.7080  -30.6640  -13.9460 O.2   113  VAL113     -0.2864
     81  CB        16.5280  -28.2350  -12.4180 C.3   113  VAL113      0.0276
     82  CG1       15.7500  -28.7720  -11.2430 C.3   113  VAL113      0.0022
     83  CG2       16.8080  -26.7510  -12.2080 C.3   113  VAL113      0.0022
     84  N         10.9050  -32.1940  -15.4480 N.3   117  GLU117     -0.1245
     85  CA         9.7580  -31.3010  -15.4470 C.3   117  GLU117      0.1567
     86  C          8.6330  -31.8780  -14.5940 C.2   117  GLU117      0.2260
     87  O          8.3560  -33.0900  -14.6400 O.2   117  GLU117     -0.2867
     88  CB         9.2500  -31.1280  -16.8830 C.3   117  GLU117      0.0388
     89  CG        10.2560  -30.4440  -17.7950 C.3   117  GLU117      0.1160
     90  CD         9.8920  -30.4690  -19.2650 C.2   117  GLU117      0.3649
     91  OE1        8.8240  -31.0250  -19.6120 O.co2 117  GLU117     -0.2457
     92  OE2       10.6870  -29.9410  -20.0780 O.co2 117  GLU117     -0.2457
     93  N          4.9800  -27.9580  -17.7000 N.3   160  GLU160     -0.1231
     94  CA         6.1430  -28.0830  -18.5690 C.3   160  GLU160      0.1699
     95  C          7.2550  -27.1300  -18.1740 C.2   160  GLU160      0.2592
     96  O          8.4170  -27.3870  -18.5070 O.2   160  GLU160     -0.2718
     97  CB         5.7380  -27.7380  -19.9910 C.3   160  GLU160      0.0402
     98  CG         4.8290  -28.7400  -20.6750 C.3   160  GLU160      0.1161
     99  CD         3.3330  -28.5030  -20.4930 C.2   160  GLU160      0.3649
    100  OE1        2.8970  -28.0830  -19.3960 O.co2 160  GLU160     -0.2457
    101  OE2        2.5870  -28.7790  -21.4550 O.co2 160  GLU160     -0.2457
    102  N          6.9250  -26.0010  -17.5510 N.am  161  ASN161     -0.1974
    103  CA         7.8970  -24.9590  -17.2280 C.3   161  ASN161      0.1688
    104  C          8.3780  -25.0090  -15.7940 C.2   161  ASN161      0.2292
    105  O          9.1380  -24.1310  -15.3720 O.2   161  ASN161     -0.2864
    106  CB         7.2960  -23.5850  -17.5110 C.3   161  ASN161      0.1181
    107  CG         7.2530  -23.2900  -18.9610 C.2   161  ASN161      0.2629
    108  OD1        7.9010  -23.9750  -19.7600 O.2   161  ASN161     -0.2716
    109  ND2        6.5160  -22.2660  -19.3330 N.am  161  ASN161     -0.0877
    110  N         10.3890  -27.1700  -12.9690 N.3   163  LEU163     -0.1245
    111  CA        11.3140  -28.2600  -12.7530 C.3   163  LEU163      0.1561
    112  C         11.3350  -28.6010  -11.2780 C.2   163  LEU163      0.2260
    113  O         11.0600  -27.7580  -10.4320 O.2   163  LEU163     -0.2867
    114  CB        12.7130  -27.8500  -13.2030 C.3   163  LEU163      0.0270
    115  CG        12.8480  -27.6220  -14.6890 C.3   163  LEU163      0.0019
    116  CD1       14.0820  -26.7850  -14.9770 C.3   163  LEU163      0.0001
    117  CD2       12.9810  -28.9150  -15.4370 C.3   163  LEU163      0.0001
    118  N         10.9280  -21.9210  -14.9080 N.3   173  THR173     -0.1203
    119  CA        11.7340  -21.5810  -16.0640 C.3   173  THR173      0.1994
    120  C         10.8190  -20.9390  -17.1030 C.2   173  THR173      0.2617
    121  O          9.5920  -20.9000  -16.9650 O.2   173  THR173     -0.2717
    122  CB        12.4060  -22.8230  -16.6440 C.3   173  THR173      0.1784
    123  OG1       11.4060  -23.6410  -17.2690 O.3   173  THR173     -0.2211
    124  CG2       13.0980  -23.6270  -15.5910 C.3   173  THR173      0.0376
    125  N         11.4390  -20.4160  -18.1370 N.am  174  ASP174     -0.1973
    126  CA        10.7840  -19.8620  -19.3100 C.3   174  ASP174      0.1709
    127  C         10.1080  -18.5320  -19.0410 C.2   174  ASP174      0.2293
    128  O          8.8930  -18.4460  -18.8350 O.2   174  ASP174     -0.2864
    129  CB         9.8540  -20.8290  -20.0320 C.3   174  ASP174      0.1436
    130  CG         9.6930  -20.4400  -21.4840 C.2   174  ASP174      0.3671
    131  OD1        9.9730  -19.2580  -21.8000 O.co2 174  ASP174     -0.2456
    132  OD2        9.2930  -21.2860  -22.3040 O.co2 174  ASP174     -0.2456
    133  N         14.4770  -36.6970  -18.1360 N.3   316  PHE316     -0.1241
    134  CA        13.9980  -35.9320  -19.2760 C.3   316  PHE316      0.1605
    135  C         13.7900  -36.8380  -20.4780 C.2   316  PHE316      0.2264
    136  O         14.4560  -37.8590  -20.6280 O.2   316  PHE316     -0.2867
    137  CB        15.0020  -34.8670  -19.6830 C.3   316  PHE316      0.0534
    138  CG        15.1610  -33.8000  -18.6570 C.ar  316  PHE316     -0.0203
    139  CD1       14.3950  -32.6420  -18.7070 C.ar  316  PHE316     -0.0042
    140  CD2       16.0190  -33.9860  -17.5890 C.ar  316  PHE316     -0.0042
    141  CE1       14.5190  -31.6800  -17.7320 C.ar  316  PHE316     -0.0003
    142  CE2       16.1440  -33.0160  -16.6070 C.ar  316  PHE316     -0.0003
    143  CZ        15.3950  -31.8660  -16.6880 C.ar  316  PHE316     -0.0000
@<TRIPOS>BOND
     1    19    17    1
     2    17    18    1
     3    17    14    1
     4    14    15    1
     5    14    13    1
     6    15    16    2
     7    13    11   am
     8    12    11    2
     9    20    21    1
    10    11    10    1
    11    34    35    2
    12    34    33    1
    13    23    22    2
    14    39    38    1
    15    39    40    1
    16    37    38    1
    17    37    36    1
    18    21    22    1
    19    21    24    1
    20    10     9    1
    21    33    36    1
    22    33    32    1
    23     9     3   am
    24     1     2    1
    25    26    24    1
    26    24    25    1
    27     3     2    1
    28     3     4    2
    29     2     5    1
    30   132   130   ar
    31   131   130   ar
    32   130   129    1
    33   101    99   ar
    34     5     6    1
    35     6     8    1
    36     6     7    1
    37    98    99    1
    38    98    97    1
    39   136   135    2
    40    99   100   ar
    41   135   134    1
    42    92    90   ar
    43   129   126    1
    44    97    94    1
    45    29    30    2
    46    29    28    1
    47   108   107    2
    48   137   134    1
    49   137   138    1
    50    91    90   ar
    51    55    54    1
    52   109   107   am
    53   126   127    1
    54   126   125    1
    55   134   133    1
    56    90    89    1
    57    28    31    1
    58    28    27    1
    59   127   128    2
    60   107   106    1
    61   139   138   ar
    62   139   141   ar
    63   138   140   ar
    64    94    95    1
    65    94    93    1
    66    96    95    2
    67    95   102   am
    68   125   120   am
    69    54    53    1
    70    89    88    1
    71    48    49    1
    72   141   143   ar
    73   140   142   ar
    74   102   103    1
    75   106   103    1
    76    53    52    1
    77   123   122    1
    78   103   104    1
    79   120   121    2
    80   120   119    1
    81    88    85    1
    82    52    49    1
    83   143   142   ar
    84   122   119    1
    85   122   124    1
    86    49    50    1
    87    73    71   ar
    88    73    75   ar
    89    76    75    1
    90    51    50    2
    91    71    70   ar
    92   119   118    1
    93    75    74   ar
    94   104   105    2
    95    50    56   am
    96    84    85    1
    97    85    86    1
    98   117   115    1
    99    70    69    1
   100    70    72   ar
   101    74    72   ar
   102    69    66    1
   103   116   115    1
   104   115   114    1
   105    87    86    2
   106    59    58    2
   107    46    45    1
   108    66    65    1
   109    66    67    1
   110    56    57    1
   111    58    65   am
   112    58    57    1
   113    80    79    2
   114    47    45    1
   115    77    67   am
   116    77    78    1
   117    57    60    1
   118    45    42    1
   119    67    68    2
   120   114   111    1
   121    79    78    1
   122   110   111    1
   123   111   112    1
   124    44    43    2
   125    78    81    1
   126    81    83    1
   127    81    82    1
   128    43    42    1
   129    60    61    1
   130    42    41    1
   131   112   113    2
   132    61    62    1
   133    62    64   ar
   134    62    63   ar
