@<TRIPOS>MOLECULE
tmp/5m0mA00.pdb
 122 121 0 0 0
SMALL
GASTEIGER

@<TRIPOS>ATOM
      1  N         -9.2100  -37.5270   13.6920 N.3    16  PRO16      -0.2103
      2  CA        -9.9640  -38.0260   14.8490 C.3    16  PRO16       0.1489
      3  C         -9.2900  -39.2270   15.5220 C.2    16  PRO16       0.2418
      4  O         -8.3970  -39.8270   14.9110 O.2    16  PRO16      -0.2734
      5  CB       -11.2960  -38.4440   14.2220 C.3    16  PRO16       0.0282
      6  CG       -11.4650  -37.5350   13.0370 C.3    16  PRO16       0.0208
      7  CD       -10.1160  -36.9710   12.6670 C.3    16  PRO16       0.0893
      8  N         -9.6680  -39.5750   16.7590 N.am   17  PRO17      -0.2718
      9  CA       -10.7000  -38.8830   17.5500 C.3    17  PRO17       0.1535
     10  C        -10.2580  -37.5660   18.2180 C.2    17  PRO17       0.2598
     11  O        -11.1170  -36.7920   18.6440 O.2    17  PRO17      -0.2715
     12  CB       -11.0610  -39.9210   18.6320 C.3    17  PRO17       0.0310
     13  CG       -10.0100  -40.9980   18.5650 C.3    17  PRO17       0.0237
     14  CD        -8.9730  -40.5990   17.5580 C.3    17  PRO17       0.0939
     15  N         -8.9490  -37.3030   18.2670 N.am   18  ASP18      -0.1972
     16  CA        -8.3730  -36.2340   19.1060 C.3    18  ASP18       0.1709
     17  C         -8.8410  -34.8270   18.7750 C.2    18  ASP18       0.2293
     18  O         -9.0360  -34.4870   17.6080 O.2    18  ASP18      -0.2864
     19  CB        -6.8480  -36.2630   19.0270 C.3    18  ASP18       0.1436
     20  CG        -6.2690  -37.5620   19.5400 C.2    18  ASP18       0.3671
     21  OD1       -6.7870  -38.0960   20.5480 O.co2  18  ASP18      -0.2456
     22  OD2       -5.3020  -38.0590   18.9240 O.co2  18  ASP18      -0.2456
     23  N        -13.3470  -24.6850   15.3890 N.3    26  LYS26      -0.1231
     24  CA       -14.7260  -24.2250   15.6840 C.3    26  LYS26       0.1693
     25  C        -15.7070  -24.6010   14.5480 C.2    26  LYS26       0.2593
     26  O        -16.8620  -24.9290   14.7920 O.2    26  LYS26      -0.2718
     27  CB       -14.7920  -22.6910   15.9070 C.3    26  LYS26       0.0285
     28  CG       -14.2490  -22.1510   17.2270 C.3    26  LYS26       0.0035
     29  CD       -15.2770  -22.2080   18.3410 C.3    26  LYS26       0.0206
     30  CE       -14.6420  -21.8510   19.6840 C.3    26  LYS26       0.1093
     31  NZ       -15.4500  -22.3070   20.8570 N.3    26  LYS26      -0.1314
     32  N        -15.2350  -24.5660   13.3070 N.am   27  SER27      -0.1938
     33  CA       -16.1120  -24.8880   12.1750 C.3    27  SER27       0.2055
     34  C        -16.5100  -26.3620   12.1600 C.2    27  SER27       0.2643
     35  O        -17.5390  -26.7040   11.5990 O.2    27  SER27      -0.2714
     36  CB       -15.4620  -24.4790   10.8620 C.3    27  SER27       0.2130
     37  OG       -14.9670  -23.1650   10.9840 O.3    27  SER27      -0.2179
     38  N        -15.7080  -27.2210   12.7790 N.am   28  TYR28      -0.1959
     39  CA       -16.0040  -28.6430   12.8560 C.3    28  TYR28       0.1771
     40  C        -16.4340  -29.0700   14.2470 C.2    28  TYR28       0.2620
     41  O        -16.3580  -30.2450   14.5610 O.2    28  TYR28      -0.2715
     42  CB       -14.7730  -29.4470   12.4130 C.3    28  TYR28       0.0574
     43  CG       -14.4780  -29.3330   10.9330 C.ar   28  TYR28      -0.0198
     44  CD1      -13.8610  -28.1950   10.4100 C.ar   28  TYR28      -0.0009
     45  CD2      -14.8380  -30.3580   10.0380 C.ar   28  TYR28      -0.0009
     46  CE1      -13.5930  -28.0830    9.0560 C.ar   28  TYR28       0.0417
     47  CE2      -14.5710  -30.2520    8.6740 C.ar   28  TYR28       0.0417
     48  CZ       -13.9520  -29.1120    8.2000 C.ar   28  TYR28       0.1957
     49  OH       -13.6690  -28.9790    6.8860 O.3    28  TYR28      -0.2866
     50  N        -16.8970  -28.1210   15.0710 N.am   29  SER29      -0.1936
     51  CA       -17.2790  -28.3620   16.4660 C.3    29  SER29       0.2055
     52  C        -16.3310  -29.3270   17.1640 C.2    29  SER29       0.2643
     53  O        -16.7600  -30.2270   17.8500 O.2    29  SER29      -0.2714
     54  CB       -18.7060  -28.8900   16.5290 C.3    29  SER29       0.2130
     55  OG       -19.5080  -28.1890   15.6110 O.3    29  SER29      -0.2179
     56  N        -15.0380  -29.1180   16.9710 N.am   30  SER30      -0.1949
     57  CA       -14.0220  -30.0720   17.3690 C.3    30  SER30       0.1924
     58  C        -12.9180  -29.4810   18.2490 C.2    30  SER30       0.2314
     59  O        -11.9530  -30.1700   18.5390 O.2    30  SER30      -0.2863
     60  CB       -13.3970  -30.6300   16.0960 C.3    30  SER30       0.2116
     61  OG       -12.7700  -29.5780   15.3710 O.3    30  SER30      -0.2180
     62  N        -24.7300  -21.8000    2.3580 N.3   189  LEU189     -0.1231
     63  CA       -23.9660  -21.2740    3.4890 C.3   189  LEU189      0.1693
     64  C        -24.4370  -21.9070    4.8310 C.2   189  LEU189      0.2592
     65  O        -23.6120  -22.2230    5.7110 O.2   189  LEU189     -0.2718
     66  CB       -24.1090  -19.7560    3.5130 C.3   189  LEU189      0.0284
     67  CG       -23.0830  -19.0020    4.3430 C.3   189  LEU189      0.0019
     68  CD1      -21.7040  -19.2430    3.7490 C.3   189  LEU189      0.0001
     69  CD2      -23.4030  -17.4990    4.4880 C.3   189  LEU189      0.0001
     70  N        -25.7460  -22.1380    4.9540 N.am  190  ARG190     -0.1966
     71  CA       -26.3240  -22.8430    6.0980 C.3   190  ARG190      0.1729
     72  C        -26.5640  -24.3260    5.7900 C.2   190  ARG190      0.2617
     73  O        -27.5040  -24.6700    5.0710 O.2   190  ARG190     -0.2715
     74  CB       -27.6400  -22.1790    6.4990 C.3   190  ARG190      0.0348
     75  CG       -27.5540  -20.6620    6.6680 C.3   190  ARG190      0.0492
     76  CD       -28.7540  -20.0860    7.4300 C.3   190  ARG190      0.2205
     77  NE       -28.3540  -19.6180    8.7630 N.pl3 190  ARG190     -0.0865
     78  CZ       -28.5560  -20.2320    9.9440 C.cat 190  ARG190      0.5346
     79  NH1      -29.2140  -21.3980   10.0750 N.pl3 190  ARG190      0.1354
     80  NH2      -28.0920  -19.6370   11.0370 N.pl3 190  ARG190      0.1354
     81  N        -25.7360  -25.2040    6.3470 N.am  191  GLY191     -0.1940
     82  CA       -25.8330  -26.6380    6.0680 C.3   191  GLY191      0.2014
     83  C        -24.5230  -27.3930    6.2050 C.2   191  GLY191      0.2638
     84  O        -23.4420  -26.8170    6.1740 O.2   191  GLY191     -0.2714
     85  N        -24.6540  -28.6960    6.3850 N.am  192  ARG192     -0.1977
     86  CA       -23.5340  -29.6290    6.4250 C.3   192  ARG192      0.1597
     87  C        -22.9480  -29.8650    5.0360 C.2   192  ARG192      0.2287
     88  O        -21.8060  -30.2940    4.9130 O.2   192  ARG192     -0.2864
     89  CB       -23.9920  -31.0050    6.9300 C.3   192  ARG192      0.0334
     90  CG       -24.1170  -31.1540    8.4230 C.3   192  ARG192      0.0492
     91  CD       -25.0380  -32.3310    8.7730 C.3   192  ARG192      0.2205
     92  NE       -26.4800  -32.0390    8.5880 N.pl3 192  ARG192     -0.0865
     93  CZ       -27.2250  -31.2500    9.3830 C.cat 192  ARG192      0.5346
     94  NH1      -28.5210  -31.0800    9.1120 N.pl3 192  ARG192      0.1354
     95  NH2      -26.6890  -30.6090   10.4350 N.pl3 192  ARG192      0.1354
     96  N        -21.9240  -28.1370    2.3670 N.3   194  LYS194     -0.1231
     97  CA       -20.7590  -27.3650    1.9530 C.3   194  LYS194      0.1693
     98  C        -19.4020  -27.9050    2.4330 C.2   194  LYS194      0.2592
     99  O        -18.3720  -27.5770    1.8470 O.2   194  LYS194     -0.2718
    100  CB       -20.9070  -25.8960    2.3680 C.3   194  LYS194      0.0285
    101  CG       -20.8680  -25.6590    3.8840 C.3   194  LYS194      0.0035
    102  CD       -20.9470  -24.1850    4.2610 C.3   194  LYS194      0.0206
    103  CE       -20.8940  -24.0240    5.7820 C.3   194  LYS194      0.1093
    104  NZ       -22.1770  -24.4130    6.4740 N.3   194  LYS194     -0.1314
    105  N        -19.4170  -28.6890    3.5080 N.am  195  PHE195     -0.1976
    106  CA       -18.2530  -29.4120    3.9930 C.3   195  PHE195      0.1639
    107  C        -17.8210  -30.6380    3.1550 C.2   195  PHE195      0.2290
    108  O        -16.7230  -31.1210    3.3400 O.2   195  PHE195     -0.2864
    109  CB       -18.4800  -29.8830    5.4450 C.3   195  PHE195      0.0560
    110  CG       -18.5550  -28.7660    6.4430 C.ar  195  PHE195     -0.0200
    111  CD1      -17.3960  -28.2810    7.0500 C.ar  195  PHE195     -0.0042
    112  CD2      -19.7780  -28.1930    6.7840 C.ar  195  PHE195     -0.0042
    113  CE1      -17.4570  -27.2440    7.9770 C.ar  195  PHE195     -0.0003
    114  CE2      -19.8470  -27.1520    7.7200 C.ar  195  PHE195     -0.0003
    115  CZ       -18.6840  -26.6770    8.3070 C.ar  195  PHE195     -0.0000
    116  N        -15.5500  -18.3030   11.4910 N.3   223  VAL223     -0.1245
    117  CA       -16.0420  -16.9300   11.5180 C.3   223  VAL223      0.1561
    118  C        -16.0820  -16.3650   12.9410 C.2   223  VAL223      0.2260
    119  O        -15.9070  -15.1630   13.1120 O.2   223  VAL223     -0.2867
    120  CB       -17.4040  -16.7670   10.8020 C.3   223  VAL223      0.0252
    121  CG1      -17.2980  -17.2530    9.3590 C.3   223  VAL223      0.0019
    122  CG2      -18.5140  -17.4970   11.5370 C.3   223  VAL223      0.0019
@<TRIPOS>BOND
     1    99    98    2
     2    97    96    1
     3    97   100    1
     4    97    98    1
     5    62    63    1
     6   100   101    1
     7    98   105   am
     8   107   108    2
     9   107   106    1
    10    63    66    1
    11    63    64    1
    12   105   106    1
    13    66    67    1
    14    68    67    1
    15   101   102    1
    16   106   109    1
    17   102   103    1
    18    67    69    1
    19    64    70   am
    20    64    65    2
    21    88    87    2
    22    70    71    1
    23    87    86    1
    24    73    72    2
    25   109   110    1
    26   103   104    1
    27    72    71    1
    28    72    81   am
    29    82    83    1
    30    82    81    1
    31    71    74    1
    32    84    83    2
    33    83    85   am
    34    85    86    1
    35    86    89    1
    36   110   112   ar
    37   110   111   ar
    38    74    75    1
    39    75    76    1
    40   112   114   ar
    41    49    48    1
    42    89    90    1
    43   111   113   ar
    44    76    77    1
    45   114   115   ar
    46   113   115   ar
    47    48    47   ar
    48    48    46   ar
    49    90    91    1
    50    92    91    1
    51    92    93    2
    52    47    45   ar
    53    77    78    2
    54    46    44   ar
    55    94    93    1
    56   121   120    1
    57    93    95    1
    58    78    79    1
    59    78    80    1
    60    45    43   ar
    61    44    43   ar
    62   120   117    1
    63   120   122    1
    64    36    37    1
    65    36    33    1
    66    43    42    1
    67   116   117    1
    68   117   118    1
    69    35    34    2
    70    34    33    1
    71    34    38   am
    72    33    32    1
    73    42    39    1
    74     7     6    1
    75     7     1    1
    76    38    39    1
    77    39    40    1
    78   118   119    2
    79     6     5    1
    80    32    25   am
    81     1     2    1
    82     5     2    1
    83    40    41    2
    84    40    50   am
    85    25    26    2
    86    25    24    1
    87     2     3    1
    88     4     3    2
    89    50    51    1
    90    61    60    1
    91    23    24    1
    92     3     8   am
    93    55    54    1
    94    24    27    1
    95    27    28    1
    96    60    57    1
    97    51    54    1
    98    51    52    1
    99     8     9    1
   100     8    14    1
   101    56    52   am
   102    56    57    1
   103    52    53    2
   104    28    29    1
   105    57    58    1
   106     9    10    1
   107     9    12    1
   108    14    13    1
   109    18    17    2
   110    10    15   am
   111    10    11    2
   112    58    59    2
   113    15    16    1
   114    29    30    1
   115    13    12    1
   116    17    16    1
   117    22    20   ar
   118    19    16    1
   119    19    20    1
   120    20    21   ar
   121    30    31    1
