@<TRIPOS>MOLECULE
tmp/5m0pA01.pdb
 211 204 0 0 0
SMALL
GASTEIGER

@<TRIPOS>ATOM
      1  N         11.5210  -86.5360   62.0880 N.3    18  VAL18      -0.1245
      2  CA        10.3760  -85.7920   62.5310 C.3    18  VAL18       0.1561
      3  C         10.2780  -84.4700   61.7790 C.2    18  VAL18       0.2260
      4  O          9.2270  -84.1040   61.2910 O.2    18  VAL18      -0.2867
      5  CB        10.4300  -85.5560   64.0400 C.3    18  VAL18       0.0252
      6  CG1        9.2950  -84.6230   64.4660 C.3    18  VAL18       0.0019
      7  CG2       10.3030  -86.8650   64.7730 C.3    18  VAL18       0.0019
      8  N          4.3200  -86.8080   60.5810 N.3    25  TYR25      -0.1227
      9  CA         5.2400  -87.8080   61.1510 C.3    25  TYR25       0.1736
     10  C          4.5210  -88.8460   61.9980 C.2    25  TYR25       0.2596
     11  O          4.7060  -90.0610   61.8010 O.2    25  TYR25      -0.2718
     12  CB         6.3180  -87.1470   61.9700 C.3    25  TYR25       0.0548
     13  CG         7.1250  -88.1730   62.7410 C.ar   25  TYR25      -0.0200
     14  CD1        8.0870  -88.9660   62.0970 C.ar   25  TYR25      -0.0009
     15  CD2        6.8930  -88.3850   64.0910 C.ar   25  TYR25      -0.0009
     16  CE1        8.8010  -89.9270   62.7960 C.ar   25  TYR25       0.0417
     17  CE2        7.5770  -89.3760   64.7900 C.ar   25  TYR25       0.0417
     18  CZ         8.5350  -90.1280   64.1470 C.ar   25  TYR25       0.1957
     19  OH         9.2320  -91.0620   64.8500 O.3    25  TYR25      -0.2866
     20  N          3.6800  -88.3960   62.9250 N.am   26  THR26      -0.1953
     21  CA         3.0530  -89.3210   63.8340 C.3    26  THR26       0.1897
     22  C          2.0340  -90.2100   63.0980 C.2    26  THR26       0.2313
     23  O          1.9000  -91.4070   63.4020 O.2    26  THR26      -0.2863
     24  CB         2.3830  -88.5710   64.9820 C.3    26  THR26       0.1794
     25  OG1        1.4290  -87.6270   64.4590 O.3    26  THR26      -0.2208
     26  CG2        3.4230  -87.8520   65.8350 C.3    26  THR26       0.0378
     27  N          9.3320  -92.9950   70.0390 N.3    40  THR40      -0.1218
     28  CA        10.3900  -92.4990   69.1820 C.3    40  THR40       0.1862
     29  C         11.3200  -91.6770   70.0320 C.2    40  THR40       0.2287
     30  O         10.9440  -91.1690   71.0840 O.2    40  THR40      -0.2866
     31  CB         9.8530  -91.6580   68.0020 C.3    40  THR40       0.1770
     32  OG1       10.8910  -91.3750   67.0740 O.3    40  THR40      -0.2211
     33  CG2        9.2400  -90.3170   68.4810 C.3    40  THR40       0.0375
     34  N         14.0430  -88.3840   70.2210 N.3    42  ALA42      -0.1231
     35  CA        14.3240  -87.0990   69.6110 C.3    42  ALA42       0.1694
     36  C         14.9790  -86.1680   70.6290 C.2    42  ALA42       0.2591
     37  O         15.0780  -86.4870   71.8210 O.2    42  ALA42      -0.2718
     38  CB        13.0540  -86.4770   69.0260 C.3    42  ALA42       0.0304
     39  N         15.4640  -85.0280   70.1240 N.am   43  LEU43      -0.1980
     40  CA        16.0880  -83.9890   70.9530 C.3    43  LEU43       0.1596
     41  C         17.2960  -84.5220   71.6460 C.2    43  LEU43       0.2287
     42  O         17.5910  -84.1270   72.7580 O.2    43  LEU43      -0.2864
     43  CB        15.0970  -83.4610   72.0010 C.3    43  LEU43       0.0297
     44  CG        14.0240  -82.4370   71.6350 C.3    43  LEU43       0.0022
     45  CD1       13.3360  -82.7370   70.3170 C.3    43  LEU43       0.0001
     46  CD2       13.0010  -82.3620   72.7600 C.3    43  LEU43       0.0001
     47  N         10.2620  -90.5680   73.5480 N.3    48  PHE48      -0.1241
     48  CA         8.9090  -90.0180   73.6670 C.3    48  PHE48       0.1605
     49  C          7.9070  -91.0520   73.2090 C.2    48  PHE48       0.2264
     50  O          8.0640  -91.6260   72.1420 O.2    48  PHE48      -0.2867
     51  CB         8.7760  -88.7540   72.8040 C.3    48  PHE48       0.0534
     52  CG         9.4570  -87.5560   73.3740 C.ar   48  PHE48      -0.0203
     53  CD1        8.7870  -86.7330   74.2730 C.ar   48  PHE48      -0.0042
     54  CD2       10.7510  -87.2400   73.0150 C.ar   48  PHE48      -0.0042
     55  CE1        9.3960  -85.6100   74.7980 C.ar   48  PHE48      -0.0003
     56  CE2       11.3750  -86.1170   73.5260 C.ar   48  PHE48      -0.0003
     57  CZ        10.7020  -85.2970   74.4190 C.ar   48  PHE48      -0.0000
     58  N          4.2400  -91.3710   71.8410 N.3    50  VAL50      -0.1245
     59  CA         3.2720  -90.5390   71.1470 C.3    50  VAL50       0.1561
     60  C          1.9020  -91.0960   71.4030 C.2    50  VAL50       0.2260
     61  O          1.6330  -92.2510   71.0620 O.2    50  VAL50      -0.2867
     62  CB         3.5730  -90.5060   69.6490 C.3    50  VAL50       0.0252
     63  CG1        2.5730  -89.6420   68.9100 C.3    50  VAL50       0.0019
     64  CG2        5.0030  -90.0230   69.4170 C.3    50  VAL50       0.0019
     65  N          9.2850  -78.6870   78.1380 N.3    72  LEU72      -0.1231
     66  CA         9.4500  -77.8130   76.9700 C.3    72  LEU72       0.1678
     67  C         10.9540  -77.6630   76.7200 C.2    72  LEU72       0.2434
     68  O         11.6760  -77.3190   77.6320 O.2    72  LEU72      -0.2733
     69  CB         8.8550  -76.4260   77.2220 C.3    72  LEU72       0.0284
     70  CG         7.5880  -75.9390   76.5410 C.3    72  LEU72       0.0019
     71  CD1        7.5300  -74.4070   76.6070 C.3    72  LEU72       0.0001
     72  CD2        7.5140  -76.3530   75.0890 C.3    72  LEU72       0.0001
     73  N         11.4290  -77.9120   75.4880 N.am   73  PRO73      -0.2729
     74  CA        12.8420  -77.7390   75.1720 C.3    73  PRO73       0.1401
     75  C         13.3680  -76.3560   75.5780 C.2    73  PRO73       0.2269
     76  O         12.6920  -75.3170   75.4100 O.2    73  PRO73      -0.2865
     77  CB        12.8860  -77.9480   73.6700 C.3    73  PRO73       0.0296
     78  CG        11.7690  -78.8490   73.4040 C.3    73  PRO73       0.0237
     79  CD        10.6780  -78.4360   74.3500 C.3    73  PRO73       0.0939
     80  N         13.1640  -73.3690   73.2700 N.3    76  ILE76      -0.1245
     81  CA        11.8070  -72.8770   73.0930 C.3    76  ILE76       0.1561
     82  C         11.3810  -72.0520   74.3040 C.2    76  ILE76       0.2260
     83  O         10.7370  -71.0230   74.1600 O.2    76  ILE76      -0.2867
     84  CB        10.8540  -74.0380   72.7970 C.3    76  ILE76       0.0252
     85  CG1       11.2240  -74.6930   71.4480 C.3    76  ILE76       0.0019
     86  CG2        9.3860  -73.5790   72.8150 C.3    76  ILE76       0.0019
     87  CD1       10.3060  -75.8570   71.0160 C.3    76  ILE76       0.0001
     88  N         10.3300  -68.5450   72.9770 N.3    80  LEU80      -0.1245
     89  CA         8.8950  -68.4830   72.8010 C.3    80  LEU80       0.1561
     90  C          8.1560  -68.1650   74.1100 C.2    80  LEU80       0.2260
     91  O          7.4000  -67.1700   74.1900 O.2    80  LEU80      -0.2867
     92  CB         8.3620  -69.7630   72.1950 C.3    80  LEU80       0.0270
     93  CG         6.8590  -69.9080   71.8960 C.3    80  LEU80       0.0019
     94  CD1        6.4070  -68.7580   71.0170 C.3    80  LEU80       0.0001
     95  CD2        6.5580  -71.2160   71.1710 C.3    80  LEU80       0.0001
     96  N          4.1140  -71.3600   81.4890 N.3    87  HIS87      -0.1241
     97  CA         4.2280  -72.6660   80.8390 C.3    87  HIS87       0.1621
     98  C          5.2050  -73.5770   81.6100 C.2    87  HIS87       0.2264
     99  O          5.0750  -74.7840   81.5520 O.2    87  HIS87      -0.2867
    100  CB         4.7480  -72.5380   79.4080 C.3    87  HIS87       0.0745
    101  CG         4.0060  -71.5690   78.5670 C.ar   87  HIS87       0.0817
    102  ND1        4.1170  -70.1990   78.7250 N.ar   87  HIS87      -0.2268
    103  CD2        3.1810  -71.7630   77.5160 C.ar   87  HIS87       0.1154
    104  CE1        3.3590  -69.5990   77.8270 C.ar   87  HIS87       0.1986
    105  NE2        2.7930  -70.5260   77.0720 N.ar   87  HIS87      -0.2212
    106  N          7.2290  -66.1750   67.7610 N.3   172  ILE172     -0.1245
    107  CA         6.1990  -67.1540   67.5080 C.3   172  ILE172      0.1561
    108  C          6.7310  -68.2840   66.5970 C.2   172  ILE172      0.2260
    109  O          6.3580  -69.4410   66.7510 O.2   172  ILE172     -0.2867
    110  CB         4.9390  -66.4730   66.9000 C.3   172  ILE172      0.0252
    111  CG1        4.3530  -65.4390   67.9020 C.3   172  ILE172      0.0019
    112  CG2        3.8770  -67.5080   66.5270 C.3   172  ILE172      0.0019
    113  CD1        3.5550  -64.3610   67.2410 C.3   172  ILE172      0.0001
    114  N          9.5690  -72.0760   67.5140 N.3   175  PHE175     -0.1241
    115  CA         9.4480  -73.5140   67.7700 C.3   175  PHE175      0.1605
    116  C          9.7660  -74.4100   66.5530 C.2   175  PHE175      0.2264
    117  O          9.5800  -75.6130   66.6220 O.2   175  PHE175     -0.2867
    118  CB         8.0980  -73.8470   68.3540 C.3   175  PHE175      0.0534
    119  CG         6.9390  -73.7330   67.3870 C.ar  175  PHE175     -0.0203
    120  CD1        6.2780  -72.5340   67.2120 C.ar  175  PHE175     -0.0042
    121  CD2        6.4650  -74.8500   66.7190 C.ar  175  PHE175     -0.0042
    122  CE1        5.1860  -72.4400   66.3470 C.ar  175  PHE175     -0.0003
    123  CE2        5.3960  -74.7800   65.8630 C.ar  175  PHE175     -0.0003
    124  CZ         4.7450  -73.5680   65.6660 C.ar  175  PHE175     -0.0000
    125  N         12.0420  -77.4020   66.9730 N.3   178  LEU178     -0.1245
    126  CA        11.6290  -78.2750   68.0750 C.3   178  LEU178      0.1561
    127  C         12.5920  -78.2690   69.2700 C.2   178  LEU178      0.2260
    128  O         12.6620  -79.2260   70.0570 O.2   178  LEU178     -0.2867
    129  CB        11.3940  -79.6870   67.5720 C.3   178  LEU178      0.0270
    130  CG        10.3920  -79.8420   66.4200 C.3   178  LEU178      0.0019
    131  CD1       10.1570  -81.3140   66.0760 C.3   178  LEU178      0.0001
    132  CD2        9.0820  -79.1720   66.7730 C.3   178  LEU178      0.0001
    133  N          1.2430  -61.7330   73.0140 N.3   247  ARG247     -0.1231
    134  CA         2.0050  -62.3180   71.9040 C.3   247  ARG247      0.1679
    135  C          1.2010  -63.4250   71.1900 C.2   247  ARG247      0.2434
    136  O          1.1380  -63.4400   69.9550 O.2   247  ARG247     -0.2733
    137  CB         3.3710  -62.8460   72.3960 C.3   247  ARG247      0.0321
    138  CG         4.2150  -63.4920   71.2800 C.3   247  ARG247      0.0489
    139  CD         5.3110  -64.4110   71.7820 C.3   247  ARG247      0.2205
    140  NE         4.7320  -65.5680   72.5030 N.pl3 247  ARG247     -0.0865
    141  CZ         4.7310  -65.7050   73.8150 C.cat 247  ARG247      0.5346
    142  NH1        5.2610  -64.7810   74.5960 N.pl3 247  ARG247      0.1354
    143  NH2        4.1670  -66.7510   74.3530 N.pl3 247  ARG247      0.1354
    144  N          0.5790  -64.3680   71.9230 N.am  248  PRO248     -0.2729
    145  CA        -0.1970  -65.3730   71.2080 C.3   248  PRO248      0.1401
    146  C         -1.4580  -64.7980   70.5600 C.2   248  PRO248      0.2269
    147  O         -1.9450  -65.3710   69.5930 O.2   248  PRO248     -0.2865
    148  CB        -0.5330  -66.3870   72.2810 C.3   248  PRO248      0.0296
    149  CG         0.3850  -66.0980   73.4080 C.3   248  PRO248      0.0237
    150  CD         0.6440  -64.6650   73.3500 C.3   248  PRO248      0.0939
    151  N         -0.2570  -63.9390   67.3830 N.3   251  ALA251     -0.1245
    152  CA        -0.0700  -65.1450   66.6150 C.3   251  ALA251      0.1562
    153  C         -1.3390  -65.5930   65.8770 C.2   251  ALA251      0.2260
    154  O         -1.2620  -66.4340   64.9920 O.2   251  ALA251     -0.2867
    155  CB         0.4500  -66.2950   67.5100 C.3   251  ALA251      0.0290
    156  N         -0.8990  -76.0900   63.2320 N.3   293  PHE293     -0.1227
    157  CA        -0.1970  -75.0550   63.9540 C.3   293  PHE293      0.1736
    158  C          0.6900  -75.7240   65.0080 C.2   293  PHE293      0.2595
    159  O          1.8880  -75.8670   64.8070 O.2   293  PHE293     -0.2718
    160  CB        -1.1700  -74.0250   64.5710 C.3   293  PHE293      0.0547
    161  CG        -0.5340  -72.7060   64.9310 C.ar  293  PHE293     -0.0202
    162  CD1        0.7770  -72.6230   65.4010 C.ar  293  PHE293     -0.0042
    163  CD2       -1.2800  -71.5460   64.8640 C.ar  293  PHE293     -0.0042
    164  CE1        1.3240  -71.4080   65.7350 C.ar  293  PHE293     -0.0003
    165  CE2       -0.7460  -70.3270   65.2120 C.ar  293  PHE293     -0.0003
    166  CZ         0.5640  -70.2510   65.6450 C.ar  293  PHE293     -0.0000
    167  N          0.0930  -76.1500   66.1040 N.am  294  VAL294     -0.1966
    168  CA         0.8250  -76.8910   67.1460 C.3   294  VAL294      0.1712
    169  C          0.8860  -78.3780   66.7380 C.2   294  VAL294      0.2458
    170  O         -0.1550  -79.0200   66.5690 O.2   294  VAL294     -0.2730
    171  CB         0.1350  -76.7460   68.5090 C.3   294  VAL294      0.0289
    172  CG1        0.8810  -77.5420   69.5730 C.3   294  VAL294      0.0023
    173  CG2        0.0350  -75.2650   68.8680 C.3   294  VAL294      0.0023
    174  N          2.0890  -78.9260   66.5670 N.am  295  PRO295     -0.2716
    175  CA         2.2040  -80.3290   66.1360 C.3   295  PRO295      0.1536
    176  C          1.9130  -81.3240   67.2520 C.2   295  PRO295      0.2599
    177  O          1.1780  -82.2810   67.0630 O.2   295  PRO295     -0.2715
    178  CB         3.6490  -80.4360   65.6660 C.3   295  PRO295      0.0310
    179  CG         4.3730  -79.3700   66.3860 C.3   295  PRO295      0.0237
    180  CD         3.3870  -78.2390   66.6010 C.3   295  PRO295      0.0939
    181  N          2.5300  -81.0870   68.4100 N.am  296  PHE296     -0.1960
    182  CA         2.4180  -81.9450   69.5370 C.3   296  PHE296      0.1771
    183  C          2.9630  -81.2120   70.7730 C.2   296  PHE296      0.2619
    184  O          3.6030  -80.1730   70.6620 O.2   296  PHE296     -0.2715
    185  CB         3.1900  -83.2920   69.3040 C.3   296  PHE296      0.0574
    186  CG         4.3410  -83.1670   68.3940 C.ar  296  PHE296     -0.0200
    187  CD1        5.4250  -82.4110   68.7430 C.ar  296  PHE296     -0.0042
    188  CD2        4.3430  -83.8150   67.1480 C.ar  296  PHE296     -0.0042
    189  CE1        6.5070  -82.2880   67.8760 C.ar  296  PHE296     -0.0003
    190  CE2        5.4220  -83.6930   66.2810 C.ar  296  PHE296     -0.0003
    191  CZ         6.4980  -82.9120   66.6390 C.ar  296  PHE296     -0.0000
    192  N          2.6670  -81.7690   71.9380 N.am  297  LEU297     -0.1964
    193  CA         3.0280  -81.1640   73.2250 C.3   297  LEU297      0.1713
    194  C          3.8320  -82.1840   74.0670 C.2   297  LEU297      0.2458
    195  O          3.4860  -83.3640   74.1200 O.2   297  LEU297     -0.2730
    196  CB         1.7430  -80.7310   73.9800 C.3   297  LEU297      0.0310
    197  CG         0.9980  -79.5340   73.3350 C.3   297  LEU297      0.0022
    198  CD1       -0.3330  -79.2770   73.9810 C.3   297  LEU297      0.0001
    199  CD2        1.8320  -78.2870   73.3950 C.3   297  LEU297      0.0001
    200  N          4.8920  -81.7400   74.7390 N.am  298  PRO298     -0.2727
    201  CA         5.7480  -82.6470   75.5090 C.3   298  PRO298      0.1402
    202  C          5.3660  -82.7500   76.9820 C.2   298  PRO298      0.2269
    203  O          4.9580  -81.7820   77.6300 O.2   298  PRO298     -0.2865
    204  CB         7.1220  -82.0390   75.3410 C.3   298  PRO298      0.0296
    205  CG         6.8480  -80.5900   75.2860 C.3   298  PRO298      0.0237
    206  CD         5.5350  -80.4340   74.5590 C.3   298  PRO298      0.0939
    207  N          4.3970  -87.3880   74.2300 N.3   319  ALA319     -0.1245
    208  CA         4.0690  -86.3920   73.2390 C.3   319  ALA319      0.1562
    209  C          2.6160  -86.5240   72.8670 C.2   319  ALA319      0.2260
    210  O          2.2390  -87.4920   72.2360 O.2   319  ALA319     -0.2867
    211  CB         4.9830  -86.4900   72.0380 C.3   319  ALA319      0.0290
@<TRIPOS>BOND
     1     8     9    1
     2     9    12    1
     3     9    10    1
     4     4     3    2
     5     3     2    1
     6    11    10    2
     7    12    13    1
     8    10    20   am
     9     1     2    1
    10    14    13   ar
    11    14    16   ar
    12     2     5    1
    13    13    15   ar
    14    16    18   ar
    15    20    21    1
    16    22    23    2
    17    22    21    1
    18   156   157    1
    19    21    24    1
    20   157   160    1
    21   157   158    1
    22     5     6    1
    23     5     7    1
    24    15    17   ar
    25    18    17   ar
    26    18    19    1
    27    25    24    1
    28   160   161    1
    29   159   158    2
    30   163   161   ar
    31   163   165   ar
    32   161   162   ar
    33    24    26    1
    34   154   153    2
    35   158   167   am
    36   165   166   ar
    37   162   164   ar
    38   166   164   ar
    39   178   175    1
    40   178   179    1
    41   124   123   ar
    42   124   122   ar
    43   123   121   ar
    44   153   152    1
    45   131   130    1
    46   167   168    1
    47   175   174    1
    48   175   176    1
    49   190   191   ar
    50   190   188   ar
    51   122   120   ar
    52   179   180    1
    53   130   132    1
    54   130   129    1
    55   112   110    1
    56   116   117    2
    57   116   115    1
    58   174   180    1
    59   174   169   am
    60   170   169    2
    61   108   109    2
    62   108   107    1
    63   152   151    1
    64   152   155    1
    65   191   189   ar
    66   121   119   ar
    67   169   168    1
    68   110   107    1
    69   110   111    1
    70   125   126    1
    71   177   176    2
    72    32    31    1
    73   168   171    1
    74   188   186   ar
    75   120   119   ar
    76   113   111    1
    77   176   181   am
    78   119   118    1
    79   107   106    1
    80   114   115    1
    81   129   126    1
    82   115   118    1
    83   189   187   ar
    84    31    33    1
    85    31    28    1
    86   126   127    1
    87   186   187   ar
    88   186   185    1
    89   181   182    1
    90   171   173    1
    91   171   172    1
    92    63    62    1
    93    38    35    1
    94    28    29    1
    95    28    27    1
    96   127   128    2
    97   185   182    1
    98    64    62    1
    99   182   183    1
   100   147   146    2
   101    35    34    1
   102    35    36    1
   103    62    59    1
   104   136   135    2
   105    29    30    2
   106    39    36   am
   107    39    40    1
   108    45    44    1
   109   146   145    1
   110    36    37    2
   111   184   183    2
   112   183   192   am
   113    40    41    1
   114    40    43    1
   115    87    85    1
   116    94    93    1
   117    61    60    2
   118    59    60    1
   119    59    58    1
   120    95    93    1
   121   135   134    1
   122   135   144   am
   123   145   144    1
   124   145   148    1
   125   138   139    1
   126   138   137    1
   127    85    84    1
   128    44    43    1
   129    44    46    1
   130    41    42    2
   131   139   140    1
   132    93    92    1
   133   134   137    1
   134   134   133    1
   135   144   150    1
   136   192   193    1
   137   211   208    1
   138    50    49    2
   139    92    89    1
   140   210   209    2
   141   148   149    1
   142   140   141    2
   143    84    86    1
   144    84    81    1
   145    89    88    1
   146    89    90    1
   147    51    52    1
   148    51    48    1
   149   209   208    1
   150    54    52   ar
   151    54    56   ar
   152    81    80    1
   153    81    82    1
   154    49    48    1
   155   193   196    1
   156   193   194    1
   157   208   207    1
   158   197   199    1
   159   197   196    1
   160   197   198    1
   161   150   149    1
   162    52    53   ar
   163    78    77    1
   164    78    79    1
   165    56    57   ar
   166    47    48    1
   167    77    74    1
   168   141   143    1
   169   141   142    1
   170   194   195    2
   171   194   200   am
   172    90    91    2
   173    83    82    2
   174    53    55   ar
   175    79    73    1
   176    57    55   ar
   177   206   200    1
   178   206   205    1
   179   200   201    1
   180    72    70    1
   181    74    73    1
   182    74    75    1
   183   205   204    1
   184   204   201    1
   185    76    75    2
   186    73    67   am
   187   201   202    1
   188    70    71    1
   189    70    69    1
   190    67    66    1
   191    67    68    2
   192    66    69    1
   193    66    65    1
   194   202   203    2
   195   105   103   ar
   196   105   104   ar
   197   103   101   ar
   198   104   102   ar
   199   101   102   ar
   200   101   100    1
   201   100    97    1
   202    97    96    1
   203    97    98    1
   204    99    98    2
