@<TRIPOS>MOLECULE
tmp/5m0tA00.pdb
 143 132 0 0 0
SMALL
GASTEIGER

@<TRIPOS>ATOM
      1  N         28.5890    2.7150  185.3010 N.3    63  TYR63      -0.1227
      2  CA        29.4200    2.6390  186.5330 C.3    63  TYR63       0.1736
      3  C         29.5170    3.9450  187.3690 C.2    63  TYR63       0.2595
      4  O         29.7710    3.8730  188.5790 O.2    63  TYR63      -0.2718
      5  CB        30.8480    2.1260  186.1840 C.3    63  TYR63       0.0548
      6  CG        30.8340    0.6800  185.7610 C.ar   63  TYR63      -0.0200
      7  CD1       30.5130   -0.3260  186.6750 C.ar   63  TYR63      -0.0009
      8  CD2       31.0710    0.3120  184.4370 C.ar   63  TYR63      -0.0009
      9  CE1       30.4590   -1.6600  186.2980 C.ar   63  TYR63       0.0417
     10  CE2       31.0230   -1.0250  184.0460 C.ar   63  TYR63       0.0417
     11  CZ        30.7030   -2.0060  184.9710 C.ar   63  TYR63       0.1957
     12  OH        30.6710   -3.3260  184.5810 O.3    63  TYR63      -0.2866
     13  N         29.3200    5.1140  186.7400 N.am   64  LEU64      -0.1980
     14  CA        29.5240    6.4340  187.3980 C.3    64  LEU64       0.1596
     15  C         28.2540    7.2120  187.8380 C.2    64  LEU64       0.2287
     16  O         28.3730    8.3110  188.3880 O.2    64  LEU64      -0.2864
     17  CB        30.4030    7.3420  186.5120 C.3    64  LEU64       0.0297
     18  CG        31.8330    6.8540  186.2300 C.3    64  LEU64       0.0022
     19  CD1       32.4760    7.6870  185.1310 C.3    64  LEU64       0.0001
     20  CD2       32.6920    6.8710  187.4900 C.3    64  LEU64       0.0001
     21  N         27.6660    9.1250  191.6850 N.3    67  MET67      -0.1245
     22  CA        28.9280    9.6520  192.2140 C.3    67  MET67       0.1570
     23  C         29.0430   11.1340  191.9100 C.2    67  MET67       0.2261
     24  O         28.4660   11.6200  190.9190 O.2    67  MET67      -0.2867
     25  CB        30.1140    8.9480  191.5710 C.3    67  MET67       0.0387
     26  CG        30.2820    7.5130  192.0140 C.3    67  MET67       0.0595
     27  SD        31.7320    6.7640  191.2510 S.3    67  MET67      -0.1393
     28  CE        32.3060    5.7390  192.6060 C.3    67  MET67       0.0692
     29  N         36.6460   11.1170  192.6530 N.3   113  LEU113     -0.1245
     30  CA        35.3560   10.4550  192.8440 C.3   113  LEU113      0.1561
     31  C         34.9510   10.4800  194.3190 C.2   113  LEU113      0.2260
     32  O         35.5300    9.7610  195.1340 O.2   113  LEU113     -0.2867
     33  CB        35.3990    9.0110  192.3250 C.3   113  LEU113      0.0270
     34  CG        35.6780    8.7610  190.8260 C.3   113  LEU113      0.0019
     35  CD1       35.6170    7.2640  190.5310 C.3   113  LEU113      0.0001
     36  CD2       34.7350    9.5140  189.8900 C.3   113  LEU113      0.0001
     37  N         29.6400    0.0150  193.6580 N.3   122  GLN122     -0.1245
     38  CA        29.6730   -0.4600  192.2740 C.3   122  GLN122      0.1566
     39  C         29.6500   -1.9780  192.2510 C.2   122  GLN122      0.2260
     40  O         30.0920   -2.6360  193.2110 O.2   122  GLN122     -0.2867
     41  CB        30.9510    0.0160  191.5760 C.3   122  GLN122      0.0367
     42  CG        31.0020    1.5050  191.3220 C.3   122  GLN122      0.0905
     43  CD        32.3130    1.9630  190.6750 C.2   122  GLN122      0.2608
     44  OE1       33.3910    1.4890  191.0080 O.2   122  GLN122     -0.2717
     45  NE2       32.2190    2.9120  189.7580 N.am  122  GLN122     -0.0878
     46  N         34.1470   -5.0200  188.5660 N.3   125  HIS125     -0.1241
     47  CA        34.4110   -4.9540  187.1320 C.3   125  HIS125      0.1621
     48  C         35.9310   -4.8860  186.8910 C.2   125  HIS125      0.2264
     49  O         36.6960   -4.5870  187.8060 O.2   125  HIS125     -0.2867
     50  CB        33.7200   -3.7020  186.5400 C.3   125  HIS125      0.0745
     51  CG        34.1970   -2.4030  187.1350 C.ar  125  HIS125      0.0817
     52  ND1       33.6620   -1.8660  188.2860 N.ar  125  HIS125     -0.2268
     53  CD2       35.1900   -1.5570  186.7580 C.ar  125  HIS125      0.1154
     54  CE1       34.2920   -0.7390  188.5800 C.ar  125  HIS125      0.1986
     55  NE2       35.2450   -0.5410  187.6870 N.ar  125  HIS125     -0.2212
     56  N         38.8150   -2.9020  184.6610 N.3   127  GLU127     -0.1245
     57  CA        38.9050   -1.5980  184.0150 C.3   127  GLU127      0.1567
     58  C         39.1550   -1.7260  182.5020 C.2   127  GLU127      0.2260
     59  O         38.7120   -0.8600  181.7460 O.2   127  GLU127     -0.2867
     60  CB        39.9580   -0.7070  184.6920 C.3   127  GLU127      0.0388
     61  CG        39.4940    0.7470  184.8820 C.3   127  GLU127      0.1160
     62  CD        38.6140    0.9760  186.1210 C.2   127  GLU127      0.3649
     63  OE1       37.4190    0.6040  186.1280 O.co2 127  GLU127     -0.2457
     64  OE2       39.1180    1.5530  187.1150 O.co2 127  GLU127     -0.2457
     65  N         45.8070    1.5260  187.1350 N.3   147  ASN147     -0.1240
     66  CA        45.0760    2.5020  187.9580 C.3   147  ASN147      0.1653
     67  C         45.7760    2.7900  189.2800 C.2   147  ASN147      0.2266
     68  O         45.8710    1.9210  190.1340 O.2   147  ASN147     -0.2867
     69  CB        43.6550    2.0030  188.2490 C.3   147  ASN147      0.1155
     70  CG        42.7410    3.1010  188.7820 C.2   147  ASN147      0.2627
     71  OD1       43.1840    4.0570  189.4360 O.2   147  ASN147     -0.2716
     72  ND2       41.4520    2.9740  188.4910 N.am  147  ASN147     -0.0877
     73  N         44.9640    4.5230  192.3620 N.3   149  LEU149     -0.1245
     74  CA        43.7830    5.0850  193.0090 C.3   149  LEU149      0.1561
     75  C         44.1350    5.5780  194.4000 C.2   149  LEU149      0.2260
     76  O         44.2550    4.7930  195.3390 O.2   149  LEU149     -0.2867
     77  CB        42.6340    4.0700  193.0370 C.3   149  LEU149      0.0270
     78  CG        41.2310    4.6930  193.2650 C.3   149  LEU149      0.0019
     79  CD1       40.1070    3.7500  192.8370 C.3   149  LEU149      0.0001
     80  CD2       41.0070    5.1270  194.7100 C.3   149  LEU149      0.0001
     81  N         37.5700    1.2120  198.2220 N.3   162  THR162     -0.1218
     82  CA        37.5850    0.4370  196.9940 C.3   162  THR162      0.1862
     83  C         37.8250   -1.0180  197.3090 C.2   162  THR162      0.2287
     84  O         38.7180   -1.3290  198.0830 O.2   162  THR162     -0.2866
     85  CB        38.6920    0.9470  196.0520 C.3   162  THR162      0.1770
     86  OG1       38.5650    2.3610  195.9070 O.3   162  THR162     -0.2211
     87  CG2       38.5950    0.3150  194.6790 C.3   162  THR162      0.0375
     88  N         46.1620   -1.1260  190.8530 N.3   197  PHE197     -0.1241
     89  CA        45.7010   -2.3440  190.1760 C.3   197  PHE197      0.1605
     90  C         45.7230   -2.2200  188.6540 C.2   197  PHE197      0.2264
     91  O         45.5850   -1.1300  188.1090 O.2   197  PHE197     -0.2867
     92  CB        44.3290   -2.7880  190.6850 C.3   197  PHE197      0.0534
     93  CG        43.2670   -1.7210  190.6420 C.ar  197  PHE197     -0.0203
     94  CD1       42.4750   -1.5510  189.5090 C.ar  197  PHE197     -0.0042
     95  CD2       43.0400   -0.8980  191.7390 C.ar  197  PHE197     -0.0042
     96  CE1       41.4910   -0.5700  189.4700 C.ar  197  PHE197     -0.0003
     97  CE2       42.0460    0.0880  191.7030 C.ar  197  PHE197     -0.0003
     98  CZ        41.2700    0.2460  190.5750 C.ar  197  PHE197     -0.0000
     99  N         37.5130   -5.1090  190.6650 N.3   203  HIS203     -0.1241
    100  CA        37.4480   -4.1010  191.6970 C.3   203  HIS203      0.1621
    101  C         36.1330   -3.3210  191.5830 C.2   203  HIS203      0.2264
    102  O         35.4440   -3.4080  190.5730 O.2   203  HIS203     -0.2867
    103  CB        38.6110   -3.1210  191.5230 C.3   203  HIS203      0.0745
    104  CG        38.4460   -2.2450  190.3310 C.ar  203  HIS203      0.0817
    105  ND1       38.8140   -2.6340  189.0640 N.ar  203  HIS203     -0.2268
    106  CD2       37.8630   -1.0340  190.2010 C.ar  203  HIS203      0.1154
    107  CE1       38.4880   -1.6830  188.2060 C.ar  203  HIS203      0.1986
    108  NE2       37.8890   -0.7070  188.8680 N.ar  203  HIS203     -0.2212
    109  N         34.0840    0.4690  193.6690 N.3   205  ALA205     -0.1245
    110  CA        33.8640    1.3680  194.8050 C.3   205  ALA205      0.1562
    111  C         32.9160    0.6930  195.7700 C.2   205  ALA205      0.2260
    112  O         31.9480    0.0740  195.3420 O.2   205  ALA205     -0.2867
    113  CB        33.2870    2.7020  194.3480 C.3   205  ALA205      0.0290
    114  N         33.5720   10.2170  201.2160 N.3   215  ARG215     -0.1245
    115  CA        34.7780    9.4210  200.9360 C.3   215  ARG215      0.1563
    116  C         35.3170    9.8290  199.5620 C.2   215  ARG215      0.2260
    117  O         34.6560    9.6100  198.5590 O.2   215  ARG215     -0.2867
    118  CB        34.4280    7.9200  201.0450 C.3   215  ARG215      0.0307
    119  CG        35.4320    6.8970  200.5200 C.3   215  ARG215      0.0489
    120  CD        35.4160    6.8560  199.0050 C.3   215  ARG215      0.2205
    121  NE        35.6490    5.5620  198.4270 N.pl3 215  ARG215     -0.0865
    122  CZ        35.7280    5.3370  197.1160 C.cat 215  ARG215      0.5346
    123  NH1       35.6140    6.3220  196.2120 N.pl3 215  ARG215      0.1354
    124  NH2       35.9530    4.1020  196.7040 N.pl3 215  ARG215      0.1354
    125  N         38.0530    9.5750  196.6180 N.3   217  GLY217     -0.1225
    126  CA        39.1160    8.8170  195.9580 C.3   217  GLY217      0.1811
    127  C         39.6280    9.5400  194.7290 C.2   217  GLY217      0.2280
    128  O         38.9730   10.4580  194.2310 O.2   217  GLY217     -0.2866
    129  N         41.2010    8.1650  191.2730 N.3   219  PRO219     -0.2116
    130  CA        41.7120    7.2590  190.2490 C.3   219  PRO219      0.1372
    131  C         42.5320    7.9950  189.2100 C.2   219  PRO219      0.2244
    132  O         42.1060    9.0190  188.7070 O.2   219  PRO219     -0.2868
    133  CB        40.4400    6.6920  189.5970 C.3   219  PRO219      0.0268
    134  CG        39.3720    7.6780  189.9390 C.3   219  PRO219      0.0207
    135  CD        39.7280    8.0990  191.3340 C.3   219  PRO219      0.0892
    136  N         44.4390    6.7460  185.7840 N.3   221  ILE221     -0.1245
    137  CA        44.6040    5.5530  184.9570 C.3   221  ILE221      0.1561
    138  C         45.5430    5.8280  183.7910 C.2   221  ILE221      0.2260
    139  O         45.2570    6.6660  182.9300 O.2   221  ILE221     -0.2867
    140  CB        43.2500    5.0050  184.4770 C.3   221  ILE221      0.0252
    141  CG1       42.2420    4.9940  185.6360 C.3   221  ILE221      0.0019
    142  CG2       43.4210    3.6140  183.9020 C.3   221  ILE221      0.0019
    143  CD1       40.8560    4.4860  185.2770 C.3   221  ILE221      0.0001
@<TRIPOS>BOND
     1    59    58    2
     2    58    57    1
     3   139   138    2
     4   138   137    1
     5   142   140    1
     6    57    56    1
     7    57    60    1
     8    10     8   ar
     9    10    11   ar
    10     8     6   ar
    11   140   137    1
    12   140   141    1
    13    12    11    1
    14    60    61    1
    15    61    62    1
    16   137   136    1
    17    11     9   ar
    18    19    18    1
    19   143   141    1
    20     1     2    1
    21     6     5    1
    22     6     7   ar
    23    62    63   ar
    24    62    64   ar
    25     5     2    1
    26    18    17    1
    27    18    20    1
    28     9     7   ar
    29    17    14    1
    30     2     3    1
    31    50    47    1
    32    50    51    1
    33    13     3   am
    34    13    14    1
    35    53    51   ar
    36    53    55   ar
    37    48    47    1
    38    48    49    2
    39    47    46    1
    40    51    52   ar
    41    65    66    1
    42     3     4    2
    43    14    15    1
    44    55    54   ar
    45    15    16    2
    46    66    69    1
    47    66    67    1
    48    91    90    2
    49   107   108   ar
    50   107   105   ar
    51    69    70    1
    52    52    54   ar
    53    72    70   am
    54    90    89    1
    55   132   131    2
    56    70    71    2
    57   108   106   ar
    58   105   104   ar
    59   131   130    1
    60    67    68    2
    61    96    94   ar
    62    96    98   ar
    63    94    93   ar
    64   133   134    1
    65   133   130    1
    66    45    43   am
    67    36    34    1
    68   134   135    1
    69    89    92    1
    70    89    88    1
    71   106   104   ar
    72   130   129    1
    73   104   103    1
    74    35    34    1
    75   102   101    2
    76    98    97   ar
    77    93    92    1
    78    93    95   ar
    79    99   100    1
    80    43    44    2
    81    43    42    1
    82    34    33    1
    83    24    23    2
    84    27    26    1
    85    27    28    1
    86   129   135    1
    87    42    41    1
    88   103   100    1
    89    25    26    1
    90    25    22    1
    91    41    38    1
    92   101   100    1
    93    21    22    1
    94    97    95   ar
    95    23    22    1
    96    39    38    1
    97    39    40    2
    98    38    37    1
    99    33    30    1
   100    73    74    1
   101    29    30    1
   102    79    78    1
   103    30    31    1
   104    74    77    1
   105    74    75    1
   106    77    78    1
   107    78    80    1
   108   109   110    1
   109   128   127    2
   110    31    32    2
   111   113   110    1
   112    75    76    2
   113    87    85    1
   114   127   126    1
   115   110   111    1
   116   112   111    2
   117    86    85    1
   118   126   125    1
   119    85    82    1
   120   123   122    1
   121   124   122    1
   122    82    83    1
   123    82    81    1
   124   122   121    2
   125    83    84    2
   126   121   120    1
   127   117   116    2
   128   120   119    1
   129   116   115    1
   130   119   118    1
   131   115   118    1
   132   115   114    1
