@<TRIPOS>MOLECULE
tmp/5m0yB01.pdb
 94 88 0 0 0
SMALL
GASTEIGER

@<TRIPOS>ATOM
      1  N         -8.6330    0.9470   40.1220 N.3     9  LYS9       -0.1245
      2  CA        -7.7610    1.5860   41.1100 C.3     9  LYS9        0.1561
      3  C         -6.4410    0.8520   41.2180 C.2     9  LYS9        0.2260
      4  O         -6.3790   -0.3740   41.0820 O.2     9  LYS9       -0.2867
      5  CB        -8.4230    1.6910   42.4820 C.3     9  LYS9        0.0271
      6  CG        -8.8130    0.3710   43.1120 C.3     9  LYS9        0.0035
      7  CD        -8.5170    0.2770   44.6060 C.3     9  LYS9        0.0206
      8  CE        -8.0650   -1.1260   44.9860 C.3     9  LYS9        0.1093
      9  NZ        -6.6360   -1.3620   44.6270 N.3     9  LYS9       -0.1314
     10  N         -2.8870   -0.0630   43.3810 N.3    11  ASP11      -0.1239
     11  CA        -2.3850   -0.2540   44.7410 C.3    11  ASP11       0.1674
     12  C         -1.4760    0.9080   45.1830 C.2    11  ASP11       0.2266
     13  O         -1.5140    1.3020   46.3530 O.2    11  ASP11      -0.2867
     14  CB        -1.7170   -1.6280   44.9200 C.3    11  ASP11       0.1410
     15  CG        -0.5610   -1.8800   43.9580 C.2    11  ASP11       0.3668
     16  OD1       -0.3590   -1.1270   42.9780 O.co2  11  ASP11      -0.2456
     17  OD2        0.1490   -2.8730   44.1960 O.co2  11  ASP11      -0.2456
     18  N         -0.2750   -2.6470   40.4200 N.3    22  ILE22      -0.1245
     19  CA        -1.4260   -3.5100   40.1560 C.3    22  ILE22       0.1561
     20  C         -2.6750   -2.6520   40.0300 C.2    22  ILE22       0.2260
     21  O         -3.0470   -1.9590   40.9840 O.2    22  ILE22      -0.2867
     22  CB        -1.6280   -4.5560   41.2720 C.3    22  ILE22       0.0252
     23  CG1       -0.3520   -5.3950   41.4770 C.3    22  ILE22       0.0019
     24  CG2       -2.8340   -5.4500   40.9630 C.3    22  ILE22       0.0019
     25  CD1        0.0430   -6.2510   40.2940 C.3    22  ILE22       0.0001
     26  N         -6.6230   -2.8360   39.7010 N.3    24  THR24      -0.1218
     27  CA        -7.7330   -3.7470   39.9800 C.3    24  THR24       0.1862
     28  C         -9.0150   -3.1170   39.4570 C.2    24  THR24       0.2287
     29  O         -9.3400   -1.9770   39.8150 O.2    24  THR24      -0.2866
     30  CB        -7.8610   -4.0380   41.4900 C.3    24  THR24       0.1770
     31  OG1       -6.6770   -4.7040   41.9560 O.3    24  THR24      -0.2211
     32  CG2       -9.0540   -4.9360   41.7850 C.3    24  THR24       0.0375
     33  N         -0.3130  -10.3680   36.2930 N.3    52  PRO52      -0.2102
     34  CA         0.2140  -10.5140   37.6510 C.3    52  PRO52       0.1504
     35  C          0.1520  -11.9450   38.2030 C.2    52  PRO52       0.2575
     36  O          0.6800  -12.1940   39.2880 O.2    52  PRO52      -0.2718
     37  CB        -0.6730   -9.5730   38.4640 C.3    52  PRO52       0.0282
     38  CG        -1.9870   -9.6170   37.7620 C.3    52  PRO52       0.0208
     39  CD        -1.6780   -9.7990   36.2990 C.3    52  PRO52       0.0893
     40  N         -0.4880  -12.8630   37.4730 N.am   53  GLU53      -0.1980
     41  CA        -0.5910  -14.2670   37.8690 C.3    53  GLU53       0.1602
     42  C          0.4660  -15.1290   37.1720 C.2    53  GLU53       0.2287
     43  O          1.1950  -15.8760   37.8310 O.2    53  GLU53      -0.2864
     44  CB        -1.9980  -14.7720   37.5430 C.3    53  GLU53       0.0415
     45  CG        -2.4490  -15.9800   38.3370 C.3    53  GLU53       0.1163
     46  CD        -3.9420  -16.1910   38.2180 C.2    53  GLU53       0.3649
     47  OE1       -4.4100  -16.4670   37.0930 O.co2  53  GLU53      -0.2457
     48  OE2       -4.6470  -16.0610   39.2390 O.co2  53  GLU53      -0.2457
     49  N         -6.3190  -11.9180   34.8950 N.3    65  PRO65      -0.2102
     50  CA        -6.7270  -12.7840   35.9890 C.3    65  PRO65       0.1504
     51  C         -7.3460  -11.9940   37.1370 C.2    65  PRO65       0.2576
     52  O         -7.4420  -10.7660   37.0670 O.2    65  PRO65      -0.2718
     53  CB        -5.4000  -13.3950   36.4300 C.3    65  PRO65       0.0282
     54  CG        -4.4350  -12.2760   36.2380 C.3    65  PRO65       0.0208
     55  CD        -4.8740  -11.6160   34.9660 C.3    65  PRO65       0.0893
     56  N         -7.7500  -12.7090   38.1810 N.am   66  GLY66      -0.1943
     57  CA        -8.0440  -12.1080   39.4740 C.3    66  GLY66       0.2014
     58  C         -9.4910  -11.8750   39.8420 C.2    66  GLY66       0.2639
     59  O         -9.7560  -11.4070   40.9410 O.2    66  GLY66      -0.2714
     60  N        -10.4300  -12.2000   38.9590 N.am   67  ARG67      -0.1963
     61  CA       -11.8300  -11.9380   39.2740 C.3    67  ARG67       0.1729
     62  C        -12.3220  -12.7360   40.4750 C.2    67  ARG67       0.2616
     63  O        -11.8550  -13.8530   40.7300 O.2    67  ARG67      -0.2715
     64  CB       -12.7410  -12.1850   38.0810 C.3    67  ARG67       0.0348
     65  CG       -12.9450  -13.6340   37.6750 C.3    67  ARG67       0.0492
     66  CD       -13.7380  -13.6290   36.3840 C.3    67  ARG67       0.2205
     67  NE       -14.4420  -14.8670   36.0530 N.pl3  67  ARG67      -0.0865
     68  CZ       -13.9040  -15.9170   35.4290 C.cat  67  ARG67       0.5346
     69  NH1      -12.6120  -15.9310   35.1010 N.pl3  67  ARG67       0.1354
     70  NH2      -14.6660  -16.9780   35.1460 N.pl3  67  ARG67       0.1354
     71  N        -13.2510  -12.1360   41.2120 N.am   68  THR68      -0.1951
     72  CA       -13.9490  -12.8040   42.3140 C.3    68  THR68       0.1897
     73  C        -15.4370  -12.9950   42.0250 C.2    68  THR68       0.2313
     74  O        -16.1620  -13.4970   42.8740 O.2    68  THR68      -0.2863
     75  CB       -13.7930  -12.0110   43.6180 C.3    68  THR68       0.1794
     76  OG1      -14.3530  -10.7030   43.4650 O.3    68  THR68      -0.2208
     77  CG2      -12.3270  -11.8950   43.9850 C.3    68  THR68       0.0378
     78  N        -14.3110   -8.0970   42.1380 N.3   113  ILE113     -0.1245
     79  CA       -13.2290   -7.8290   41.2100 C.3   113  ILE113      0.1561
     80  C        -13.5330   -8.5350   39.9020 C.2   113  ILE113      0.2260
     81  O        -13.9400   -9.7060   39.9150 O.2   113  ILE113     -0.2867
     82  CB       -11.8850   -8.3310   41.7870 C.3   113  ILE113      0.0252
     83  CG1      -11.5750   -7.5820   43.0910 C.3   113  ILE113      0.0019
     84  CG2      -10.7520   -8.1940   40.7690 C.3   113  ILE113      0.0019
     85  CD1      -10.4370   -8.1650   43.8990 C.3   113  ILE113      0.0001
     86  N         -7.4990   -8.0260   37.3130 N.3   116  LYS116     -0.1245
     87  CA        -6.2870   -7.4240   37.8500 C.3   116  LYS116      0.1561
     88  C         -5.2610   -7.3710   36.7300 C.2   116  LYS116      0.2260
     89  O         -5.0600   -8.3590   36.0240 O.2   116  LYS116     -0.2867
     90  CB        -5.7470   -8.2230   39.0220 C.3   116  LYS116      0.0271
     91  CG        -6.6860   -8.2630   40.2120 C.3   116  LYS116      0.0035
     92  CD        -5.9410   -8.6370   41.4810 C.3   116  LYS116      0.0206
     93  CE        -6.5880   -9.7880   42.2100 C.3   116  LYS116      0.1093
     94  NZ        -5.6490  -10.2810   43.2550 N.3   116  LYS116     -0.1314
@<TRIPOS>BOND
     1    49    55    1
     2    49    50    1
     3    55    54    1
     4    69    68    1
     5    70    68    1
     6    68    67    2
     7    50    53    1
     8    50    51    1
     9    89    88    2
    10    67    66    1
    11    54    53    1
    12    33    39    1
    13    33    34    1
    14    39    38    1
    15    66    65    1
    16    88    87    1
    17    52    51    2
    18    47    46   ar
    19    51    56   am
    20    42    43    2
    21    42    41    1
    22    86    87    1
    23    40    41    1
    24    40    35   am
    25    44    41    1
    26    44    45    1
    27    34    35    1
    28    34    37    1
    29    65    64    1
    30    38    37    1
    31    87    90    1
    32    64    61    1
    33    56    57    1
    34    35    36    2
    35    46    45    1
    36    46    48   ar
    37    60    61    1
    38    60    58   am
    39    90    91    1
    40    61    62    1
    41    28    29    2
    42    28    27    1
    43    57    58    1
    44    26    27    1
    45    58    59    2
    46    80    81    2
    47    80    79    1
    48    27    30    1
    49    20    19    1
    50    20    21    2
    51     1     2    1
    52    19    18    1
    53    19    22    1
    54    91    92    1
    55    25    23    1
    56    62    63    2
    57    62    71   am
    58    84    82    1
    59    24    22    1
    60     4     3    2
    61     2     3    1
    62     2     5    1
    63    79    82    1
    64    79    78    1
    65    71    72    1
    66    22    23    1
    67    92    93    1
    68    30    32    1
    69    30    31    1
    70    82    83    1
    71    73    72    1
    72    73    74    2
    73    93    94    1
    74    72    75    1
    75     5     6    1
    76    16    15   ar
    77    83    85    1
    78     6     7    1
    79    10    11    1
    80    76    75    1
    81    75    77    1
    82    15    17   ar
    83    15    14    1
    84     7     8    1
    85     9     8    1
    86    11    14    1
    87    11    12    1
    88    12    13    2
