@<TRIPOS>MOLECULE
tmp/5m0zA01.pdb
 220 208 0 0 0
SMALL
GASTEIGER

@<TRIPOS>ATOM
      1  N         -6.3270  -33.1900  -10.5020 N.3    54  ASP54      -0.1239
      2  CA        -6.4100  -33.8490   -9.1880 C.3    54  ASP54       0.1674
      3  C         -5.3460  -33.4120   -8.2250 C.2    54  ASP54       0.2266
      4  O         -5.3600  -33.8050   -7.0300 O.2    54  ASP54      -0.2867
      5  CB        -6.5450  -35.3890   -9.2820 C.3    54  ASP54       0.1410
      6  CG        -5.4820  -36.0790  -10.1260 C.2    54  ASP54       0.3668
      7  OD1       -4.4860  -35.3980  -10.5670 O.co2  54  ASP54      -0.2456
      8  OD2       -5.7160  -37.3530  -10.4350 O.co2  54  ASP54      -0.2456
      9  N          1.7910  -38.1230  -20.6760 N.3   141  LEU141     -0.1245
     10  CA         0.3960  -38.5630  -20.7990 C.3   141  LEU141      0.1561
     11  C         -0.2430  -37.7850  -21.9280 C.2   141  LEU141      0.2260
     12  O         -1.2180  -37.0670  -21.7460 O.2   141  LEU141     -0.2867
     13  CB        -0.3730  -38.3890  -19.4890 C.3   141  LEU141      0.0270
     14  CG         0.0860  -39.2750  -18.3630 C.3   141  LEU141      0.0019
     15  CD1       -0.3500  -38.7370  -16.9920 C.3   141  LEU141      0.0001
     16  CD2       -0.4450  -40.6820  -18.6420 C.3   141  LEU141      0.0001
     17  N         -3.9770  -43.5850  -26.5070 N.3   145  ASN145     -0.1240
     18  CA        -4.0850  -45.0270  -26.7340 C.3   145  ASN145      0.1653
     19  C         -5.5500  -45.3480  -27.0800 C.2   145  ASN145      0.2266
     20  O         -6.4090  -45.1450  -26.2330 O.2   145  ASN145     -0.2867
     21  CB        -3.6840  -45.7750  -25.4770 C.3   145  ASN145      0.1155
     22  CG        -4.0490  -47.2440  -25.5510 C.2   145  ASN145      0.2627
     23  OD1       -3.6290  -47.9110  -26.5250 O.2   145  ASN145     -0.2716
     24  ND2       -4.7310  -47.7810  -24.5250 N.am  145  ASN145     -0.0877
     25  N         -7.4660  -48.5810  -28.2570 N.3   147  PRO147     -0.2116
     26  CA        -7.3810  -50.0560  -28.5080 C.3   147  PRO147      0.1372
     27  C         -8.0840  -50.5200  -29.7690 C.2   147  PRO147      0.2244
     28  O         -9.0850  -49.9660  -30.1920 O.2   147  PRO147     -0.2868
     29  CB        -8.1400  -50.6470  -27.3550 C.3   147  PRO147      0.0268
     30  CG        -7.9320  -49.6060  -26.2730 C.3   147  PRO147      0.0207
     31  CD        -7.9670  -48.2770  -26.9330 C.3   147  PRO147      0.0892
     32  N        -10.2990  -52.5750  -30.8200 N.3   149  ILE149     -0.1245
     33  CA       -11.4550  -53.4030  -30.4990 C.3   149  ILE149      0.1561
     34  C        -12.1500  -53.8020  -31.7950 C.2   149  ILE149      0.2260
     35  O        -12.2960  -52.9770  -32.7150 O.2   149  ILE149     -0.2867
     36  CB       -12.3800  -52.6190  -29.5690 C.3   149  ILE149      0.0252
     37  CG1      -11.6650  -52.2940  -28.2940 C.3   149  ILE149      0.0019
     38  CG2      -13.6450  -53.4300  -29.2920 C.3   149  ILE149      0.0019
     39  CD1      -12.4510  -51.4360  -27.2880 C.3   149  ILE149      0.0001
     40  N        -10.8170  -39.2510  -25.1730 N.3   162  THR162     -0.1218
     41  CA       -10.9700  -38.1210  -24.2990 C.3   162  THR162      0.1862
     42  C         -9.9470  -37.0500  -24.5760 C.2   162  THR162      0.2287
     43  O        -10.2280  -35.8560  -24.4360 O.2   162  THR162     -0.2866
     44  CB       -10.9310  -38.6500  -22.8260 C.3   162  THR162      0.1770
     45  OG1       -9.7520  -39.4450  -22.6470 O.3   162  THR162     -0.2211
     46  CG2      -12.1620  -39.4320  -22.5220 C.3   162  THR162      0.0375
     47  N        -15.6010  -46.2860  -22.3060 N.3   179  ILE179     -0.1231
     48  CA       -14.7090  -47.4200  -22.0460 C.3   179  ILE179      0.1692
     49  C        -13.5620  -46.8480  -21.2680 C.2   179  ILE179      0.2593
     50  O        -12.7830  -46.0030  -21.8060 O.2   179  ILE179     -0.2718
     51  CB       -14.1950  -48.0600  -23.3870 C.3   179  ILE179      0.0266
     52  CG1      -15.3730  -48.6380  -24.1900 C.3   179  ILE179      0.0019
     53  CG2      -13.2070  -49.1620  -23.0310 C.3   179  ILE179      0.0020
     54  CD1      -15.0710  -49.0500  -25.6180 C.3   179  ILE179      0.0001
     55  N        -13.4020  -47.2880  -20.0180 N.am  180  GLY180     -0.1942
     56  CA       -12.2970  -46.8820  -19.1800 C.3   180  GLY180      0.2014
     57  C        -12.6980  -46.2380  -17.9060 C.2   180  GLY180      0.2640
     58  O        -13.6150  -45.3760  -17.8990 O.2   180  GLY180     -0.2714
     59  N        -12.0530  -46.6550  -16.7900 N.am  181  THR181     -0.1936
     60  CA       -12.4000  -46.1050  -15.4700 C.3   181  THR181      0.2028
     61  C        -11.2130  -45.7210  -14.6430 C.2   181  THR181      0.2643
     62  O        -11.1920  -45.9170  -13.4320 O.2   181  THR181     -0.2714
     63  CB       -13.2960  -47.0750  -14.6780 C.3   181  THR181      0.1808
     64  OG1      -12.6000  -48.3420  -14.5000 O.3   181  THR181     -0.2208
     65  CG2      -14.6190  -47.2890  -15.4040 C.3   181  THR181      0.0379
     66  N        -10.1690  -45.2060  -15.2920 N.am  182  GLY182     -0.1939
     67  CA        -9.0610  -44.5380  -14.6080 C.3   182  GLY182      0.2014
     68  C         -9.4420  -43.1020  -14.2540 C.2   182  GLY182      0.2640
     69  O        -10.6530  -42.7780  -14.1870 O.2   182  GLY182     -0.2714
     70  N         -8.4790  -42.2110  -13.9680 N.am  183  SER183     -0.1935
     71  CA        -8.7950  -40.8540  -13.5930 C.3   183  SER183      0.2055
     72  C         -9.6560  -40.1260  -14.6190 C.2   183  SER183      0.2644
     73  O        -10.5470  -39.3630  -14.2770 O.2   183  SER183     -0.2714
     74  CB        -7.5730  -39.8910  -13.3160 C.3   183  SER183      0.2130
     75  OG        -6.8410  -40.3010  -12.1890 O.3   183  SER183     -0.2179
     76  N         -9.3770  -40.3660  -15.9080 N.am  184  THR184     -0.1936
     77  CA       -10.1340  -39.6810  -16.9720 C.3   184  THR184      0.2028
     78  C        -11.5490  -40.1950  -16.9590 C.2   184  THR184      0.2642
     79  O        -12.5410  -39.3940  -16.8870 O.2   184  THR184     -0.2714
     80  CB        -9.5110  -39.9900  -18.3270 C.3   184  THR184      0.1808
     81  OG1       -8.2260  -39.3660  -18.4100 O.3   184  THR184     -0.2208
     82  CG2      -10.4250  -39.3910  -19.4030 C.3   184  THR184      0.0379
     83  N        -11.7060  -41.5210  -17.0930 N.am  185  GLY185     -0.1954
     84  CA       -13.0440  -42.0750  -17.2710 C.3   185  GLY185      0.1869
     85  C        -13.9490  -41.7900  -16.0820 C.2   185  GLY185      0.2309
     86  O        -15.1270  -41.3970  -16.2640 O.2   185  GLY185     -0.2863
     87  N        -13.4080  -52.5900  -17.3680 N.3   204  ARG204     -0.1231
     88  CA       -12.6100  -53.8120  -17.2680 C.3   204  ARG204      0.1694
     89  C        -12.0130  -53.9790  -15.8780 C.2   204  ARG204      0.2592
     90  O        -11.9870  -55.0760  -15.4020 O.2   204  ARG204     -0.2718
     91  CB       -11.5040  -53.8120  -18.3250 C.3   204  ARG204      0.0321
     92  CG       -10.7480  -55.1660  -18.4540 C.3   204  ARG204      0.0489
     93  CD       -10.0170  -55.1470  -19.8300 C.3   204  ARG204      0.2205
     94  NE        -8.9400  -54.2330  -19.8330 N.pl3 204  ARG204     -0.0865
     95  CZ        -8.0260  -54.0770  -20.7960 C.cat 204  ARG204      0.5346
     96  NH1       -8.1110  -54.7780  -21.9080 N.pl3 204  ARG204      0.1354
     97  NH2       -7.0400  -53.2130  -20.6410 N.pl3 204  ARG204      0.1354
     98  N        -11.5900  -52.9010  -15.2130 N.am  205  THR205     -0.1953
     99  CA       -10.7910  -52.9800  -13.9560 C.3   205  THR205      0.1897
    100  C        -11.2280  -51.8530  -13.0460 C.2   205  THR205      0.2313
    101  O        -10.8660  -50.7270  -13.2540 O.2   205  THR205     -0.2863
    102  CB        -9.2990  -52.8270  -14.2630 C.3   205  THR205      0.1794
    103  OG1       -8.8970  -53.9350  -15.1240 O.3   205  THR205     -0.2208
    104  CG2       -8.4280  -52.8040  -13.0140 C.3   205  THR205      0.0378
    105  N        -11.1390  -49.2890   -9.9150 N.3   207  GLN207     -0.1245
    106  CA       -10.0700  -48.7160   -9.1570 C.3   207  GLN207      0.1566
    107  C        -10.5890  -48.2100   -7.8080 C.2   207  GLN207      0.2260
    108  O        -11.7720  -48.0730   -7.6250 O.2   207  GLN207     -0.2867
    109  CB        -9.4000  -47.6000   -9.9070 C.3   207  GLN207      0.0367
    110  CG        -8.8040  -48.0880  -11.2110 C.3   207  GLN207      0.0905
    111  CD        -7.6830  -47.2280  -11.7160 C.2   207  GLN207      0.2608
    112  OE1       -6.9950  -46.5630  -10.9540 O.2   207  GLN207     -0.2717
    113  NE2       -7.4400  -47.3050  -13.0020 N.am  207  GLN207     -0.0878
    114  N         -2.2640  -48.4950   -7.9850 N.3   323  LYS323     -0.1231
    115  CA        -2.3500  -47.6720   -9.1940 C.3   323  LYS323      0.1693
    116  C         -2.2110  -46.2070   -8.7460 C.2   323  LYS323      0.2591
    117  O         -2.2320  -45.9140   -7.5200 O.2   323  LYS323     -0.2718
    118  CB        -3.6530  -47.9240   -9.9500 C.3   323  LYS323      0.0285
    119  CG        -3.7660  -49.3340  -10.4990 C.3   323  LYS323      0.0035
    120  CD        -5.0940  -49.5850  -11.2440 C.3   323  LYS323      0.0206
    121  CE        -5.2300  -50.9580  -11.8930 C.3   323  LYS323      0.1093
    122  NZ        -5.3590  -52.0120  -10.8500 N.3   323  LYS323     -0.1314
    123  N         -2.0840  -45.2950   -9.7100 N.am  324  ARG324     -0.1980
    124  CA        -2.0230  -43.8980   -9.3250 C.3   324  ARG324      0.1597
    125  C         -3.3160  -43.5410   -8.6020 C.2   324  ARG324      0.2287
    126  O         -4.3910  -43.8770   -9.0890 O.2   324  ARG324     -0.2864
    127  CB        -1.8220  -42.9830  -10.5650 C.3   324  ARG324      0.0334
    128  CG        -1.5350  -41.5390  -10.1350 C.3   324  ARG324      0.0492
    129  CD        -1.1690  -40.6300  -11.3290 C.3   324  ARG324      0.2205
    130  NE        -1.0470  -39.1690  -11.0690 N.pl3 324  ARG324     -0.0865
    131  CZ        -2.1320  -38.4010  -10.8680 C.cat 324  ARG324      0.5346
    132  NH1       -1.9410  -37.0780  -10.6460 N.pl3 324  ARG324      0.1354
    133  NH2       -3.3580  -38.8990  -10.8670 N.pl3 324  ARG324      0.1354
    134  N         -6.6580  -42.0810   -7.3670 N.3   326  LEU326     -0.1245
    135  CA        -7.8250  -41.4560   -8.0470 C.3   326  LEU326      0.1561
    136  C         -8.6640  -40.7400   -7.0270 C.2   326  LEU326      0.2260
    137  O         -8.9380  -41.2690   -5.9390 O.2   326  LEU326     -0.2867
    138  CB        -8.8410  -42.5020   -8.6500 C.3   326  LEU326      0.0270
    139  CG        -8.5040  -43.3200   -9.8200 C.3   326  LEU326      0.0019
    140  CD1       -9.6860  -43.6230  -10.6640 C.3   326  LEU326      0.0001
    141  CD2       -7.4710  -42.6170  -10.6600 C.3   326  LEU326      0.0001
    142  N        -16.5800  -55.7530  -17.8650 N.3   345  LEU345     -0.1245
    143  CA       -16.0200  -56.4040  -19.0450 C.3   345  LEU345      0.1561
    144  C        -15.2680  -57.6580  -18.6820 C.2   345  LEU345      0.2260
    145  O        -15.0050  -58.4720  -19.5840 O.2   345  LEU345     -0.2867
    146  CB       -15.1210  -55.4750  -19.8320 C.3   345  LEU345      0.0270
    147  CG       -15.7710  -54.1950  -20.3150 C.3   345  LEU345      0.0019
    148  CD1      -14.6990  -53.3070  -21.0050 C.3   345  LEU345      0.0001
    149  CD2      -16.8250  -54.4960  -21.3470 C.3   345  LEU345      0.0001
    150  N        -16.5150  -56.9730  -24.3560 N.3   350  ILE350     -0.1245
    151  CA       -16.9320  -56.5170  -25.6710 C.3   350  ILE350      0.1561
    152  C        -16.6350  -57.6060  -26.6800 C.2   350  ILE350      0.2260
    153  O        -15.5140  -58.0620  -26.7220 O.2   350  ILE350     -0.2867
    154  CB       -16.2130  -55.2050  -26.0310 C.3   350  ILE350      0.0252
    155  CG1      -16.7190  -54.1030  -25.0780 C.3   350  ILE350      0.0019
    156  CG2      -16.5300  -54.8180  -27.4480 C.3   350  ILE350      0.0019
    157  CD1      -16.0140  -52.7220  -25.1560 C.3   350  ILE350      0.0001
    158  N        -11.9780  -43.5980  -22.9450 N.3   374  ALA374     -0.1231
    159  CA       -11.1750  -43.1030  -21.8410 C.3   374  ALA374      0.1694
    160  C        -10.0590  -44.1360  -21.5160 C.2   374  ALA374      0.2593
    161  O         -9.9170  -44.5760  -20.3540 O.2   374  ALA374     -0.2718
    162  CB       -12.0440  -42.8200  -20.6310 C.3   374  ALA374      0.0304
    163  N         -9.3380  -44.5590  -22.5740 N.am  375  THR375     -0.1939
    164  CA        -8.5050  -45.6790  -22.5660 C.3   375  THR375      0.2028
    165  C         -7.0200  -45.3390  -22.3490 C.2   375  THR375      0.2643
    166  O         -6.1510  -46.2210  -22.5240 O.2   375  THR375     -0.2714
    167  CB        -8.7130  -46.5250  -23.8470 C.3   375  THR375      0.1808
    168  OG1       -8.7480  -45.6980  -25.0180 O.3   375  THR375     -0.2208
    169  CG2       -9.9590  -47.3320  -23.7030 C.3   375  THR375      0.0379
    170  N         -6.7650  -44.0890  -21.9330 N.am  376  GLY376     -0.1939
    171  CA        -5.4180  -43.6630  -21.5360 C.3   376  GLY376      0.2014
    172  C         -4.4490  -43.4600  -22.6610 C.2   376  GLY376      0.2638
    173  O         -4.8500  -43.1500  -23.7900 O.2   376  GLY376     -0.2714
    174  N         -3.1630  -43.6240  -22.3330 N.am  377  PHE377     -0.1973
    175  CA        -2.0300  -43.1370  -23.1170 C.3   377  PHE377      0.1639
    176  C         -0.9090  -44.1830  -23.2790 C.2   377  PHE377      0.2290
    177  O         -0.6490  -45.0360  -22.3970 O.2   377  PHE377     -0.2864
    178  CB        -1.4460  -41.9090  -22.3790 C.3   377  PHE377      0.0560
    179  CG        -2.4620  -40.7850  -22.2550 C.ar  377  PHE377     -0.0200
    180  CD1       -2.5910  -39.8580  -23.2380 C.ar  377  PHE377     -0.0042
    181  CD2       -3.2950  -40.7240  -21.1660 C.ar  377  PHE377     -0.0042
    182  CE1       -3.5590  -38.8760  -23.1580 C.ar  377  PHE377     -0.0003
    183  CE2       -4.2440  -39.7620  -21.0630 C.ar  377  PHE377     -0.0003
    184  CZ        -4.4050  -38.8220  -22.0530 C.ar  377  PHE377     -0.0000
    185  N         -0.7450  -53.5300  -12.4140 N.3   485  ASP485     -0.1225
    186  CA        -1.1030  -53.3940  -13.7990 C.3   485  ASP485      0.1805
    187  C         -1.5760  -52.0700  -14.2680 C.2   485  ASP485      0.2598
    188  O         -2.7720  -51.8690  -14.4570 O.2   485  ASP485     -0.2718
    189  CB        -2.1530  -54.4710  -14.1530 C.3   485  ASP485      0.1424
    190  CG        -1.5750  -55.4900  -15.0490 C.2   485  ASP485      0.3668
    191  OD1       -1.3690  -55.1660  -16.2520 O.co2 485  ASP485     -0.2456
    192  OD2       -1.2520  -56.5770  -14.5210 O.co2 485  ASP485     -0.2456
    193  N         -0.7000  -51.1120  -14.4680 N.am  486  SER486     -0.1938
    194  CA        -1.2490  -49.8680  -15.1090 C.3   486  SER486      0.2055
    195  C         -0.2190  -49.3120  -16.0540 C.2   486  SER486      0.2643
    196  O          0.9630  -49.7860  -16.1440 O.2   486  SER486     -0.2714
    197  CB        -1.6030  -48.8320  -13.9940 C.3   486  SER486      0.2130
    198  OG        -2.6520  -47.8920  -14.3210 O.3   486  SER486     -0.2179
    199  N         -0.5880  -48.1860  -16.6170 N.am  487  TRP487     -0.1973
    200  CA         0.2440  -47.4900  -17.5190 C.3   487  TRP487      0.1640
    201  C          1.6690  -47.0890  -16.9630 C.2   487  TRP487      0.2290
    202  O          2.5770  -46.9060  -17.7400 O.2   487  TRP487     -0.2864
    203  CB        -0.4720  -46.2580  -18.0190 C.3   487  TRP487      0.0576
    204  CG        -0.7220  -45.1550  -16.9510 C.ar  487  TRP487      0.0006
    205  CD1       -1.8890  -44.9200  -16.2430 C.ar  487  TRP487      0.0946
    206  CD2        0.1930  -44.1330  -16.5330 C.ar  487  TRP487      0.0152
    207  NE1       -1.7350  -43.8620  -15.4140 N.ar  487  TRP487     -0.2442
    208  CE2       -0.4750  -43.3400  -15.5740 C.ar  487  TRP487      0.0810
    209  CE3        1.4940  -43.7760  -16.9150 C.ar  487  TRP487      0.0012
    210  CZ2        0.1210  -42.2210  -14.9860 C.ar  487  TRP487      0.0191
    211  CZ3        2.0990  -42.7100  -16.2810 C.ar  487  TRP487      0.0001
    212  CH2        1.3870  -41.9270  -15.3380 C.ar  487  TRP487      0.0015
    213  N         -0.2470  -51.3550  -19.8690 N.3   492  ASN492     -0.1240
    214  CA        -1.5490  -51.0840  -20.3970 C.3   492  ASN492      0.1653
    215  C         -1.7450  -51.2800  -21.8850 C.2   492  ASN492      0.2266
    216  O         -2.8880  -51.2500  -22.3760 O.2   492  ASN492     -0.2867
    217  CB        -1.9440  -49.6400  -20.0710 C.3   492  ASN492      0.1155
    218  CG        -0.9980  -48.6200  -20.7060 C.2   492  ASN492      0.2627
    219  OD1        0.2560  -48.7680  -20.7170 O.2   492  ASN492     -0.2716
    220  ND2       -1.5850  -47.5390  -21.1510 N.am  492  ASN492     -0.0877
@<TRIPOS>BOND
     1    35    34    2
     2    34    33    1
     3    32    33    1
     4    33    36    1
     5    28    27    2
     6    27    26    1
     7    36    38    1
     8    36    37    1
     9    26    25    1
    10    26    29    1
    11    37    39    1
    12    25    31    1
    13   156   154    1
    14    29    30    1
    15    19    18    1
    16    19    20    2
    17    31    30    1
    18    18    17    1
    19    18    21    1
    20   153   152    2
    21   152   151    1
    22    23    22    2
    23   154   151    1
    24   154   155    1
    25   151   150    1
    26    54    52    1
    27    22    21    1
    28    22    24   am
    29    40    41    1
    30   157   155    1
    31   168   167    1
    32    42    43    2
    33    42    41    1
    34    41    44    1
    35    52    51    1
    36   167   169    1
    37   167   164    1
    38   173   172    2
    39    51    53    1
    40    51    48    1
    41   176   175    1
    42   176   177    2
    43   180   182   ar
    44   180   179   ar
    45   182   184   ar
    46   175   178    1
    47   175   174    1
    48   158   159    1
    49    44    45    1
    50    44    46    1
    51   172   174   am
    52   172   171    1
    53   163   164    1
    54   163   160   am
    55   164   165    1
    56   166   165    2
    57   178   179    1
    58   216   215    2
    59   165   170   am
    60    47    48    1
    61   179   181   ar
    62   184   183   ar
    63    48    49    1
    64   170   171    1
    65    11    12    2
    66    11    10    1
    67    96    95    1
    68   215   214    1
    69   159   160    1
    70   159   162    1
    71    50    49    2
    72   160   161    2
    73   149   147    1
    74    49    55   am
    75   181   183   ar
    76   220   218   am
    77   148   147    1
    78    10     9    1
    79    10    13    1
    80    95    97    1
    81    95    94    2
    82   219   218    2
    83   218   217    1
    84   214   217    1
    85   214   213    1
    86   147   146    1
    87    55    56    1
    88    94    93    1
    89   146   143    1
    90    93    92    1
    91   145   144    2
    92    13    14    1
    93    82    80    1
    94    56    57    1
    95   143   144    1
    96   143   142    1
    97    16    14    1
    98    92    91    1
    99    81    80    1
   100    14    15    1
   101    80    77    1
   102    91    88    1
   103   203   200    1
   104   203   204    1
   105    57    58    2
   106    57    59   am
   107   202   201    2
   108   200   201    1
   109   200   199    1
   110    87    88    1
   111    84    83    1
   112    84    85    1
   113    88    89    1
   114    83    78   am
   115    77    78    1
   116    77    76    1
   117    78    79    2
   118   204   206   ar
   119   204   205   ar
   120   209   206   ar
   121   209   211   ar
   122    59    60    1
   123   199   195   am
   124   206   208   ar
   125   211   212   ar
   126    86    85    2
   127   191   190   ar
   128   205   207   ar
   129   196   195    2
   130   195   194    1
   131    76    72   am
   132    89    90    2
   133    89    98   am
   134   208   207   ar
   135   208   210   ar
   136    60    63    1
   137    60    61    1
   138    65    63    1
   139   212   210   ar
   140    66    61   am
   141    66    67    1
   142    98    99    1
   143   103   102    1
   144   194   193    1
   145   194   197    1
   146   190   192   ar
   147   190   189    1
   148    63    64    1
   149    61    62    2
   150    72    73    2
   151    72    71    1
   152    67    68    1
   153   193   187   am
   154   188   187    2
   155   198   197    1
   156   187   186    1
   157   102    99    1
   158   102   104    1
   159    68    69    2
   160    68    70   am
   161   189   186    1
   162    70    71    1
   163    99   100    1
   164   186   185    1
   165    71    74    1
   166    74    75    1
   167   101   100    2
   168   113   111   am
   169   121   120    1
   170   121   122    1
   171   111   110    1
   172   111   112    2
   173   129   130    1
   174   129   128    1
   175   120   119    1
   176   110   109    1
   177   130   131    2
   178   131   133    1
   179   131   132    1
   180   140   139    1
   181   141   139    1
   182     7     6   ar
   183   127   128    1
   184   127   124    1
   185     1     2    1
   186   119   118    1
   187     8     6   ar
   188     6     5    1
   189   118   115    1
   190   105   106    1
   191   109   106    1
   192   139   138    1
   193   123   124    1
   194   123   116   am
   195   124   125    1
   196     5     2    1
   197   115   116    1
   198   115   114    1
   199     2     3    1
   200   106   107    1
   201   126   125    2
   202   116   117    2
   203   138   135    1
   204     3     4    2
   205   135   134    1
   206   135   136    1
   207   107   108    2
   208   136   137    2
