@<TRIPOS>MOLECULE
tmp/5m10A02.pdb
 115 113 0 0 0
SMALL
GASTEIGER

@<TRIPOS>ATOM
      1  N         -4.2870  -31.9400   -8.6160 N.3    55  THR55      -0.1218
      2  CA        -3.4580  -31.1500   -7.7670 C.3    55  THR55       0.1862
      3  C         -4.3230  -29.9950   -7.3140 C.2    55  THR55       0.2287
      4  O         -4.8600  -29.2360   -8.1460 O.2    55  THR55      -0.2866
      5  CB        -2.2420  -30.6060   -8.5600 C.3    55  THR55       0.1770
      6  OG1       -1.4500  -31.6660   -9.0070 O.3    55  THR55      -0.2211
      7  CG2       -1.4640  -29.6450   -7.6370 C.3    55  THR55       0.0375
      8  N          4.3170  -36.6880  -20.7910 N.3   140  LEU140     -0.1231
      9  CA         4.1910  -38.0170  -20.2890 C.3   140  LEU140      0.1693
     10  C          2.8050  -38.6920  -20.5570 C.2   140  LEU140      0.2591
     11  O          2.7310  -39.9270  -20.5830 O.2   140  LEU140     -0.2718
     12  CB         4.3410  -38.0390  -18.7240 C.3   140  LEU140      0.0284
     13  CG         5.3740  -37.5060  -17.9950 C.3   140  LEU140      0.0019
     14  CD1        5.3830  -37.3620  -16.5700 C.3   140  LEU140      0.0001
     15  CD2        6.5690  -38.5990  -18.1590 C.3   140  LEU140      0.0001
     16  N          1.7980  -37.8290  -20.6440 N.am  141  LEU141     -0.1980
     17  CA         0.3900  -38.2510  -20.8050 C.3   141  LEU141      0.1596
     18  C         -0.2400  -37.4730  -21.9250 C.2   141  LEU141      0.2287
     19  O         -1.1530  -36.6860  -21.7710 O.2   141  LEU141     -0.2864
     20  CB        -0.3680  -38.1430  -19.5110 C.3   141  LEU141      0.0297
     21  CG         0.0860  -39.1300  -18.3970 C.3   141  LEU141      0.0022
     22  CD1       -0.3520  -38.5460  -17.0600 C.3   141  LEU141      0.0001
     23  CD2       -0.3870  -40.5250  -18.6420 C.3   141  LEU141      0.0001
     24  N          2.1650  -32.1300   -3.6010 N.3   243  PHE243     -0.1241
     25  CA         0.7940  -31.8090   -3.7120 C.3   243  PHE243      0.1605
     26  C          0.3180  -30.7110   -2.7160 C.2   243  PHE243      0.2264
     27  O         -0.8550  -30.3700   -2.7040 O.2   243  PHE243     -0.2867
     28  CB        -0.1080  -33.0690   -3.6500 C.3   243  PHE243      0.0534
     29  CG        -0.3060  -33.7400   -5.0230 C.ar  243  PHE243     -0.0203
     30  CD1        0.5960  -34.4990   -5.5220 C.ar  243  PHE243     -0.0042
     31  CD2       -1.5220  -33.6150   -5.6740 C.ar  243  PHE243     -0.0042
     32  CE1        0.4160  -35.0420   -6.8590 C.ar  243  PHE243     -0.0003
     33  CE2       -1.7740  -34.1310   -6.9540 C.ar  243  PHE243     -0.0003
     34  CZ        -0.7890  -34.8560   -7.4880 C.ar  243  PHE243     -0.0000
     35  N         -4.0790  -38.1690   -3.5330 N.3   274  PHE274     -0.1241
     36  CA        -2.7470  -38.1770   -3.0420 C.3   274  PHE274      0.1605
     37  C         -2.6880  -37.9430   -1.5010 C.2   274  PHE274      0.2264
     38  O         -1.8810  -38.5680   -0.8480 O.2   274  PHE274     -0.2867
     39  CB        -1.8530  -37.1630   -3.7500 C.3   274  PHE274      0.0534
     40  CG        -1.4430  -37.6560   -5.1520 C.ar  274  PHE274     -0.0203
     41  CD1       -2.2540  -37.5770   -6.2150 C.ar  274  PHE274     -0.0042
     42  CD2       -0.2360  -38.2680   -5.2820 C.ar  274  PHE274     -0.0042
     43  CE1       -1.8930  -38.0900   -7.4930 C.ar  274  PHE274     -0.0003
     44  CE2        0.1480  -38.7670   -6.5210 C.ar  274  PHE274     -0.0003
     45  CZ        -0.6630  -38.6340   -7.6020 C.ar  274  PHE274     -0.0000
     46  N         -2.1850  -44.8680   -9.7190 N.3   324  ARG324     -0.1245
     47  CA        -2.2100  -43.4170   -9.4620 C.3   324  ARG324      0.1563
     48  C         -3.5310  -43.1820   -8.7780 C.2   324  ARG324      0.2260
     49  O         -4.6180  -43.5660   -9.1960 O.2   324  ARG324     -0.2867
     50  CB        -2.1110  -42.6760  -10.8260 C.3   324  ARG324      0.0307
     51  CG        -1.9920  -41.1540  -10.7100 C.3   324  ARG324      0.0489
     52  CD        -3.2540  -40.4150  -10.4260 C.3   324  ARG324      0.2205
     53  NE        -3.1380  -38.9730  -10.6600 N.pl3 324  ARG324     -0.0865
     54  CZ        -4.0490  -38.0750  -10.4670 C.cat 324  ARG324      0.5346
     55  NH1       -3.8190  -36.8350  -10.8440 N.pl3 324  ARG324      0.1354
     56  NH2       -5.2410  -38.4090   -9.9720 N.pl3 324  ARG324      0.1354
     57  N          7.7300  -38.5380  -10.2070 N.3   429  PHE429     -0.1227
     58  CA         6.3570  -38.8070  -10.2500 C.3   429  PHE429      0.1736
     59  C          5.6820  -37.9640   -9.1260 C.2   429  PHE429      0.2596
     60  O          5.7110  -38.4340   -7.9390 O.2   429  PHE429     -0.2718
     61  CB         6.0510  -40.3160  -10.0860 C.3   429  PHE429      0.0547
     62  CG         4.6620  -40.7160  -10.3330 C.ar  429  PHE429     -0.0202
     63  CD1        3.7150  -40.4790   -9.4140 C.ar  429  PHE429     -0.0042
     64  CD2        4.2510  -41.3560  -11.4940 C.ar  429  PHE429     -0.0042
     65  CE1        2.3330  -40.7960   -9.6060 C.ar  429  PHE429     -0.0003
     66  CE2        2.9160  -41.6450  -11.7180 C.ar  429  PHE429     -0.0003
     67  CZ         1.9720  -41.3680  -10.7920 C.ar  429  PHE429     -0.0000
     68  N          5.2640  -36.7520   -9.3750 N.am  430  THR430     -0.1939
     69  CA         4.8720  -35.7600   -8.4280 C.3   430  THR430      0.2028
     70  C          3.7700  -34.9140   -9.0420 C.2   430  THR430      0.2642
     71  O          3.5390  -35.0100  -10.2550 O.2   430  THR430     -0.2714
     72  CB         6.0550  -34.8750   -8.0290 C.3   430  THR430      0.1808
     73  OG1        6.3840  -34.0430   -9.1300 O.3   430  THR430     -0.2208
     74  CG2        7.2880  -35.6350   -7.6120 C.3   430  THR430      0.0379
     75  N          3.2120  -33.9760   -8.3190 N.am  431  ASN431     -0.1957
     76  CA         2.5600  -32.8220   -8.8620 C.3   431  ASN431      0.1819
     77  C          3.5860  -32.2660   -9.8850 C.2   431  ASN431      0.2621
     78  O          4.7320  -31.9330   -9.5670 O.2   431  ASN431     -0.2715
     79  CB         2.2950  -31.7860   -7.7550 C.3   431  ASN431      0.1195
     80  CG         1.7990  -30.4790   -8.2710 C.2   431  ASN431      0.2630
     81  OD1        1.1540  -30.3960   -9.3300 O.2   431  ASN431     -0.2716
     82  ND2        2.0210  -29.4060   -7.5240 N.am  431  ASN431     -0.0877
     83  N          3.1380  -32.1700  -11.1560 N.am  432  LEU432     -0.1977
     84  CA         4.1820  -31.9760  -12.2470 C.3   432  LEU432      0.1596
     85  C          4.6910  -30.5670  -12.4180 C.2   432  LEU432      0.2287
     86  O          5.9300  -30.4680  -12.7030 O.2   432  LEU432     -0.2864
     87  CB         3.7360  -32.6360  -13.4970 C.3   432  LEU432      0.0297
     88  CG         3.7180  -34.1970  -13.3860 C.3   432  LEU432      0.0022
     89  CD1        3.0500  -34.8250  -14.6140 C.3   432  LEU432      0.0001
     90  CD2        5.1230  -34.8060  -13.1660 C.3   432  LEU432      0.0001
     91  N         -0.5810  -48.0230  -16.3850 N.3   487  TRP487     -0.1241
     92  CA         0.2620  -47.4490  -17.3640 C.3   487  TRP487      0.1605
     93  C          1.6800  -47.0630  -16.9090 C.2   487  TRP487      0.2264
     94  O          2.5840  -46.8030  -17.7180 O.2   487  TRP487     -0.2867
     95  CB        -0.4430  -46.2340  -17.9570 C.3   487  TRP487      0.0550
     96  CG        -0.6720  -45.0880  -16.9160 C.ar  487  TRP487      0.0003
     97  CD1       -1.8430  -44.8890  -16.1750 C.ar  487  TRP487      0.0946
     98  CD2        0.2560  -44.0850  -16.5330 C.ar  487  TRP487      0.0152
     99  NE1       -1.6430  -43.7800  -15.3830 N.ar  487  TRP487     -0.2442
    100  CE2       -0.4090  -43.2720  -15.5760 C.ar  487  TRP487      0.0810
    101  CE3        1.5220  -43.7180  -16.8870 C.ar  487  TRP487      0.0012
    102  CZ2        0.1590  -42.2010  -14.9640 C.ar  487  TRP487      0.0191
    103  CZ3        2.1260  -42.6230  -16.3050 C.ar  487  TRP487      0.0001
    104  CH2        1.4400  -41.8410  -15.3590 C.ar  487  TRP487      0.0015
    105  N          9.7620  -44.2620  -14.2560 N.3   502  PHE502     -0.1241
    106  CA         9.8850  -43.0770  -13.3590 C.3   502  PHE502      0.1605
    107  C         10.9570  -43.3140  -12.2500 C.2   502  PHE502      0.2264
    108  O         11.1690  -44.4990  -11.9040 O.2   502  PHE502     -0.2867
    109  CB         8.5650  -42.8110  -12.5890 C.3   502  PHE502      0.0534
    110  CG         7.4780  -42.3160  -13.4660 C.ar  502  PHE502     -0.0203
    111  CD1        7.3330  -40.9700  -13.6220 C.ar  502  PHE502     -0.0042
    112  CD2        6.5410  -43.2080  -14.0790 C.ar  502  PHE502     -0.0042
    113  CE1        6.3150  -40.4430  -14.4430 C.ar  502  PHE502     -0.0003
    114  CE2        5.5440  -42.6750  -14.9120 C.ar  502  PHE502     -0.0003
    115  CZ         5.4370  -41.2940  -15.0570 C.ar  502  PHE502     -0.0000
@<TRIPOS>BOND
     1    18    19    2
     2    18    17    1
     3    17    16    1
     4    17    20    1
     5     8     9    1
     6    16    10   am
     7    11    10    2
     8    10     9    1
     9     9    12    1
    10    20    21    1
    11    12    13    1
    12    23    21    1
    13    21    22    1
    14    15    13    1
    15    13    14    1
    16    95    92    1
    17    95    96    1
    18    94    93    2
    19    92    93    1
    20    92    91    1
    21    96    98   ar
    22    96    97   ar
    23   101    98   ar
    24   101   103   ar
    25    98   100   ar
    26   103   104   ar
    27    97    99   ar
    28   100    99   ar
    29   100   102   ar
    30   104   102   ar
    31   115   114   ar
    32   115   113   ar
    33   114   112   ar
    34    89    88    1
    35   113   111   ar
    36   105   106    1
    37   112   110   ar
    38   111   110   ar
    39    87    88    1
    40    87    84    1
    41   110   109    1
    42    88    90    1
    43   106   109    1
    44   106   107    1
    45    86    85    2
    46    85    84    1
    47   107   108    2
    48    84    83    1
    49    66    64   ar
    50    66    67   ar
    51    64    62   ar
    52    83    77   am
    53    55    54    1
    54    50    51    1
    55    50    47    1
    56    67    65   ar
    57    51    52    1
    58    53    54    2
    59    53    52    1
    60    54    56    1
    61    62    61    1
    62    62    63   ar
    63    71    70    2
    64    58    57    1
    65    58    61    1
    66    58    59    1
    67    77    78    2
    68    77    76    1
    69    46    47    1
    70    65    63   ar
    71    47    48    1
    72    68    59   am
    73    68    69    1
    74    81    80    2
    75    49    48    2
    76    73    72    1
    77    59    60    2
    78    70    69    1
    79    70    75   am
    80     6     5    1
    81    76    75    1
    82    76    79    1
    83     1     2    1
    84     5     2    1
    85     5     7    1
    86    69    72    1
    87    80    79    1
    88    80    82   am
    89     4     3    2
    90    72    74    1
    91     2     3    1
    92    45    43   ar
    93    45    44   ar
    94    43    41   ar
    95    34    33   ar
    96    34    32   ar
    97    33    31   ar
    98    32    30   ar
    99    44    42   ar
   100    41    40   ar
   101    31    29   ar
   102    30    29   ar
   103    42    40   ar
   104    40    39    1
   105    29    28    1
   106    39    36    1
   107    25    28    1
   108    25    24    1
   109    25    26    1
   110    35    36    1
   111    36    37    1
   112    26    27    2
   113    37    38    2
