@<TRIPOS>MOLECULE
tmp/5m11A01.pdb
 79 73 0 0 0
SMALL
GASTEIGER

@<TRIPOS>ATOM
      1  N         42.1230   61.3520   73.6160 N.3    10  HIS10      -0.1226
      2  CA        41.8630   61.3230   75.0600 C.3    10  HIS10       0.1752
      3  C         40.3670   60.8290   75.4000 C.2    10  HIS10       0.2595
      4  O         40.0340   59.6700   75.1060 O.2    10  HIS10      -0.2718
      5  CB        42.2480   62.7250   75.6580 C.3    10  HIS10       0.0759
      6  CG        42.0330   62.9630   77.1290 C.ar   10  HIS10       0.0818
      7  ND1       41.8870   61.9220   78.0330 N.ar   10  HIS10      -0.2268
      8  CD2       41.9350   64.1370   77.7970 C.ar   10  HIS10       0.1154
      9  CE1       41.6870   62.4960   79.2060 C.ar   10  HIS10       0.1986
     10  NE2       41.7100   63.8260   79.1130 N.ar   10  HIS10      -0.2212
     11  N         39.5160   61.6920   76.0180 N.am   11  LYS11      -0.1980
     12  CA        38.1850   61.4100   76.5800 C.3    11  LYS11       0.1596
     13  C         37.1070   61.0270   75.5480 C.2    11  LYS11       0.2287
     14  O         36.3840   61.9070   75.0850 O.2    11  LYS11      -0.2864
     15  CB        37.7220   62.6350   77.3950 C.3    11  LYS11       0.0298
     16  CG        36.6020   62.3860   78.3970 C.3    11  LYS11       0.0038
     17  CD        36.1470   63.7160   78.9690 C.3    11  LYS11       0.0206
     18  CE        34.8350   63.6460   79.7010 C.3    11  LYS11       0.1093
     19  NZ        34.2170   64.9950   79.8160 N.3    11  LYS11      -0.1314
     20  N         36.4360   64.4830   72.7480 N.3    27  ASN27      -0.1240
     21  CA        36.6160   65.9270   72.9910 C.3    27  ASN27       0.1653
     22  C         36.1740   66.7970   71.8140 C.2    27  ASN27       0.2266
     23  O         36.3720   68.0160   71.8390 O.2    27  ASN27      -0.2867
     24  CB        38.0680   66.2760   73.4030 C.3    27  ASN27       0.1155
     25  CG        38.4480   65.7280   74.7630 C.2    27  ASN27       0.2627
     26  OD1       37.7890   66.0070   75.7790 O.2    27  ASN27      -0.2716
     27  ND2       39.4940   64.9010   74.8070 N.am   27  ASN27      -0.0877
     28  N         37.6550   58.9800   79.8630 N.3   277  GLU277     -0.1245
     29  CA        39.0600   59.1520   80.2240 C.3   277  GLU277      0.1567
     30  C         39.8800   57.8570   79.9940 C.2   277  GLU277      0.2260
     31  O         41.1090   57.9260   79.8800 O.2   277  GLU277     -0.2867
     32  CB        39.1910   59.6730   81.6650 C.3   277  GLU277      0.0388
     33  CG        39.8310   61.0590   81.7720 C.3   277  GLU277      0.1160
     34  CD        38.9360   62.2830   81.6390 C.2   277  GLU277      0.3649
     35  OE1       37.8950   62.3470   82.3340 O.co2 277  GLU277     -0.2457
     36  OE2       39.3200   63.2160   80.8970 O.co2 277  GLU277     -0.2457
     37  N         48.0430   65.8460   74.9160 N.3   302  GLY302     -0.1225
     38  CA        47.2730   65.4590   76.0980 C.3   302  GLY302      0.1811
     39  C         45.8820   66.0680   76.1160 C.2   302  GLY302      0.2280
     40  O         44.9250   65.4210   76.5440 O.2   302  GLY302     -0.2866
     41  N         43.5290   71.3990   85.3810 N.3   331  ALA331     -0.1245
     42  CA        44.5050   70.3180   85.5250 C.3   331  ALA331      0.1562
     43  C         45.8170   70.6220   84.7670 C.2   331  ALA331      0.2260
     44  O         45.7850   71.0120   83.5950 O.2   331  ALA331     -0.2867
     45  CB        43.9040   69.0140   85.0350 C.3   331  ALA331      0.0290
     46  N         49.2000   70.3400   82.7390 N.3   333  MET333     -0.1245
     47  CA        49.5340   69.5720   81.5460 C.3   333  MET333      0.1570
     48  C         50.6870   70.2320   80.7770 C.2   333  MET333      0.2261
     49  O         50.6340   71.4170   80.4170 O.2   333  MET333     -0.2867
     50  CB        48.2830   69.3940   80.6540 C.3   333  MET333      0.0387
     51  CG        48.5230   68.7100   79.3260 C.3   333  MET333      0.0595
     52  SD        48.7220   66.9140   79.3870 S.3   333  MET333     -0.1393
     53  CE        47.0320   66.3850   79.7740 C.3   333  MET333      0.0692
     54  N         50.8510   65.0970   82.7390 N.3   346  ASP346     -0.1225
     55  CA        49.5680   65.5460   83.2750 C.3   346  ASP346      0.1805
     56  C         49.6090   65.6380   84.8040 C.2   346  ASP346      0.2598
     57  O         50.6270   65.2990   85.4270 O.2   346  ASP346     -0.2718
     58  CB        48.4100   64.6370   82.8060 C.3   346  ASP346      0.1424
     59  CG        48.6430   63.1410   82.9470 C.2   346  ASP346      0.3668
     60  OD1       47.9120   62.4940   83.7420 O.co2 346  ASP346     -0.2456
     61  OD2       49.5130   62.6050   82.2190 O.co2 346  ASP346     -0.2456
     62  N         48.4930   66.1240   85.3930 N.am  347  LYS347     -0.1966
     63  CA        48.2640   66.3410   86.8260 C.3   347  LYS347      0.1728
     64  C         48.6610   65.1170   87.6640 C.2   347  LYS347      0.2616
     65  O         49.4470   65.2680   88.5850 O.2   347  LYS347     -0.2715
     66  CB        46.7830   66.7190   87.0610 C.3   347  LYS347      0.0311
     67  CG        46.4130   67.1440   88.4780 C.3   347  LYS347      0.0038
     68  CD        44.9580   67.5990   88.5700 C.3   347  LYS347      0.0206
     69  CE        44.3570   67.4190   89.9460 C.3   347  LYS347      0.1093
     70  NZ        44.7110   68.5250   90.8700 N.3   347  LYS347     -0.1314
     71  N         48.1720   63.9160   87.3100 N.am  348  LYS348     -0.1977
     72  CA        48.4130   62.6660   88.0460 C.3   348  LYS348      0.1596
     73  C         49.8730   62.1920   87.9540 C.2   348  LYS348      0.2287
     74  O         50.4700   61.9280   88.9940 O.2   348  LYS348     -0.2864
     75  CB        47.4500   61.5590   87.5850 C.3   348  LYS348      0.0298
     76  CG        45.9570   61.9250   87.7180 C.3   348  LYS348      0.0038
     77  CD        45.3610   61.6080   89.1010 C.3   348  LYS348      0.0206
     78  CE        43.9490   62.1250   89.2680 C.3   348  LYS348      0.1093
     79  NZ        42.9450   61.2590   88.5930 N.3   348  LYS348     -0.1314
@<TRIPOS>BOND
     1    22    23    2
     2    22    21    1
     3    20    21    1
     4    21    24    1
     5    24    25    1
     6     1     2    1
     7    25    27   am
     8    25    26    2
     9    37    38    1
    10     2     3    1
    11     2     5    1
    12    14    13    2
    13     4     3    2
    14     3    11   am
    15    13    12    1
    16     5     6    1
    17    11    12    1
    18    38    39    1
    19    39    40    2
    20    12    15    1
    21     6     8   ar
    22     6     7   ar
    23    15    16    1
    24     8    10   ar
    25     7     9   ar
    26    16    17    1
    27    17    18    1
    28    10     9   ar
    29    51    52    1
    30    51    50    1
    31    52    53    1
    32    18    19    1
    33    28    29    1
    34    31    30    2
    35    30    29    1
    36    29    32    1
    37    49    48    2
    38    50    47    1
    39    48    47    1
    40    36    34   ar
    41    47    46    1
    42    34    33    1
    43    34    35   ar
    44    32    33    1
    45    61    59   ar
    46    54    55    1
    47    58    59    1
    48    58    55    1
    49    59    60   ar
    50    55    56    1
    51    44    43    2
    52    43    42    1
    53    56    62   am
    54    56    57    2
    55    45    42    1
    56    41    42    1
    57    62    63    1
    58    63    66    1
    59    63    64    1
    60    66    67    1
    61    71    64   am
    62    71    72    1
    63    75    76    1
    64    75    72    1
    65    64    65    2
    66    76    77    1
    67    73    72    1
    68    73    74    2
    69    67    68    1
    70    68    69    1
    71    79    78    1
    72    77    78    1
    73    69    70    1
