@<TRIPOS>MOLECULE
tmp/5m12A00.pdb
 177 176 0 0 0
SMALL
GASTEIGER

@<TRIPOS>ATOM
      1  N          5.6890   -4.4250  -20.2450 N.3    74  TRP74      -0.1241
      2  CA         5.6790   -5.1410  -21.5300 C.3    74  TRP74       0.1605
      3  C          4.8570   -4.4590  -22.6390 C.2    74  TRP74       0.2264
      4  O          4.9860   -4.8030  -23.8230 O.2    74  TRP74      -0.2867
      5  CB         5.1610   -6.5540  -21.3630 C.3    74  TRP74       0.0550
      6  CG         5.9180   -7.3900  -20.3090 C.ar   74  TRP74       0.0003
      7  CD1        7.2500   -7.3860  -20.0530 C.ar   74  TRP74       0.0946
      8  CD2        5.3210   -8.2370  -19.3180 C.ar   74  TRP74       0.0152
      9  NE1        7.5480   -8.2260  -18.9830 N.ar   74  TRP74      -0.2442
     10  CE2        6.3640   -8.7510  -18.5150 C.ar   74  TRP74       0.0810
     11  CE3        4.0030   -8.5760  -19.0190 C.ar   74  TRP74       0.0012
     12  CZ2        6.1360   -9.6720  -17.4810 C.ar   74  TRP74       0.0191
     13  CZ3        3.7730   -9.5040  -17.9770 C.ar   74  TRP74       0.0001
     14  CH2        4.8470  -10.0420  -17.2380 C.ar   74  TRP74       0.0015
     15  N         -4.8240  -12.6310  -20.1940 N.3    94  TRP94      -0.1241
     16  CA        -3.8600  -11.5440  -19.9620 C.3    94  TRP94       0.1605
     17  C         -4.4920  -10.1680  -20.0400 C.2    94  TRP94       0.2264
     18  O         -3.8180   -9.1760  -20.3500 O.2    94  TRP94      -0.2867
     19  CB        -2.7670  -11.6190  -20.9820 C.3    94  TRP94       0.0550
     20  CG        -1.9720  -12.7790  -20.9580 C.ar   94  TRP94       0.0003
     21  CD1       -2.0430  -13.8210  -21.8180 C.ar   94  TRP94       0.0946
     22  CD2       -0.8600  -13.0390  -20.1000 C.ar   94  TRP94       0.0152
     23  NE1       -1.0370  -14.7000  -21.5810 N.ar   94  TRP94      -0.2442
     24  CE2       -0.2700  -14.2470  -20.5500 C.ar   94  TRP94       0.0810
     25  CE3       -0.2930  -12.3700  -19.0180 C.ar   94  TRP94       0.0012
     26  CZ2        0.7990  -14.8340  -19.9160 C.ar   94  TRP94       0.0191
     27  CZ3        0.8140  -12.9240  -18.4180 C.ar   94  TRP94       0.0001
     28  CH2        1.3340  -14.1650  -18.8580 C.ar   94  TRP94       0.0015
     29  N         -2.7640   -7.0110  -18.2510 N.3    97  THR97      -0.1218
     30  CA        -1.5880   -6.3990  -18.9080 C.3    97  THR97       0.1862
     31  C         -1.9540   -5.3880  -19.9850 C.2    97  THR97       0.2287
     32  O         -1.2500   -4.3630  -20.2090 O.2    97  THR97      -0.2866
     33  CB        -0.6540   -7.4830  -19.5410 C.3    97  THR97       0.1770
     34  OG1       -1.2480   -8.0850  -20.7140 O.3    97  THR97      -0.2211
     35  CG2       -0.2990   -8.5320  -18.5720 C.3    97  THR97       0.0375
     36  N         17.5630  -16.6070  -18.2330 N.3   199  TRP199     -0.1227
     37  CA        16.3100  -16.8740  -18.8550 C.3   199  TRP199      0.1737
     38  C         16.3550  -17.1060  -20.3790 C.2   199  TRP199      0.2595
     39  O         15.7980  -18.0470  -20.8890 O.2   199  TRP199     -0.2718
     40  CB        15.3000  -15.7660  -18.5220 C.3   199  TRP199      0.0564
     41  CG        14.0050  -16.0250  -19.2050 C.ar  199  TRP199      0.0003
     42  CD1       13.5190  -15.3560  -20.2890 C.ar  199  TRP199      0.0946
     43  CD2       13.0140  -17.0100  -18.8650 C.ar  199  TRP199      0.0152
     44  NE1       12.3100  -15.8680  -20.6550 N.ar  199  TRP199     -0.2442
     45  CE2       11.9820  -16.9030  -19.8090 C.ar  199  TRP199      0.0810
     46  CE3       12.9410  -18.0370  -17.8890 C.ar  199  TRP199      0.0012
     47  CZ2       10.8320  -17.7250  -19.7980 C.ar  199  TRP199      0.0191
     48  CZ3       11.7840  -18.8970  -17.8940 C.ar  199  TRP199      0.0001
     49  CH2       10.7630  -18.7410  -18.8580 C.ar  199  TRP199      0.0015
     50  N         16.9920  -16.2110  -21.0970 N.am  200  TYR200     -0.1976
     51  CA        16.9240  -16.1640  -22.5400 C.3   200  TYR200      0.1639
     52  C         17.8700  -17.1280  -23.2500 C.2   200  TYR200      0.2290
     53  O         18.0140  -17.0590  -24.4710 O.2   200  TYR200     -0.2864
     54  CB        17.1370  -14.7220  -23.0260 C.3   200  TYR200      0.0560
     55  CG        16.0750  -13.7850  -22.5390 C.ar  200  TYR200     -0.0198
     56  CD1       14.8870  -13.6150  -23.2350 C.ar  200  TYR200     -0.0009
     57  CD2       16.2450  -13.0630  -21.3850 C.ar  200  TYR200     -0.0009
     58  CE1       13.9010  -12.7730  -22.7530 C.ar  200  TYR200      0.0417
     59  CE2       15.2320  -12.2110  -20.8780 C.ar  200  TYR200      0.0417
     60  CZ        14.0900  -12.0680  -21.5830 C.ar  200  TYR200      0.1957
     61  OH        13.0340  -11.2840  -21.0670 O.3   200  TYR200     -0.2866
     62  N         16.9640  -17.0380  -12.9150 N.3   229  ASP229     -0.1225
     63  CA        15.5800  -16.6460  -13.3090 C.3   229  ASP229      0.1805
     64  C         14.6160  -17.7710  -13.0290 C.2   229  ASP229      0.2597
     65  O         14.9900  -18.7400  -12.3580 O.2   229  ASP229     -0.2718
     66  CB        15.5860  -16.2070  -14.7610 C.3   229  ASP229      0.1424
     67  CG        14.5990  -15.0280  -15.0500 C.2   229  ASP229      0.3668
     68  OD1       13.3900  -15.3390  -15.3060 O.co2 229  ASP229     -0.2456
     69  OD2       15.0410  -13.8430  -14.9670 O.co2 229  ASP229     -0.2456
     70  N         13.3850  -17.6660  -13.5090 N.am  230  ASP230     -0.1974
     71  CA        12.3210  -18.6790  -13.3900 C.3   230  ASP230      0.1709
     72  C         12.8440  -20.0530  -13.8720 C.2   230  ASP230      0.2293
     73  O         13.3700  -20.1560  -14.9860 O.2   230  ASP230     -0.2864
     74  CB        11.1350  -18.1700  -14.2120 C.3   230  ASP230      0.1436
     75  CG         9.8910  -19.0280  -14.1510 C.2   230  ASP230      0.3671
     76  OD1        9.8170  -19.9740  -13.3230 O.co2 230  ASP230     -0.2456
     77  OD2        8.9530  -18.8080  -14.9740 O.co2 230  ASP230     -0.2456
     78  N         15.0940  -14.2640   -9.2760 N.3   266  TRP266     -0.1241
     79  CA        13.7690  -13.9730   -9.8060 C.3   266  TRP266      0.1605
     80  C         12.6900  -14.4870   -8.8760 C.2   266  TRP266      0.2264
     81  O         12.7010  -15.6610   -8.4550 O.2   266  TRP266     -0.2867
     82  CB        13.6320  -14.6330  -11.1830 C.3   266  TRP266      0.0550
     83  CG        12.2950  -14.4130  -11.9040 C.ar  266  TRP266      0.0003
     84  CD1       12.0410  -13.4720  -12.8870 C.ar  266  TRP266      0.0946
     85  CD2       11.1380  -15.2150  -11.8400 C.ar  266  TRP266      0.0152
     86  NE1       10.7570  -13.5800  -13.3360 N.ar  266  TRP266     -0.2442
     87  CE2       10.1710  -14.6380  -12.7220 C.ar  266  TRP266      0.0810
     88  CE3       10.7760  -16.3420  -11.1040 C.ar  266  TRP266      0.0012
     89  CZ2        8.9200  -15.1560  -12.8830 C.ar  266  TRP266      0.0191
     90  CZ3        9.4690  -16.8410  -11.2700 C.ar  266  TRP266      0.0001
     91  CH2        8.6050  -16.2890  -12.1640 C.ar  266  TRP266      0.0015
     92  N         -0.7460  -18.4120  -16.7380 N.3   299  ASN299     -0.1225
     93  CA         0.6150  -18.6240  -17.2210 C.3   299  ASN299      0.1785
     94  C          1.0970  -19.9140  -16.6410 C.2   299  ASN299      0.2597
     95  O          0.5050  -20.3860  -15.6750 O.2   299  ASN299     -0.2718
     96  CB         1.5030  -17.4010  -16.8850 C.3   299  ASN299      0.1169
     97  CG         2.8770  -17.4540  -17.5080 C.2   299  ASN299      0.2627
     98  OD1        3.0590  -17.9340  -18.6170 O.2   299  ASN299     -0.2716
     99  ND2        3.8370  -16.8280  -16.8740 N.am  299  ASN299     -0.0877
    100  N          2.1530  -20.4840  -17.2200 N.am  300  TRP300     -0.1976
    101  CA         2.6900  -21.8020  -16.8290 C.3   300  TRP300      0.1640
    102  C          1.6130  -22.9260  -16.8600 C.2   300  TRP300      0.2290
    103  O          1.7030  -23.8610  -16.0780 O.2   300  TRP300     -0.2864
    104  CB         3.3440  -21.7570  -15.4660 C.3   300  TRP300      0.0576
    105  CG         4.4030  -20.6680  -15.2590 C.ar  300  TRP300      0.0006
    106  CD1        5.7110  -20.7370  -15.5720 C.ar  300  TRP300      0.0946
    107  CD2        4.2200  -19.4020  -14.5790 C.ar  300  TRP300      0.0152
    108  NE1        6.3660  -19.5850  -15.1810 N.ar  300  TRP300     -0.2442
    109  CE2        5.4630  -18.7320  -14.6170 C.ar  300  TRP300      0.0810
    110  CE3        3.1210  -18.7300  -14.0780 C.ar  300  TRP300      0.0012
    111  CZ2        5.6330  -17.4620  -14.1100 C.ar  300  TRP300      0.0191
    112  CZ3        3.3120  -17.4550  -13.5130 C.ar  300  TRP300      0.0001
    113  CH2        4.5490  -16.8550  -13.5440 C.ar  300  TRP300      0.0015
    114  N         14.9930   -9.6000   -9.0440 N.3   334  LYS334     -0.1245
    115  CA        14.1410   -9.3340  -10.2060 C.3   334  LYS334      0.1561
    116  C         12.7000   -9.7320   -9.7820 C.2   334  LYS334      0.2260
    117  O         12.4660  -10.8950   -9.4180 O.2   334  LYS334     -0.2867
    118  CB        14.6360  -10.0490  -11.4630 C.3   334  LYS334      0.0271
    119  CG        13.7770   -9.8480  -12.7400 C.3   334  LYS334      0.0035
    120  CD        14.3910  -10.5880  -13.9550 C.3   334  LYS334      0.0206
    121  CE        13.3980  -10.6860  -15.1200 C.3   334  LYS334      0.1093
    122  NZ        13.9310  -11.5020  -16.2120 N.3   334  LYS334     -0.1314
    123  N          8.8010   -9.8680  -10.6860 N.3   336  ASP336     -0.1225
    124  CA         8.1430   -9.9450  -11.9900 C.3   336  ASP336      0.1805
    125  C          6.6310  -10.1040  -11.7860 C.2   336  ASP336      0.2597
    126  O          6.1260  -10.4000  -10.6760 O.2   336  ASP336     -0.2718
    127  CB         8.8050  -11.0960  -12.7830 C.3   336  ASP336      0.1424
    128  CG         8.5980  -11.0170  -14.3050 C.2   336  ASP336      0.3668
    129  OD1        7.8560  -10.1120  -14.8320 O.co2 336  ASP336     -0.2456
    130  OD2        9.1700  -11.8990  -14.9730 O.co2 336  ASP336     -0.2456
    131  N          5.8910   -9.8750  -12.8860 N.am  337  PHE337     -0.1976
    132  CA         4.4400   -9.9720  -12.8940 C.3   337  PHE337      0.1639
    133  C          3.7920   -9.1090  -11.8210 C.2   337  PHE337      0.2290
    134  O          2.7640   -9.4460  -11.2380 O.2   337  PHE337     -0.2864
    135  CB         3.9910  -11.4470  -12.7960 C.3   337  PHE337      0.0560
    136  CG         4.3960  -12.2610  -13.9900 C.ar  337  PHE337     -0.0200
    137  CD1        5.5920  -12.8970  -13.9950 C.ar  337  PHE337     -0.0042
    138  CD2        3.4980  -12.5320  -14.9830 C.ar  337  PHE337     -0.0042
    139  CE1        6.0000  -13.6790  -15.0780 C.ar  337  PHE337     -0.0003
    140  CE2        3.8730  -13.3430  -16.0420 C.ar  337  PHE337     -0.0003
    141  CZ         5.1720  -13.8080  -16.1350 C.ar  337  PHE337     -0.0000
    142  N          9.6000   -5.7820  -13.0120 N.3   377  CYS377     -0.1235
    143  CA         9.3000   -6.3840  -14.3080 C.3   377  CYS377      0.1677
    144  C          7.8260   -6.6830  -14.3700 C.2   377  CYS377      0.2270
    145  O          7.1950   -6.9720  -13.3240 O.2   377  CYS377     -0.2867
    146  CB        10.1840   -7.6150  -14.5690 C.3   377  CYS377      0.0956
    147  SG        10.1280   -8.3340  -16.2450 S.3   377  CYS377     -0.0801
    148  N         12.2500   -2.9770  -16.0140 N.3   392  ARG392     -0.1245
    149  CA        12.0440   -3.4120  -17.4000 C.3   392  ARG392      0.1563
    150  C         11.0030   -2.5470  -18.0900 C.2   392  ARG392      0.2260
    151  O          9.8920   -2.3620  -17.5600 O.2   392  ARG392     -0.2867
    152  CB        11.6010   -4.8590  -17.4390 C.3   392  ARG392      0.0307
    153  CG        12.7490   -5.8660  -17.3040 C.3   392  ARG392      0.0489
    154  CD        13.5560   -6.1520  -18.5860 C.3   392  ARG392      0.2205
    155  NE        12.5970   -6.5280  -19.6420 N.pl3 392  ARG392     -0.0865
    156  CZ        11.9280   -7.6740  -19.7130 C.cat 392  ARG392      0.5346
    157  NH1       12.2170   -8.7100  -18.9370 N.pl3 392  ARG392      0.1354
    158  NH2       10.8770   -7.7450  -20.5090 N.pl3 392  ARG392      0.1354
    159  N          9.4840   -8.7670  -23.7230 N.3   396  ASP396     -0.1239
    160  CA        10.6940   -9.5920  -23.6790 C.3   396  ASP396      0.1674
    161  C         11.4130   -9.5750  -25.0110 C.2   396  ASP396      0.2266
    162  O         10.8000   -9.5980  -26.1070 O.2   396  ASP396     -0.2867
    163  CB        10.3320  -11.0510  -23.3500 C.3   396  ASP396      0.1410
    164  CG         9.8130  -11.2440  -21.9540 C.2   396  ASP396      0.3668
    165  OD1        9.7540  -10.2800  -21.1500 O.co2 396  ASP396     -0.2456
    166  OD2        9.4430  -12.4290  -21.6630 O.co2 396  ASP396     -0.2456
    167  N          3.0650   -7.5820  -27.6990 N.3   409  GLY409     -0.1225
    168  CA         3.5780   -8.0860  -26.4160 C.3   409  GLY409      0.1811
    169  C          4.2730   -9.4400  -26.3920 C.2   409  GLY409      0.2280
    170  O          4.8290   -9.8290  -25.3560 O.2   409  GLY409     -0.2866
    171  N          7.4120  -12.1560  -27.3150 N.3   411  PRO411     -0.2116
    172  CA         8.8370  -11.9410  -27.3800 C.3   411  PRO411      0.1372
    173  C          9.3570  -11.7140  -28.7900 C.2   411  PRO411      0.2244
    174  O          8.9890  -12.4300  -29.7440 O.2   411  PRO411     -0.2868
    175  CB         9.4580  -13.2290  -26.7580 C.3   411  PRO411      0.0268
    176  CG         8.3580  -13.7280  -25.8150 C.3   411  PRO411      0.0207
    177  CD         7.0780  -13.4110  -26.5820 C.3   411  PRO411      0.0892
@<TRIPOS>BOND
     1   174   173    2
     2   173   172    1
     3   167   168    1
     4   172   171    1
     5   172   175    1
     6   171   177    1
     7   175   176    1
     8   177   176    1
     9   168   169    1
    10   169   170    2
    11   162   161    2
    12   161   160    1
    13    53    52    2
    14     4     3    2
    15   159   160    1
    16   160   163    1
    17   163   164    1
    18    52    51    1
    19    56    58   ar
    20    56    55   ar
    21    54    51    1
    22    54    55    1
    23    58    60   ar
    24     3     2    1
    25    51    50    1
    26    55    57   ar
    27   164   166   ar
    28   164   165   ar
    29    21    23   ar
    30    21    20   ar
    31    60    61    1
    32    60    59   ar
    33    23    24   ar
    34     2     5    1
    35     2     1    1
    36    57    59   ar
    37     5     6    1
    38    50    38   am
    39    19    20    1
    40    19    16    1
    41    20    22   ar
    42    39    38    2
    43    34    33    1
    44    44    42   ar
    45    44    45   ar
    46    24    22   ar
    47    24    26   ar
    48   158   156    1
    49    38    37    1
    50    18    17    2
    51     6     7   ar
    52     6     8   ar
    53    42    41   ar
    54    32    31    2
    55    15    16    1
    56    22    25   ar
    57     7     9   ar
    58    17    16    1
    59    31    30    1
    60    26    28   ar
    61    45    47   ar
    62    45    43   ar
    63    47    49   ar
    64   156   155    2
    65   156   157    1
    66   155   154    1
    67    33    30    1
    68    33    35    1
    69     8    11   ar
    70     8    10   ar
    71    41    43   ar
    72    41    40    1
    73    11    13   ar
    74    25    27   ar
    75     9    10   ar
    76    30    29    1
    77    43    46   ar
    78    28    27   ar
    79    49    48   ar
    80    37    40    1
    81    37    36    1
    82    98    97    2
    83   154   153    1
    84    10    12   ar
    85   150   151    2
    86   150   149    1
    87    13    14   ar
    88    48    46   ar
    89    97    96    1
    90    97    99   am
    91    12    14   ar
    92   152   149    1
    93   152   153    1
    94   149   148    1
    95    93    96    1
    96    93    92    1
    97    93    94    1
    98   100   101    1
    99   100    94   am
   100   102   101    1
   101   102   103    2
   102   101   104    1
   103    94    95    2
   104   147   146    1
   105   122   121    1
   106   141   140   ar
   107   141   139   ar
   108   140   138   ar
   109   106   105   ar
   110   106   108   ar
   111   104   105    1
   112    68    67   ar
   113   105   107   ar
   114   108   109   ar
   115   121   120    1
   116   139   137   ar
   117    67    69   ar
   118    67    66    1
   119    73    72    2
   120   138   136   ar
   121    77    75   ar
   122   130   128   ar
   123   129   128   ar
   124    66    63    1
   125   109   107   ar
   126   109   111   ar
   127   107   110   ar
   128   146   143    1
   129   144   143    1
   130   144   145    2
   131   143   142    1
   132   128   127    1
   133    74    75    1
   134    74    71    1
   135    75    76   ar
   136   111   113   ar
   137   110   112   ar
   138   137   136   ar
   139   136   135    1
   140   120   119    1
   141    72    71    1
   142   113   112   ar
   143    70    71    1
   144    70    64   am
   145    86    84   ar
   146    86    87   ar
   147    63    64    1
   148    63    62    1
   149    64    65    2
   150   132   131    1
   151   132   135    1
   152   132   133    1
   153    84    83   ar
   154   131   125   am
   155    89    87   ar
   156    89    91   ar
   157   127   124    1
   158   119   118    1
   159    87    85   ar
   160    91    90   ar
   161   124   125    1
   162   124   123    1
   163    83    85   ar
   164    83    82    1
   165    85    88   ar
   166   133   134    2
   167   125   126    2
   168   118   115    1
   169    90    88   ar
   170    82    79    1
   171   115   116    1
   172   115   114    1
   173    79    78    1
   174    79    80    1
   175   116   117    2
   176    80    81    2
