@<TRIPOS>MOLECULE
tmp/5m16A00.pdb
 145 145 0 0 0
SMALL
GASTEIGER

@<TRIPOS>ATOM
      1  N         -5.7540   -4.3530   20.1690 N.3    73  TRP73      -0.1241
      2  CA        -5.7840   -5.0930   21.4530 C.3    73  TRP73       0.1605
      3  C         -4.9690   -4.4180   22.5380 C.2    73  TRP73       0.2264
      4  O         -5.0730   -4.7890   23.7170 O.2    73  TRP73      -0.2867
      5  CB        -5.2160   -6.4920   21.2380 C.3    73  TRP73       0.0550
      6  CG        -5.9590   -7.3090   20.1730 C.ar   73  TRP73       0.0003
      7  CD1       -7.3180   -7.3700   19.9890 C.ar   73  TRP73       0.0946
      8  CD2       -5.3890   -8.1700   19.1910 C.ar   73  TRP73       0.0152
      9  NE1       -7.6400   -8.2170   18.9210 N.ar   73  TRP73      -0.2442
     10  CE2       -6.4660   -8.7120   18.4110 C.ar   73  TRP73       0.0810
     11  CE3       -4.0940   -8.5660   18.9050 C.ar   73  TRP73       0.0012
     12  CZ2       -6.2610   -9.6530   17.4300 C.ar   73  TRP73       0.0191
     13  CZ3       -3.9010   -9.4910   17.8510 C.ar   73  TRP73       0.0001
     14  CH2       -4.9710  -10.0230   17.1640 C.ar   73  TRP73       0.0015
     15  N        -17.6670  -16.5810   18.1930 N.3   198  TRP198     -0.1227
     16  CA       -16.4080  -16.8660   18.8370 C.3   198  TRP198      0.1737
     17  C        -16.4650  -17.0790   20.3540 C.2   198  TRP198      0.2595
     18  O        -15.8470  -18.0180   20.8860 O.2   198  TRP198     -0.2718
     19  CB       -15.3470  -15.7660   18.5640 C.3   198  TRP198      0.0564
     20  CG       -14.0360  -16.0570   19.2630 C.ar  198  TRP198      0.0003
     21  CD1      -13.5170  -15.4020   20.3120 C.ar  198  TRP198      0.0946
     22  CD2      -13.0480  -17.0290   18.8790 C.ar  198  TRP198      0.0152
     23  NE1      -12.3170  -15.9290   20.6750 N.ar  198  TRP198     -0.2442
     24  CE2      -12.0040  -16.9450   19.8140 C.ar  198  TRP198      0.0810
     25  CE3      -13.0070  -18.0630   17.9080 C.ar  198  TRP198      0.0012
     26  CZ2      -10.9090  -17.7980   19.8000 C.ar  198  TRP198      0.0191
     27  CZ3      -11.9260  -18.9410   17.9110 C.ar  198  TRP198      0.0001
     28  CH2      -10.8690  -18.7840   18.8290 C.ar  198  TRP198      0.0015
     29  N        -17.1750  -16.2050   21.0450 N.am  199  TYR199     -0.1976
     30  CA       -17.0230  -16.1250   22.5070 C.3   199  TYR199      0.1639
     31  C        -17.9530  -17.1110   23.2540 C.2   199  TYR199      0.2290
     32  O        -18.0600  -17.0750   24.5210 O.2   199  TYR199     -0.2864
     33  CB       -17.2220  -14.6850   22.9810 C.3   199  TYR199      0.0560
     34  CG       -16.1510  -13.7310   22.4870 C.ar  199  TYR199     -0.0198
     35  CD1      -14.9590  -13.5870   23.1880 C.ar  199  TYR199     -0.0009
     36  CD2      -16.3150  -13.0220   21.3090 C.ar  199  TYR199     -0.0009
     37  CE1      -13.9490  -12.7470   22.7490 C.ar  199  TYR199      0.0417
     38  CE2      -15.2710  -12.2090   20.8140 C.ar  199  TYR199      0.0417
     39  CZ       -14.1160  -12.0620   21.5560 C.ar  199  TYR199      0.1957
     40  OH       -13.0600  -11.2940   21.0350 O.3   199  TYR199     -0.2866
     41  N        -17.0050  -17.0020   12.9000 N.3   228  ASP228     -0.1225
     42  CA       -15.6130  -16.6350   13.3120 C.3   228  ASP228      0.1805
     43  C        -14.6630  -17.7700   13.0170 C.2   228  ASP228      0.2597
     44  O        -15.0610  -18.7340   12.3150 O.2   228  ASP228     -0.2718
     45  CB       -15.6180  -16.1810   14.7820 C.3   228  ASP228      0.1424
     46  CG       -14.6020  -15.0260   15.0600 C.2   228  ASP228      0.3668
     47  OD1      -13.3920  -15.3520   15.2580 O.co2 228  ASP228     -0.2456
     48  OD2      -15.0320  -13.8470   14.9530 O.co2 228  ASP228     -0.2456
     49  N        -13.4170  -17.6720   13.4880 N.am  229  ASP229     -0.1974
     50  CA       -12.3400  -18.6870   13.3640 C.3   229  ASP229      0.1709
     51  C        -12.8520  -20.0440   13.8850 C.2   229  ASP229      0.2293
     52  O        -13.4160  -20.1130   14.9890 O.2   229  ASP229     -0.2864
     53  CB       -11.1460  -18.1640   14.1720 C.3   229  ASP229      0.1436
     54  CG        -9.9130  -19.0640   14.1670 C.2   229  ASP229      0.3671
     55  OD1       -9.8090  -20.0420   13.3060 O.co2 229  ASP229     -0.2456
     56  OD2       -9.0070  -18.7910   15.0210 O.co2 229  ASP229     -0.2456
     57  N        -15.1000  -14.2840    9.2500 N.3   265  TRP265     -0.1241
     58  CA       -13.7810  -13.9570    9.8080 C.3   265  TRP265      0.1605
     59  C        -12.6930  -14.4660    8.9010 C.2   265  TRP265      0.2264
     60  O        -12.7130  -15.6500    8.5040 O.2   265  TRP265     -0.2867
     61  CB       -13.6510  -14.6380   11.1690 C.3   265  TRP265      0.0550
     62  CG       -12.3670  -14.4160   11.9010 C.ar  265  TRP265      0.0003
     63  CD1      -12.1330  -13.4480   12.8410 C.ar  265  TRP265      0.0946
     64  CD2      -11.1620  -15.1640   11.7890 C.ar  265  TRP265      0.0152
     65  NE1      -10.8700  -13.5570   13.3260 N.ar  265  TRP265     -0.2442
     66  CE2      -10.2460  -14.6150   12.7150 C.ar  265  TRP265      0.0810
     67  CE3      -10.7810  -16.3120   11.0730 C.ar  265  TRP265      0.0012
     68  CZ2       -8.9630  -15.1250   12.8890 C.ar  265  TRP265      0.0191
     69  CZ3       -9.4960  -16.8260   11.2640 C.ar  265  TRP265      0.0001
     70  CH2       -8.6020  -16.2210   12.1250 C.ar  265  TRP265      0.0015
     71  N          0.7370  -18.3530   16.8030 N.3   298  ASN298     -0.1225
     72  CA        -0.6290  -18.5570   17.2840 C.3   298  ASN298      0.1785
     73  C         -1.0860  -19.8730   16.7120 C.2   298  ASN298      0.2597
     74  O         -0.5270  -20.3410   15.7050 O.2   298  ASN298     -0.2718
     75  CB        -1.5460  -17.3520   16.9310 C.3   298  ASN298      0.1169
     76  CG        -2.9140  -17.3810   17.6130 C.2   298  ASN298      0.2627
     77  OD1       -3.0850  -17.8640   18.7340 O.2   298  ASN298     -0.2716
     78  ND2       -3.8930  -16.8030   16.9630 N.am  298  ASN298     -0.0877
     79  N         -2.1640  -20.4130   17.2730 N.am  299  TRP299     -0.1976
     80  CA        -2.6940  -21.7430   16.8810 C.3   299  TRP299      0.1640
     81  C         -1.6050  -22.8530   16.9310 C.2   299  TRP299      0.2290
     82  O         -1.6780  -23.8030   16.1610 O.2   299  TRP299     -0.2864
     83  CB        -3.3620  -21.7140   15.5070 C.3   299  TRP299      0.0576
     84  CG        -4.4510  -20.6290   15.2860 C.ar  299  TRP299      0.0006
     85  CD1       -5.7600  -20.7060   15.6290 C.ar  299  TRP299      0.0946
     86  CD2       -4.2880  -19.3180   14.6750 C.ar  299  TRP299      0.0152
     87  NE1       -6.4380  -19.5560   15.2620 N.ar  299  TRP299     -0.2442
     88  CE2       -5.5410  -18.6780   14.7130 C.ar  299  TRP299      0.0810
     89  CE3       -3.2050  -18.6340   14.1410 C.ar  299  TRP299      0.0012
     90  CZ2       -5.7410  -17.3750   14.2500 C.ar  299  TRP299      0.0191
     91  CZ3       -3.4080  -17.3390   13.6290 C.ar  299  TRP299      0.0001
     92  CH2       -4.6630  -16.7430   13.6580 C.ar  299  TRP299      0.0015
     93  N        -15.0190   -9.5760    9.0300 N.3   333  LYS333     -0.1245
     94  CA       -14.1370   -9.3060   10.1900 C.3   333  LYS333      0.1561
     95  C        -12.7170   -9.7150    9.7340 C.2   333  LYS333      0.2260
     96  O        -12.4900  -10.8880    9.3850 O.2   333  LYS333     -0.2867
     97  CB       -14.6100  -10.0690   11.4440 C.3   333  LYS333      0.0271
     98  CG       -13.7230   -9.8950   12.7140 C.3   333  LYS333      0.0035
     99  CD       -14.4010  -10.5810   13.9100 C.3   333  LYS333      0.0206
    100  CE       -13.4330  -10.6530   15.0930 C.3   333  LYS333      0.1093
    101  NZ       -14.0130  -11.4040   16.1980 N.3   333  LYS333     -0.1314
    102  N         -8.8370   -9.8370   10.5840 N.3   335  ASP335     -0.1225
    103  CA        -8.1410   -9.9130   11.8890 C.3   335  ASP335      0.1805
    104  C         -6.6330  -10.0700   11.7010 C.2   335  ASP335      0.2597
    105  O         -6.1080  -10.3860   10.5840 O.2   335  ASP335     -0.2718
    106  CB        -8.7670  -11.0760   12.6870 C.3   335  ASP335      0.1424
    107  CG        -8.5680  -10.9820   14.2110 C.2   335  ASP335      0.3668
    108  OD1       -7.8860  -10.0330   14.7410 O.co2 335  ASP335     -0.2456
    109  OD2       -9.1550  -11.8510   14.9030 O.co2 335  ASP335     -0.2456
    110  N         -5.9240   -9.8570   12.8010 N.am  336  PHE336     -0.1976
    111  CA        -4.4490   -9.9530   12.8600 C.3   336  PHE336      0.1639
    112  C         -3.7880   -9.0740   11.8170 C.2   336  PHE336      0.2290
    113  O         -2.7420   -9.4100   11.2360 O.2   336  PHE336     -0.2864
    114  CB        -3.9980  -11.4320   12.7850 C.3   336  PHE336      0.0560
    115  CG        -4.4120  -12.2400   13.9860 C.ar  336  PHE336     -0.0200
    116  CD1       -5.6340  -12.8170   14.0480 C.ar  336  PHE336     -0.0042
    117  CD2       -3.4970  -12.4900   14.9950 C.ar  336  PHE336     -0.0042
    118  CE1       -6.0060  -13.5930   15.1550 C.ar  336  PHE336     -0.0003
    119  CE2       -3.8350  -13.2630   16.0760 C.ar  336  PHE336     -0.0003
    120  CZ        -5.1310  -13.7060   16.2140 C.ar  336  PHE336     -0.0000
    121  N         -9.6270   -5.7570   12.9730 N.3   376  CYS376     -0.1235
    122  CA        -9.3260   -6.3540   14.2650 C.3   376  CYS376      0.1677
    123  C         -7.8530   -6.6900   14.3010 C.2   376  CYS376      0.2270
    124  O         -7.2090   -6.9450   13.2490 O.2   376  CYS376     -0.2867
    125  CB       -10.2520   -7.5730   14.5110 C.3   376  CYS376      0.0956
    126  SG       -10.1390   -8.3310   16.1940 S.3   376  CYS376     -0.0801
    127  N        -12.3080   -2.9700   15.9710 N.3   391  ARG391     -0.1245
    128  CA       -12.1000   -3.4400   17.3500 C.3   391  ARG391      0.1563
    129  C        -11.0430   -2.5340   18.0070 C.2   391  ARG391      0.2260
    130  O         -9.9200   -2.3350   17.4800 O.2   391  ARG391     -0.2867
    131  CB       -11.6540   -4.8910   17.3470 C.3   391  ARG391      0.0307
    132  CG       -12.7970   -5.9230   17.2130 C.3   391  ARG391      0.0489
    133  CD       -13.5670   -6.1760   18.5240 C.3   391  ARG391      0.2205
    134  NE       -12.6520   -6.5370   19.5950 N.pl3 391  ARG391     -0.0865
    135  CZ       -11.9320   -7.6570   19.6520 C.cat 391  ARG391      0.5346
    136  NH1      -12.2200   -8.7050   18.8980 N.pl3 391  ARG391      0.1354
    137  NH2      -10.9290   -7.7310   20.4970 N.pl3 391  ARG391      0.1354
    138  N         -9.4860   -8.7580   23.7130 N.3   395  ASP395     -0.1239
    139  CA       -10.6720   -9.5970   23.7110 C.3   395  ASP395      0.1674
    140  C        -11.4360   -9.5780   25.0290 C.2   395  ASP395      0.2266
    141  O        -10.8310   -9.6290   26.1310 O.2   395  ASP395     -0.2867
    142  CB       -10.3010  -11.0500   23.3740 C.3   395  ASP395      0.1410
    143  CG        -9.8360  -11.2450   21.9500 C.2   395  ASP395      0.3668
    144  OD1       -9.7830  -10.2940   21.1700 O.co2 395  ASP395     -0.2456
    145  OD2       -9.5220  -12.4200   21.5990 O.co2 395  ASP395     -0.2456
@<TRIPOS>BOND
     1    60    59    2
     2    59    58    1
     3    93    94    1
     4    57    58    1
     5    96    95    2
     6    95    94    1
     7    58    61    1
     8    94    97    1
     9   102   103    1
    10   105   104    2
    11    67    69   ar
    12    67    64   ar
    13    61    62    1
    14   113   112    2
    15    69    70   ar
    16    97    98    1
    17   104   103    1
    18   104   110   am
    19    64    62   ar
    20    64    66   ar
    21   112   111    1
    22   103   106    1
    23    62    63   ar
    24    70    68   ar
    25    44    43    2
    26   106   107    1
    27    98    99    1
    28    66    68   ar
    29    66    65   ar
    30   114   111    1
    31   114   115    1
    32   110   111    1
    33    63    65   ar
    34    41    42    1
    35   121   122    1
    36    43    42    1
    37    43    49   am
    38   124   123    2
    39    55    54   ar
    40    42    45    1
    41    50    49    1
    42    50    51    1
    43    50    53    1
    44    91    92   ar
    45    91    89   ar
    46    92    90   ar
    47    51    52    2
    48    99   100    1
    49   115   116   ar
    50   115   117   ar
    51   116   118   ar
    52    89    86   ar
    53    54    53    1
    54    54    56   ar
    55   107   108   ar
    56   107   109   ar
    57    90    88   ar
    58   122   123    1
    59   122   125    1
    60   125   126    1
    61    86    88   ar
    62    86    84   ar
    63    88    87   ar
    64    45    46    1
    65    48    46   ar
    66   117   119   ar
    67    46    47   ar
    68   100   101    1
    69   118   120   ar
    70    87    85   ar
    71    84    83    1
    72    84    85   ar
    73    83    80    1
    74    74    73    2
    75   127   128    1
    76   119   120   ar
    77    82    81    2
    78    73    79   am
    79    73    72    1
    80    71    72    1
    81    80    81    1
    82    80    79    1
    83    75    72    1
    84    75    76    1
    85    78    76   am
    86    14    12   ar
    87    14    13   ar
    88   132   131    1
    89   132   133    1
    90   131   128    1
    91   128   129    1
    92    12    10   ar
    93   130   129    2
    94    76    77    2
    95    13    11   ar
    96    25    27   ar
    97    25    22   ar
    98    27    28   ar
    99    15    16    1
   100    10     9   ar
   101    10     8   ar
   102   133   134    1
   103    19    16    1
   104    19    20    1
   105    28    26   ar
   106    16    17    1
   107    22    20   ar
   108    22    24   ar
   109   136   135    1
   110    11     8   ar
   111     9     7   ar
   112     8     6   ar
   113    20    21   ar
   114   134   135    2
   115   135   137    1
   116    26    24   ar
   117    24    23   ar
   118     7     6   ar
   119     1     2    1
   120     6     5    1
   121    21    23   ar
   122    17    18    2
   123    17    29   am
   124    38    36   ar
   125    38    39   ar
   126    40    39    1
   127    29    30    1
   128   144   143   ar
   129     5     2    1
   130    36    34   ar
   131     2     3    1
   132    39    37   ar
   133   145   143   ar
   134   143   142    1
   135    34    33    1
   136    34    35   ar
   137    30    33    1
   138    30    31    1
   139     3     4    2
   140    37    35   ar
   141    31    32    2
   142   142   139    1
   143   139   138    1
   144   139   140    1
   145   140   141    2
