@<TRIPOS>MOLECULE
tmp/5m1cB00.pdb
 133 129 0 0 0
SMALL
GASTEIGER

@<TRIPOS>ATOM
      1  N         61.7030  -68.9560    7.0400 N.3   130  THR130     -0.1203
      2  CA        61.9720  -68.2380    5.8120 C.3   130  THR130      0.1994
      3  C         63.1310  -68.7500    4.8950 C.2   130  THR130      0.2617
      4  O         63.1470  -68.3710    3.7300 O.2   130  THR130     -0.2717
      5  CB        62.2170  -66.7480    6.1280 C.3   130  THR130      0.1784
      6  OG1       63.2120  -66.6130    7.1470 O.3   130  THR130     -0.2211
      7  CG2       60.9690  -66.0890    6.6290 C.3   130  THR130      0.0376
      8  N         64.1130  -69.4920    5.3960 N.am  131  TRP131     -0.1975
      9  CA        65.2860  -69.9160    4.5630 C.3   131  TRP131      0.1640
     10  C         65.3800  -71.4110    4.3050 C.2   131  TRP131      0.2290
     11  O         66.4520  -71.9320    4.1560 O.2   131  TRP131     -0.2864
     12  CB        66.6330  -69.4580    5.1810 C.3   131  TRP131      0.0576
     13  CG        67.3320  -68.2930    4.4660 C.ar  131  TRP131      0.0006
     14  CD1       67.7500  -67.1430    5.0390 C.ar  131  TRP131      0.0946
     15  CD2       67.6880  -68.1990    3.0670 C.ar  131  TRP131      0.0152
     16  NE1       68.3190  -66.3250    4.0900 N.ar  131  TRP131     -0.2442
     17  CE2       68.2730  -66.9370    2.8700 C.ar  131  TRP131      0.0810
     18  CE3       67.5140  -69.0380    1.9560 C.ar  131  TRP131      0.0012
     19  CZ2       68.7270  -66.5000    1.6220 C.ar  131  TRP131      0.0191
     20  CZ3       67.9520  -68.5820    0.6910 C.ar  131  TRP131      0.0001
     21  CH2       68.5670  -67.3410    0.5500 C.ar  131  TRP131      0.0015
     22  N         62.1740  -72.3500   -2.2950 N.3   148  ILE148     -0.1245
     23  CA        62.2380  -71.5500   -1.0950 C.3   148  ILE148      0.1561
     24  C         60.8720  -70.9360   -0.8550 C.2   148  ILE148      0.2260
     25  O         60.5030  -69.9420   -1.4880 O.2   148  ILE148     -0.2867
     26  CB        63.2980  -70.4510   -1.2420 C.3   148  ILE148      0.0252
     27  CG1       64.6580  -71.1050   -1.5280 C.3   148  ILE148      0.0019
     28  CG2       63.3930  -69.6190    0.0280 C.3   148  ILE148      0.0019
     29  CD1       65.7870  -70.1100   -1.6890 C.3   148  ILE148      0.0001
     30  N         57.9200  -69.8180    2.2120 N.3   150  ARG150     -0.1245
     31  CA        57.7740  -69.4610    3.6180 C.3   150  ARG150      0.1563
     32  C         56.8100  -70.4620    4.3280 C.2   150  ARG150      0.2260
     33  O         55.8320  -70.9030    3.7280 O.2   150  ARG150     -0.2867
     34  CB        57.3220  -68.0060    3.7650 C.3   150  ARG150      0.0307
     35  CG        55.8350  -67.8240    3.6030 C.3   150  ARG150      0.0489
     36  CD        55.5160  -66.3510    3.5450 C.3   150  ARG150      0.2205
     37  NE        54.0770  -66.1010    3.6120 N.pl3 150  ARG150     -0.0865
     38  CZ        53.4590  -65.0620    3.0830 C.cat 150  ARG150      0.5346
     39  NH1       54.1120  -64.1920    2.3840 N.pl3 150  ARG150      0.1354
     40  NH2       52.1610  -64.9240    3.2410 N.pl3 150  ARG150      0.1354
     41  N         68.1120  -70.5540   -5.6550 N.3   202  VAL202     -0.1245
     42  CA        67.7120  -69.1980   -6.0830 C.3   202  VAL202      0.1561
     43  C         67.8690  -68.9020   -7.5950 C.2   202  VAL202      0.2260
     44  O         67.1140  -68.1220   -8.1730 O.2   202  VAL202     -0.2867
     45  CB        68.5540  -68.1740   -5.2850 C.3   202  VAL202      0.0252
     46  CG1       68.3070  -66.7680   -5.7600 C.3   202  VAL202      0.0019
     47  CG2       68.2340  -68.2980   -3.8050 C.3   202  VAL202      0.0019
     48  N         57.5640  -58.6480    0.6160 N.3   261  HIS261     -0.1241
     49  CA        58.6430  -57.8670   -0.0050 C.3   261  HIS261      0.1621
     50  C         58.2150  -56.5200   -0.5980 C.2   261  HIS261      0.2264
     51  O         59.0610  -55.7100   -0.9190 O.2   261  HIS261     -0.2867
     52  CB        59.3490  -58.6770   -1.0680 C.3   261  HIS261      0.0745
     53  CG        58.5560  -58.8500   -2.3330 C.ar  261  HIS261      0.0817
     54  ND1       57.5790  -59.8190   -2.4700 N.ar  261  HIS261     -0.2268
     55  CD2       58.6340  -58.2170   -3.5320 C.ar  261  HIS261      0.1154
     56  CE1       57.0750  -59.7640   -3.6880 C.ar  261  HIS261      0.1986
     57  NE2       57.6850  -58.7890   -4.3460 N.ar  261  HIS261     -0.2212
     58  N         65.8320  -65.1950    8.0480 N.3   290  THR290     -0.1203
     59  CA        65.7710  -63.8960    7.3670 C.3   290  THR290      0.1994
     60  C         64.3670  -63.3010    7.4670 C.2   290  THR290      0.2618
     61  O         63.5800  -63.7480    8.2600 O.2   290  THR290     -0.2717
     62  CB        66.2560  -63.9720    5.8850 C.3   290  THR290      0.1784
     63  OG1       66.5350  -62.6520    5.4180 O.3   290  THR290     -0.2211
     64  CG2       65.2380  -64.5920    4.9780 C.3   290  THR290      0.0376
     65  N         64.0660  -62.2920    6.6800 N.am  291  TYR291     -0.1961
     66  CA        62.7750  -61.6000    6.7620 C.3   291  TYR291      0.1771
     67  C         62.5500  -60.8860    5.4300 C.2   291  TYR291      0.2620
     68  O         63.5160  -60.5640    4.7280 O.2   291  TYR291     -0.2715
     69  CB        62.7870  -60.6280    7.9550 C.3   291  TYR291      0.0574
     70  CG        63.7130  -59.4520    7.7450 C.ar  291  TYR291     -0.0198
     71  CD1       63.3040  -58.3420    6.9890 C.ar  291  TYR291     -0.0009
     72  CD2       64.9900  -59.4370    8.2670 C.ar  291  TYR291     -0.0009
     73  CE1       64.1600  -57.2930    6.7450 C.ar  291  TYR291      0.0417
     74  CE2       65.8530  -58.3700    8.0160 C.ar  291  TYR291      0.0417
     75  CZ        65.4370  -57.3270    7.2480 C.ar  291  TYR291      0.1957
     76  OH        66.2550  -56.2560    7.0020 O.3   291  TYR291     -0.2866
     77  N         61.3050  -60.6870    5.0460 N.am  292  THR292     -0.1951
     78  CA        60.9690  -59.7760    3.9230 C.3   292  THR292      0.1897
     79  C         60.1550  -58.6260    4.4280 C.2   292  THR292      0.2313
     80  O         59.2740  -58.8120    5.2760 O.2   292  THR292     -0.2863
     81  CB        60.1050  -60.4330    2.8270 C.3   292  THR292      0.1794
     82  OG1       59.0870  -61.2080    3.4320 O.3   292  THR292     -0.2208
     83  CG2       60.9220  -61.3430    1.9750 C.3   292  THR292      0.0378
     84  N         66.5300  -60.4610    0.5330 N.3   299  PRO299     -0.2102
     85  CA        66.1020  -60.9870   -0.7510 C.3   299  PRO299      0.1504
     86  C         66.3360  -60.0400   -1.9070 C.2   299  PRO299      0.2575
     87  O         66.6720  -60.4830   -2.9900 O.2   299  PRO299     -0.2718
     88  CB        64.5960  -61.2000   -0.5390 C.3   299  PRO299      0.0282
     89  CG        64.5560  -61.6400    0.8790 C.3   299  PRO299      0.0208
     90  CD        65.5590  -60.7710    1.5800 C.3   299  PRO299      0.0893
     91  N         66.0830  -58.7560   -1.6750 N.am  300  ALA300     -0.1980
     92  CA        66.2560  -57.7450   -2.6780 C.3   300  ALA300      0.1597
     93  C         67.7180  -57.5460   -3.0420 C.2   300  ALA300      0.2287
     94  O         68.0430  -57.3040   -4.1980 O.2   300  ALA300     -0.2864
     95  CB        65.6570  -56.4540   -2.1980 C.3   300  ALA300      0.0319
     96  N         69.9810  -60.0210   -2.8230 N.3   302  LEU302     -0.1231
     97  CA        70.1580  -61.2230   -3.6770 C.3   302  LEU302      0.1693
     98  C         69.6620  -61.0160   -5.0890 C.2   302  LEU302      0.2592
     99  O         70.3030  -61.4320   -6.0160 O.2   302  LEU302     -0.2718
    100  CB        69.4390  -62.4480   -3.1020 C.3   302  LEU302      0.0284
    101  CG        70.1630  -63.2040   -1.9930 C.3   302  LEU302      0.0019
    102  CD1       69.2000  -64.1890   -1.3560 C.3   302  LEU302      0.0001
    103  CD2       71.3870  -63.9220   -2.5140 C.3   302  LEU302      0.0001
    104  N         68.5250  -60.3680   -5.2660 N.am  303  GLY303     -0.1957
    105  CA        67.9640  -60.1730   -6.6130 C.3   303  GLY303      0.1869
    106  C         68.7460  -59.1800   -7.4910 C.2   303  GLY303      0.2309
    107  O         68.6480  -59.2060   -8.7190 O.2   303  GLY303     -0.2863
    108  N         71.7370  -61.2980   -8.5140 N.3   306  LEU306     -0.1245
    109  CA        71.2490  -62.2470   -9.4940 C.3   306  LEU306      0.1561
    110  C         70.9140  -61.6260  -10.8470 C.2   306  LEU306      0.2260
    111  O         70.9340  -62.3110  -11.8530 O.2   306  LEU306     -0.2867
    112  CB        70.0320  -62.9960   -8.9180 C.3   306  LEU306      0.0270
    113  CG        69.4590  -64.2670   -9.6500 C.3   306  LEU306      0.0019
    114  CD1       70.3670  -65.4620   -9.3640 C.3   306  LEU306      0.0001
    115  CD2       68.0060  -64.6890   -9.3490 C.3   306  LEU306      0.0001
    116  N         62.2630  -54.9570   -6.4130 N.3   332  SER332     -0.1202
    117  CA        63.1830  -55.8910   -7.0990 C.3   332  SER332      0.2020
    118  C         62.9540  -56.2020   -8.5870 C.2   332  SER332      0.2618
    119  O         63.9500  -56.4680   -9.2850 O.2   332  SER332     -0.2717
    120  CB        63.2490  -57.2140   -6.3280 C.3   332  SER332      0.2103
    121  OG        63.4570  -56.9800   -4.9440 O.3   332  SER332     -0.2182
    122  N         61.6750  -56.2230   -9.0380 N.am  333  TYR333     -0.1975
    123  CA        61.2610  -56.6390  -10.4080 C.3   333  TYR333      0.1639
    124  C         60.2410  -55.7350  -11.1360 C.2   333  TYR333      0.2290
    125  O         59.9650  -55.9430  -12.3170 O.2   333  TYR333     -0.2864
    126  CB        60.6830  -58.0460  -10.3540 C.3   333  TYR333      0.0560
    127  CG        59.3090  -58.1090   -9.7600 C.ar  333  TYR333     -0.0198
    128  CD1       59.1040  -58.1770   -8.3710 C.ar  333  TYR333     -0.0009
    129  CD2       58.1880  -58.1520  -10.5890 C.ar  333  TYR333     -0.0009
    130  CE1       57.7990  -58.2510   -7.8240 C.ar  333  TYR333      0.0417
    131  CE2       56.9080  -58.2270  -10.0670 C.ar  333  TYR333      0.0417
    132  CZ        56.7010  -58.2730   -8.6810 C.ar  333  TYR333      0.1957
    133  OH        55.3840  -58.3290   -8.2210 O.3   333  TYR333     -0.2866
@<TRIPOS>BOND
     1   125   124    2
     2   111   110    2
     3   124   123    1
     4   110   109    1
     5   129   131   ar
     6   129   127   ar
     7   123   126    1
     8   123   122    1
     9   126   127    1
    10   131   132   ar
    11   127   128   ar
    12   113   114    1
    13   113   115    1
    14   113   112    1
    15   109   112    1
    16   109   108    1
    17   119   118    2
    18   122   118   am
    19   107   106    2
    20   132   133    1
    21   132   130   ar
    22   118   117    1
    23   128   130   ar
    24    44    43    2
    25    43    42    1
    26   106   105    1
    27   117   116    1
    28   117   120    1
    29   105   104    1
    30   120   121    1
    31    42    41    1
    32    42    45    1
    33    99    98    2
    34    46    45    1
    35    45    47    1
    36   104    98   am
    37    98    97    1
    38    57    56   ar
    39    57    55   ar
    40    94    93    2
    41    56    54   ar
    42    97   100    1
    43    97    96    1
    44    55    53   ar
    45   100   101    1
    46    93    92    1
    47    87    86    2
    48    92    95    1
    49    92    91    1
    50   103   101    1
    51    54    53   ar
    52    53    52    1
    53    22    23    1
    54   101   102    1
    55    86    91   am
    56    86    85    1
    57    29    27    1
    58    27    26    1
    59    25    24    2
    60    26    23    1
    61    26    28    1
    62    23    24    1
    63    52    49    1
    64    51    50    2
    65    85    88    1
    66    85    84    1
    67    50    49    1
    68    88    89    1
    69    49    48    1
    70    84    90    1
    71    21    20   ar
    72    21    19   ar
    73    20    18   ar
    74    89    90    1
    75    19    17   ar
    76    18    15   ar
    77    83    81    1
    78    30    31    1
    79    39    38    1
    80    81    82    1
    81    81    78    1
    82    17    15   ar
    83    17    16   ar
    84    15    13   ar
    85    38    40    1
    86    38    37    2
    87    36    35    1
    88    36    37    1
    89    35    34    1
    90    31    34    1
    91    31    32    1
    92    33    32    2
    93     4     3    2
    94    78    79    1
    95    78    77    1
    96    16    14   ar
    97    11    10    2
    98    10     9    1
    99    79    80    2
   100    13    14   ar
   101    13    12    1
   102     9    12    1
   103     9     8    1
   104    68    67    2
   105     3     8   am
   106     3     2    1
   107    64    62    1
   108    77    67   am
   109    63    62    1
   110    67    66    1
   111     2     5    1
   112     2     1    1
   113    62    59    1
   114     5     7    1
   115     5     6    1
   116    65    66    1
   117    65    60   am
   118    73    71   ar
   119    73    75   ar
   120    66    69    1
   121    71    70   ar
   122    76    75    1
   123    75    74   ar
   124    59    60    1
   125    59    58    1
   126    60    61    2
   127    70    69    1
   128    70    72   ar
   129    74    72   ar
