@<TRIPOS>MOLECULE
tmp/5m1eA00.pdb
 213 207 0 0 0
SMALL
GASTEIGER

@<TRIPOS>ATOM
      1  N         84.0790  -18.6140  -18.4670 N.3   135  LEU135     -0.1245
      2  CA        82.7930  -18.0170  -18.1890 C.3   135  LEU135      0.1561
      3  C         82.6840  -17.5940  -16.7390 C.2   135  LEU135      0.2260
      4  O         82.9470  -18.3820  -15.8320 O.2   135  LEU135     -0.2867
      5  CB        81.7260  -19.0450  -18.4970 C.3   135  LEU135      0.0270
      6  CG        80.2830  -18.6370  -18.3680 C.3   135  LEU135      0.0019
      7  CD1       79.9300  -17.6140  -19.4330 C.3   135  LEU135      0.0001
      8  CD2       79.4210  -19.8800  -18.4990 C.3   135  LEU135      0.0001
      9  N         80.4060  -16.8250  -13.7130 N.3   137  THR137     -0.1203
     10  CA        79.1350  -17.4270  -13.3660 C.3   137  THR137      0.1994
     11  C         78.5510  -16.9740  -12.0550 C.2   137  THR137      0.2617
     12  O         77.3850  -17.2820  -11.8070 O.2   137  THR137     -0.2717
     13  CB        79.3050  -18.9500  -13.2280 C.3   137  THR137      0.1784
     14  OG1       80.5340  -19.2520  -12.4980 O.3   137  THR137     -0.2211
     15  CG2       79.3640  -19.5830  -14.6130 C.3   137  THR137      0.0376
     16  N         79.3160  -16.2950  -11.1880 N.am  138  TRP138     -0.1975
     17  CA        78.7400  -15.8220   -9.9270 C.3   138  TRP138      0.1640
     18  C         78.9030  -14.3210   -9.7500 C.2   138  TRP138      0.2290
     19  O         78.9660  -13.8280   -8.6240 O.2   138  TRP138     -0.2864
     20  CB        79.3690  -16.5250   -8.7200 C.3   138  TRP138      0.0576
     21  CG        78.5160  -17.5510   -8.1060 C.ar  138  TRP138      0.0006
     22  CD1       78.8550  -18.8460   -7.8600 C.ar  138  TRP138      0.0946
     23  CD2       77.1630  -17.4070   -7.6720 C.ar  138  TRP138      0.0152
     24  NE1       77.7980  -19.5230   -7.2910 N.ar  138  TRP138     -0.2442
     25  CE2       76.7480  -18.6590   -7.1690 C.ar  138  TRP138      0.0810
     26  CE3       76.2620  -16.3550   -7.6700 C.ar  138  TRP138      0.0012
     27  CZ2       75.4790  -18.8750   -6.6630 C.ar  138  TRP138      0.0191
     28  CZ3       74.9920  -16.5740   -7.1710 C.ar  138  TRP138      0.0001
     29  CH2       74.6190  -17.8240   -6.6660 C.ar  138  TRP138      0.0015
     30  N         69.1370   -2.7680   -9.4970 N.3   152  ASN152     -0.1225
     31  CA        68.8760   -4.2150   -9.6650 C.3   152  ASN152      0.1785
     32  C         70.1880   -4.9950   -9.5360 C.2   152  ASN152      0.2597
     33  O         71.2490   -4.5340   -9.9510 O.2   152  ASN152     -0.2718
     34  CB        68.1330   -4.5910  -11.0020 C.3   152  ASN152      0.1169
     35  CG        67.0750   -5.8220  -10.8330 C.2   152  ASN152      0.2627
     36  OD1       67.3350   -7.0210  -10.9510 O.2   152  ASN152     -0.2716
     37  ND2       65.8390   -5.4720  -10.4440 N.am  152  ASN152     -0.0877
     38  N         70.0860   -6.1840   -8.9490 N.am  153  LEU153     -0.1966
     39  CA        71.1500   -7.1590   -8.9450 C.3   153  LEU153      0.1728
     40  C         70.6330   -8.4130   -9.6290 C.2   153  LEU153      0.2617
     41  O         69.5970   -8.9700   -9.2400 O.2   153  LEU153     -0.2715
     42  CB        71.5540   -7.5160   -7.5140 C.3   153  LEU153      0.0311
     43  CG        71.7840   -6.3770   -6.5310 C.3   153  LEU153      0.0022
     44  CD1       71.9010   -6.9710   -5.1430 C.3   153  LEU153      0.0001
     45  CD2       73.0390   -5.6260   -6.9080 C.3   153  LEU153      0.0001
     46  N         71.3920   -8.9030  -10.5970 N.am  154  GLY154     -0.1940
     47  CA        71.0890  -10.1650  -11.2290 C.3   154  GLY154      0.2014
     48  C         72.3720  -10.9210  -11.5080 C.2   154  GLY154      0.2639
     49  O         73.4690  -10.3530  -11.5550 O.2   154  GLY154     -0.2714
     50  N         72.2350  -12.2280  -11.6680 N.am  155  ILE155     -0.1963
     51  CA        73.3390  -13.0650  -12.0460 C.3   155  ILE155      0.1727
     52  C         73.1390  -13.3450  -13.5280 C.2   155  ILE155      0.2616
     53  O         72.2090  -14.0500  -13.9410 O.2   155  ILE155     -0.2715
     54  CB        73.3830  -14.3850  -11.2520 C.3   155  ILE155      0.0290
     55  CG1       72.9760  -14.1880   -9.7680 C.3   155  ILE155      0.0022
     56  CG2       74.6980  -15.0920  -11.5100 C.3   155  ILE155      0.0023
     57  CD1       73.8750  -13.3350   -8.9860 C.3   155  ILE155      0.0001
     58  N         74.0340  -12.7960  -14.3300 N.am  156  TYR156     -0.1960
     59  CA        74.0360  -13.0260  -15.7570 C.3   156  TYR156      0.1771
     60  C         75.4250  -13.5510  -16.1270 C.2   156  TYR156      0.2619
     61  O         76.4550  -12.9690  -15.8610 O.2   156  TYR156     -0.2715
     62  CB        73.6960  -11.7300  -16.5020 C.3   156  TYR156      0.0574
     63  CG        72.5710  -10.9450  -15.8650 C.ar  156  TYR156     -0.0198
     64  CD1       71.3280  -11.5010  -15.7220 C.ar  156  TYR156     -0.0009
     65  CD2       72.7540   -9.6440  -15.4300 C.ar  156  TYR156     -0.0009
     66  CE1       70.2820  -10.7930  -15.1520 C.ar  156  TYR156      0.0417
     67  CE2       71.7240   -8.9290  -14.8710 C.ar  156  TYR156      0.0417
     68  CZ        70.4830   -9.5110  -14.7130 C.ar  156  TYR156      0.1957
     69  OH        69.4130   -8.8260  -14.1560 O.3   156  TYR156     -0.2866
     70  N         75.4180  -14.6680  -16.7760 N.am  157  ARG157     -0.1977
     71  CA        76.6020  -15.2940  -17.2570 C.3   157  ARG157      0.1597
     72  C         77.3940  -14.4080  -18.2120 C.2   157  ARG157      0.2287
     73  O         76.8170  -13.6970  -19.0200 O.2   157  ARG157     -0.2864
     74  CB        76.0880  -16.6010  -17.8850 C.3   157  ARG157      0.0334
     75  CG        76.5150  -17.0370  -19.2400 C.3   157  ARG157      0.0492
     76  CD        75.6830  -18.2710  -19.6220 C.3   157  ARG157      0.2205
     77  NE        75.5080  -18.4060  -21.0500 N.pl3 157  ARG157     -0.0865
     78  CZ        74.8010  -19.3530  -21.6230 C.cat 157  ARG157      0.5346
     79  NH1       74.2530  -20.3130  -20.8840 N.pl3 157  ARG157      0.1354
     80  NH2       74.6630  -19.3530  -22.9400 N.pl3 157  ARG157      0.1354
     81  N         75.2650  -11.6590  -20.8160 N.3   169  ARG169     -0.1245
     82  CA        74.1030  -12.4610  -21.2500 C.3   169  ARG169      0.1563
     83  C         72.9030  -12.3850  -20.3080 C.2   169  ARG169      0.2260
     84  O         72.5730  -13.3340  -19.6100 O.2   169  ARG169     -0.2867
     85  CB        74.5340  -13.8860  -21.4700 C.3   169  ARG169      0.0307
     86  CG        73.5960  -14.6550  -22.3700 C.3   169  ARG169      0.0489
     87  CD        73.0700  -15.7690  -21.5530 C.3   169  ARG169      0.2205
     88  NE        72.2590  -16.7220  -22.2350 N.pl3 169  ARG169     -0.0865
     89  CZ        71.6390  -17.6680  -21.5640 C.cat 169  ARG169      0.5346
     90  NH1       71.7460  -17.6910  -20.2410 N.pl3 169  ARG169      0.1354
     91  NH2       70.9060  -18.5690  -22.1950 N.pl3 169  ARG169      0.1354
     92  N         68.9680  -12.3370  -20.2210 N.3   171  LEU171     -0.1245
     93  CA        67.7900  -12.6030  -21.0350 C.3   171  LEU171      0.1561
     94  C         66.8730  -11.3600  -20.9360 C.2   171  LEU171      0.2260
     95  O         67.0540  -10.5280  -20.0380 O.2   171  LEU171     -0.2867
     96  CB        67.1030  -13.8850  -20.5830 C.3   171  LEU171      0.0270
     97  CG        68.0450  -15.1050  -20.5840 C.3   171  LEU171      0.0019
     98  CD1       67.3540  -16.3260  -19.9910 C.3   171  LEU171      0.0001
     99  CD2       68.6080  -15.4190  -21.9790 C.3   171  LEU171      0.0001
    100  N         63.8920  -10.2470  -20.1680 N.3   173  HIS173     -0.1226
    101  CA        62.9260   -9.8880  -19.1210 C.3   173  HIS173      0.1752
    102  C         63.6210   -9.5080  -17.7940 C.2   173  HIS173      0.2596
    103  O         62.9810   -9.0460  -16.8530 O.2   173  HIS173     -0.2718
    104  CB        61.8750  -10.9960  -18.9400 C.3   173  HIS173      0.0759
    105  CG        62.4440  -12.3790  -18.7730 C.ar  173  HIS173      0.0818
    106  ND1       63.0670  -13.0700  -19.7970 N.ar  173  HIS173     -0.2268
    107  CD2       62.4320  -13.2230  -17.7120 C.ar  173  HIS173      0.1154
    108  CE1       63.4440  -14.2610  -19.3660 C.ar  173  HIS173      0.1986
    109  NE2       63.0640  -14.3830  -18.1060 N.ar  173  HIS173     -0.2212
    110  N         64.9470   -9.6210  -17.7740 N.am  174  ARG174     -0.1966
    111  CA        65.7560   -9.2800  -16.6140 C.3   174  ARG174      0.1729
    112  C         65.8430   -7.7840  -16.3450 C.2   174  ARG174      0.2616
    113  O         65.7410   -6.9690  -17.2510 O.2   174  ARG174     -0.2715
    114  CB        67.1830   -9.7850  -16.8010 C.3   174  ARG174      0.0348
    115  CG        67.3180  -11.2690  -17.1020 C.3   174  ARG174      0.0492
    116  CD        66.5810  -12.0880  -16.0680 C.3   174  ARG174      0.2205
    117  NE        66.9190  -13.4900  -16.1570 N.pl3 174  ARG174     -0.0865
    118  CZ        66.1080  -14.4800  -15.7970 C.cat 174  ARG174      0.5346
    119  NH1       64.8910  -14.2340  -15.3590 N.pl3 174  ARG174      0.1354
    120  NH2       66.5170  -15.7390  -15.9060 N.pl3 174  ARG174      0.1354
    121  N         66.0570   -7.4450  -15.0780 N.am  175  GLY175     -0.1955
    122  CA        66.1990   -6.0670  -14.6550 C.3   175  GLY175      0.1869
    123  C         67.3000   -5.3810  -15.4360 C.2   175  GLY175      0.2309
    124  O         67.0860   -4.3160  -15.9940 O.2   175  GLY175     -0.2863
    125  N         70.0670  -11.4430   -4.4990 N.3   208  ALA208     -0.1231
    126  CA        70.1200  -11.1910   -5.9350 C.3   208  ALA208      0.1694
    127  C         69.2550  -12.1650   -6.7220 C.2   208  ALA208      0.2592
    128  O         68.6850  -11.8200   -7.7470 O.2   208  ALA208     -0.2718
    129  CB        71.5520  -11.2770   -6.4130 C.3   208  ALA208      0.0304
    130  N         69.1900  -13.4040   -6.2590 N.am  209  VAL209     -0.1966
    131  CA        68.5050  -14.4270   -6.9960 C.3   209  VAL209      0.1727
    132  C         67.0720  -14.6290   -6.4560 C.2   209  VAL209      0.2617
    133  O         66.3040  -15.3660   -7.0630 O.2   209  VAL209     -0.2715
    134  CB        69.3850  -15.6580   -7.0640 C.3   209  VAL209      0.0290
    135  CG1       69.6050  -16.2130   -5.6860 C.3   209  VAL209      0.0023
    136  CG2       68.7950  -16.7120   -7.9790 C.3   209  VAL209      0.0023
    137  N         66.6850  -13.9610   -5.3600 N.am  210  THR210     -0.1937
    138  CA        65.2710  -13.9590   -4.9950 C.3   210  THR210      0.2013
    139  C         64.4770  -13.1960   -6.0510 C.2   210  THR210      0.2484
    140  O         64.8790  -12.1060   -6.4300 O.2   210  THR210     -0.2729
    141  CB        64.9330  -13.2470   -3.6750 C.3   210  THR210      0.1807
    142  OG1       65.4610  -11.9240   -3.6930 O.3   210  THR210     -0.2208
    143  CG2       65.4190  -13.9950   -2.4390 C.3   210  THR210      0.0379
    144  N         63.3270  -13.7340   -6.4920 N.am  211  PRO211     -0.2715
    145  CA        62.5330  -13.0330   -7.5100 C.3   211  PRO211      0.1536
    146  C         61.6650  -11.9410   -6.9250 C.2   211  PRO211      0.2598
    147  O         60.4820  -12.1230   -6.6870 O.2   211  PRO211     -0.2715
    148  CB        61.6740  -14.1540   -8.1150 C.3   211  PRO211      0.0310
    149  CG        61.4720  -15.0940   -6.9820 C.3   211  PRO211      0.0237
    150  CD        62.6710  -14.9850   -6.0710 C.3   211  PRO211      0.0939
    151  N         62.2850  -10.8030   -6.6800 N.am  212  VAL212     -0.1978
    152  CA        61.5730   -9.6670   -6.1490 C.3   212  VAL212      0.1596
    153  C         61.0710   -8.8490   -7.3390 C.2   212  VAL212      0.2287
    154  O         61.6090   -8.9450   -8.4190 O.2   212  VAL212     -0.2864
    155  CB        62.4800   -8.8430   -5.2030 C.3   212  VAL212      0.0276
    156  CG1       63.3140   -9.7820   -4.3320 C.3   212  VAL212      0.0022
    157  CG2       63.4010   -7.8890   -5.9690 C.3   212  VAL212      0.0022
    158  N         67.1660   -5.4490   -4.9630 N.3   218  GLU218     -0.1245
    159  CA        67.5120   -6.7130   -4.3660 C.3   218  GLU218      0.1567
    160  C         68.3650   -6.4520   -3.0600 C.2   218  GLU218      0.2260
    161  O         68.4580   -7.3020   -2.1610 O.2   218  GLU218     -0.2867
    162  CB        68.1720   -7.5770   -5.4780 C.3   218  GLU218      0.0388
    163  CG        67.1390   -8.3780   -6.3070 C.3   218  GLU218      0.1160
    164  CD        66.6510   -7.9250   -7.7370 C.2   218  GLU218      0.3649
    165  OE1       66.8540   -6.8900   -8.3700 O.co2 218  GLU218     -0.2457
    166  OE2       65.8810   -8.6630   -8.4140 O.co2 218  GLU218     -0.2457
    167  N         74.2030  -25.5310  -20.3930 N.3   267  ASP267     -0.1225
    168  CA        73.2470  -24.8540  -19.4500 C.3   267  ASP267      0.1805
    169  C         72.6100  -25.8490  -18.4480 C.2   267  ASP267      0.2597
    170  O         72.9130  -27.0480  -18.4430 O.2   267  ASP267     -0.2718
    171  CB        72.2010  -23.9900  -20.1540 C.3   267  ASP267      0.1424
    172  CG        71.2090  -24.7610  -20.9720 C.2   267  ASP267      0.3668
    173  OD1       71.1050  -25.9890  -20.8420 O.co2 267  ASP267     -0.2456
    174  OD2       70.5190  -24.0860  -21.7800 O.co2 267  ASP267     -0.2456
    175  N         71.7000  -25.3400  -17.6230 N.am  268  HIS268     -0.1975
    176  CA        71.0810  -26.1260  -16.5500 C.3   268  HIS268      0.1656
    177  C         70.2260  -27.2810  -17.0940 C.2   268  HIS268      0.2291
    178  O         69.9300  -28.1850  -16.3450 O.2   268  HIS268     -0.2864
    179  CB        70.2340  -25.2160  -15.6560 C.3   268  HIS268      0.0771
    180  CG        68.8990  -24.8900  -16.2400 C.ar  268  HIS268      0.0820
    181  ND1       68.7080  -23.8470  -17.1280 N.ar  268  HIS268     -0.2267
    182  CD2       67.6980  -25.5080  -16.1080 C.ar  268  HIS268      0.1154
    183  CE1       67.4390  -23.8220  -17.5000 C.ar  268  HIS268      0.1986
    184  NE2       66.8090  -24.8270  -16.9070 N.ar  268  HIS268     -0.2212
    185  N         80.9710  -20.9330  -10.1440 N.3   297  THR297     -0.1218
    186  CA        80.1830  -22.1230  -10.2060 C.3   297  THR297      0.1862
    187  C         80.0180  -22.5910  -11.6510 C.2   297  THR297      0.2287
    188  O         80.7530  -22.2020  -12.5460 O.2   297  THR297     -0.2866
    189  CB        78.8300  -21.9080   -9.5200 C.3   297  THR297      0.1770
    190  OG1       78.2230  -23.1840   -9.2890 O.3   297  THR297     -0.2211
    191  CG2       77.9150  -21.0190  -10.3390 C.3   297  THR297      0.0375
    192  N         76.9650  -24.5570  -14.3290 N.3   299  THR299     -0.1218
    193  CA        75.6610  -25.1020  -14.5380 C.3   299  THR299      0.1862
    194  C         75.8000  -26.2270  -15.5570 C.2   299  THR299      0.2287
    195  O         76.6210  -26.1570  -16.4400 O.2   299  THR299     -0.2866
    196  CB        74.6920  -23.9880  -15.0200 C.3   299  THR299      0.1770
    197  OG1       73.4380  -24.5810  -15.3000 O.3   299  THR299     -0.2211
    198  CG2       75.2080  -23.3330  -16.2830 C.3   299  THR299      0.0375
    199  N         73.1220  -24.1120   -8.8730 N.3   306  PRO306     -0.2116
    200  CA        71.9160  -23.3270   -9.1580 C.3   306  PRO306      0.1372
    201  C         70.5970  -24.0310   -8.9260 C.2   306  PRO306      0.2244
    202  O         69.6300  -23.4270   -8.4830 O.2   306  PRO306     -0.2868
    203  CB        72.0420  -23.0450  -10.6560 C.3   306  PRO306      0.0268
    204  CG        73.5030  -22.8830  -10.8030 C.3   306  PRO306      0.0207
    205  CD        74.1340  -23.9260   -9.9130 C.3   306  PRO306      0.0892
    206  N         70.0640  -24.2020   -5.1260 N.3   309  LEU309     -0.1245
    207  CA        69.5410  -22.8640   -4.8400 C.3   309  LEU309      0.1561
    208  C         68.0930  -22.7510   -5.2250 C.2   309  LEU309      0.2260
    209  O         67.2850  -22.3790   -4.4200 O.2   309  LEU309     -0.2867
    210  CB        70.2580  -21.8100   -5.6470 C.3   309  LEU309      0.0270
    211  CG        71.2740  -21.0300   -4.8620 C.3   309  LEU309      0.0019
    212  CD1       72.0800  -20.1660   -5.8140 C.3   309  LEU309      0.0001
    213  CD2       70.5830  -20.2030   -3.8290 C.3   309  LEU309      0.0001
@<TRIPOS>BOND
     1    80    78    1
     2    86    87    1
     3    86    85    1
     4    88    89    2
     5    88    87    1
     6    91    89    1
     7    99    97    1
     8   174   172   ar
     9    78    77    2
    10    78    79    1
    11    89    90    1
    12    85    82    1
    13    82    81    1
    14    82    83    1
    15    77    76    1
    16    93    94    1
    17    93    96    1
    18    93    92    1
    19   172   173   ar
    20   172   171    1
    21    94    95    2
    22    97    96    1
    23    97    98    1
    24   167   168    1
    25    83    84    2
    26   100   101    1
    27   171   168    1
    28   106   108   ar
    29   106   105   ar
    30    76    75    1
    31   168   169    1
    32     7     6    1
    33   108   109   ar
    34    75    74    1
    35   101   104    1
    36   101   102    1
    37    73    72    2
    38   104   105    1
    39   105   107   ar
    40     8     6    1
    41     5     6    1
    42     5     2    1
    43     1     2    1
    44   169   170    2
    45   169   175   am
    46    72    71    1
    47     2     3    1
    48   109   107   ar
    49    74    71    1
    50   102   110   am
    51   102   103    2
    52   110   111    1
    53   175   176    1
    54   183   181   ar
    55   183   184   ar
    56    71    70    1
    57   113   112    2
    58   181   180   ar
    59   115   114    1
    60   115   116    1
    61   177   176    1
    62   177   178    2
    63   184   182   ar
    64   114   111    1
    65    70    60   am
    66     3     4    2
    67   111   112    1
    68   176   179    1
    69    62    63    1
    70    62    59    1
    71   195   194    2
    72   112   121   am
    73   198   196    1
    74   180   182   ar
    75   180   179    1
    76   117   116    1
    77   117   118    2
    78    60    61    2
    79    60    59    1
    80   124   123    2
    81   120   118    1
    82    63    64   ar
    83    63    65   ar
    84   118   119    1
    85    59    58    1
    86    64    66   ar
    87   194   193    1
    88   123   122    1
    89    65    67   ar
    90   197   196    1
    91    66    68   ar
    92   121   122    1
    93   196   193    1
    94    67    68   ar
    95    68    69    1
    96    15    13    1
    97   193   192    1
    98    58    52   am
    99    53    52    2
   100     9    10    1
   101    52    51    1
   102    10    13    1
   103    10    11    1
   104    13    14    1
   105   188   187    2
   106    11    12    2
   107    11    16   am
   108    51    50    1
   109    51    54    1
   110    50    48   am
   111   187   186    1
   112    49    48    2
   113    56    54    1
   114    48    47    1
   115    54    55    1
   116    47    46    1
   117    16    17    1
   118    34    35    1
   119    34    31    1
   120    36    35    2
   121    35    37   am
   122   204   203    1
   123   204   205    1
   124   203   200    1
   125    46    40   am
   126   191   189    1
   127   186   185    1
   128   186   189    1
   129    33    32    2
   130    17    18    1
   131    17    20    1
   132   205   199    1
   133    55    57    1
   134    18    19    2
   135    31    32    1
   136    31    30    1
   137    40    41    2
   138    40    39    1
   139    32    38   am
   140   189   190    1
   141   200   201    1
   142   200   199    1
   143    38    39    1
   144    39    42    1
   145   201   202    2
   146    20    21    1
   147   154   153    2
   148   166   164   ar
   149   165   164   ar
   150   148   145    1
   151   148   149    1
   152    21    22   ar
   153    21    23   ar
   154   136   134    1
   155    22    24   ar
   156   128   127    2
   157   164   163    1
   158    23    26   ar
   159    23    25   ar
   160    26    28   ar
   161    42    43    1
   162   145   146    1
   163   145   144    1
   164   153   152    1
   165    24    25   ar
   166    28    29   ar
   167    25    27   ar
   168   134   131    1
   169   134   135    1
   170   133   132    2
   171   131   132    1
   172   131   130    1
   173   149   150    1
   174   146   147    2
   175   146   151   am
   176    45    43    1
   177   127   130   am
   178   127   126    1
   179   151   152    1
   180    29    27   ar
   181    43    44    1
   182   144   150    1
   183   144   139   am
   184   132   137   am
   185   140   139    2
   186   129   126    1
   187   163   162    1
   188   152   155    1
   189   139   138    1
   190   157   155    1
   191   126   125    1
   192   212   211    1
   193   210   211    1
   194   210   207    1
   195   162   159    1
   196   137   138    1
   197   208   207    1
   198   208   209    2
   199   155   156    1
   200   206   207    1
   201   138   141    1
   202   158   159    1
   203   211   213    1
   204   159   160    1
   205   142   141    1
   206   141   143    1
   207   160   161    2
