@<TRIPOS>MOLECULE
tmp/5m1iA00.pdb
 145 145 0 0 0
SMALL
GASTEIGER

@<TRIPOS>ATOM
      1  N        -28.0510   -4.6790  -19.9410 N.3    79  TRP79      -0.1241
      2  CA       -28.1090   -5.3590  -21.2110 C.3    79  TRP79       0.1605
      3  C        -28.9600   -4.6590  -22.2710 C.2    79  TRP79       0.2264
      4  O        -28.8830   -4.9750  -23.4570 O.2    79  TRP79      -0.2867
      5  CB       -28.6420   -6.7880  -21.0510 C.3    79  TRP79       0.0550
      6  CG       -27.9150   -7.5910  -20.0280 C.ar   79  TRP79       0.0003
      7  CD1      -26.5830   -7.6410  -19.8240 C.ar   79  TRP79       0.0946
      8  CD2      -28.5000   -8.4520  -19.0680 C.ar   79  TRP79       0.0152
      9  NE1      -26.2990   -8.5470  -18.8390 N.ar   79  TRP79      -0.2442
     10  CE2      -27.4680   -9.0570  -18.3690 C.ar   79  TRP79       0.0810
     11  CE3      -29.8010   -8.8140  -18.7880 C.ar   79  TRP79       0.0012
     12  CZ2      -27.6890   -9.9420  -17.3360 C.ar   79  TRP79       0.0191
     13  CZ3      -30.0190   -9.7190  -17.7980 C.ar   79  TRP79       0.0001
     14  CH2      -28.9670  -10.2740  -17.0940 C.ar   79  TRP79       0.0015
     15  N        -16.2570  -17.1940  -18.2210 N.3   204  TRP204     -0.1227
     16  CA       -17.5640  -17.4250  -18.8130 C.3   204  TRP204      0.1737
     17  C        -17.5480  -17.6360  -20.3430 C.2   204  TRP204      0.2595
     18  O        -18.2050  -18.5340  -20.8440 O.2   204  TRP204     -0.2718
     19  CB       -18.5830  -16.2960  -18.4450 C.3   204  TRP204      0.0564
     20  CG       -19.9300  -16.4960  -19.0800 C.ar  204  TRP204      0.0003
     21  CD1      -20.4380  -15.8040  -20.1630 C.ar  204  TRP204      0.0946
     22  CD2      -20.9000  -17.4750  -18.7540 C.ar  204  TRP204      0.0152
     23  NE1      -21.7330  -16.2230  -20.4220 N.ar  204  TRP204     -0.2442
     24  CE2      -22.0020  -17.2910  -19.6210 C.ar  204  TRP204      0.0810
     25  CE3      -20.9570  -18.4930  -17.8080 C.ar  204  TRP204      0.0012
     26  CZ2      -23.1150  -18.1270  -19.6130 C.ar  204  TRP204      0.0191
     27  CZ3      -22.0630  -19.2920  -17.7710 C.ar  204  TRP204      0.0001
     28  CH2      -23.1290  -19.1290  -18.6820 C.ar  204  TRP204      0.0015
     29  N        -16.9130  -16.7110  -21.0840 N.am  205  TYR205     -0.1976
     30  CA       -17.1020  -16.6550  -22.5300 C.3   205  TYR205      0.1639
     31  C        -16.2190  -17.6170  -23.2780 C.2   205  TYR205      0.2290
     32  O        -16.1280  -17.5580  -24.4840 O.2   205  TYR205     -0.2864
     33  CB       -16.8560  -15.2000  -23.0210 C.3   205  TYR205      0.0560
     34  CG       -17.8950  -14.2660  -22.4300 C.ar  205  TYR205     -0.0198
     35  CD1      -19.1150  -14.1000  -23.0750 C.ar  205  TYR205     -0.0009
     36  CD2      -17.6630  -13.5290  -21.2910 C.ar  205  TYR205     -0.0009
     37  CE1      -20.0870  -13.2660  -22.5560 C.ar  205  TYR205      0.0417
     38  CE2      -18.6250  -12.6740  -20.7730 C.ar  205  TYR205      0.0417
     39  CZ       -19.8400  -12.5530  -21.3760 C.ar  205  TYR205      0.1957
     40  OH       -20.8610  -11.7710  -20.8230 O.3   205  TYR205     -0.2866
     41  N        -16.6460  -17.5340  -12.9730 N.3   234  ASP234     -0.1225
     42  CA       -17.9840  -17.1550  -13.3350 C.3   234  ASP234      0.1805
     43  C        -18.9800  -18.2750  -13.0010 C.2   234  ASP234      0.2597
     44  O        -18.6680  -19.1820  -12.2250 O.2   234  ASP234     -0.2718
     45  CB       -18.0660  -16.6920  -14.8020 C.3   234  ASP234      0.1424
     46  CG       -19.0540  -15.5680  -15.0100 C.2   234  ASP234      0.3668
     47  OD1      -18.6950  -14.3430  -14.8990 O.co2 234  ASP234     -0.2456
     48  OD2      -20.2770  -15.8990  -15.2930 O.co2 234  ASP234     -0.2456
     49  N        -20.2350  -18.1000  -13.3950 N.am  235  ASP235     -0.1974
     50  CA       -21.2940  -19.0660  -13.2010 C.3   235  ASP235      0.1709
     51  C        -20.8290  -20.4410  -13.7510 C.2   235  ASP235      0.2293
     52  O        -20.3280  -20.5360  -14.8710 O.2   235  ASP235     -0.2864
     53  CB       -22.5040  -18.5710  -13.9950 C.3   235  ASP235      0.1436
     54  CG       -23.7530  -19.4030  -13.8420 C.2   235  ASP235      0.3671
     55  OD1      -23.8350  -20.3030  -12.9710 O.co2 235  ASP235     -0.2456
     56  OD2      -24.6840  -19.1180  -14.6120 O.co2 235  ASP235     -0.2456
     57  N        -18.3410  -14.7890   -9.1960 N.3   271  TRP271     -0.1241
     58  CA       -19.6960  -14.4370   -9.6870 C.3   271  TRP271      0.1605
     59  C        -20.7520  -14.9510   -8.7730 C.2   271  TRP271      0.2264
     60  O        -20.6830  -16.1220   -8.3290 O.2   271  TRP271     -0.2867
     61  CB       -19.8550  -15.0850  -11.0460 C.3   271  TRP271      0.0550
     62  CG       -21.1060  -14.8880  -11.7610 C.ar  271  TRP271      0.0003
     63  CD1      -21.3070  -14.0060  -12.7980 C.ar  271  TRP271      0.0946
     64  CD2      -22.3410  -15.6100  -11.6090 C.ar  271  TRP271      0.0152
     65  NE1      -22.6000  -14.0840  -13.2340 N.ar  271  TRP271     -0.2442
     66  CE2      -23.2390  -15.0940  -12.5750 C.ar  271  TRP271      0.0810
     67  CE3      -22.7530  -16.7020  -10.8360 C.ar  271  TRP271      0.0012
     68  CZ2      -24.5520  -15.5470  -12.7050 C.ar  271  TRP271      0.0191
     69  CZ3      -24.0800  -17.1810  -11.0190 C.ar  271  TRP271      0.0001
     70  CH2      -24.9390  -16.6000  -11.9520 C.ar  271  TRP271      0.0015
     71  N        -34.4920  -18.6430  -16.2680 N.3   304  ASN304     -0.1225
     72  CA       -33.1520  -18.8970  -16.7720 C.3   304  ASN304      0.1785
     73  C        -32.6400  -20.1760  -16.0860 C.2   304  ASN304      0.2597
     74  O        -33.1890  -20.6030  -15.0710 O.2   304  ASN304     -0.2718
     75  CB       -32.2400  -17.6890  -16.4680 C.3   304  ASN304      0.1169
     76  CG       -30.9280  -17.7830  -17.1490 C.2   304  ASN304      0.2627
     77  OD1      -30.8380  -18.3070  -18.2590 O.2   304  ASN304     -0.2716
     78  ND2      -29.8450  -17.2840  -16.4790 N.am  304  ASN304     -0.0877
     79  N        -31.5940  -20.7750  -16.6400 N.am  305  TRP305     -0.1976
     80  CA       -31.0900  -22.0980  -16.1540 C.3   305  TRP305      0.1640
     81  C        -32.2100  -23.1450  -16.2400 C.2   305  TRP305      0.2290
     82  O        -32.3260  -24.0330  -15.3640 O.2   305  TRP305     -0.2864
     83  CB       -30.5140  -21.9980  -14.7520 C.3   305  TRP305      0.0576
     84  CG       -29.3620  -20.9890  -14.5840 C.ar  305  TRP305      0.0006
     85  CD1      -28.0340  -21.1340  -14.9520 C.ar  305  TRP305      0.0946
     86  CD2      -29.4980  -19.6770  -14.0960 C.ar  305  TRP305      0.0152
     87  NE1      -27.3500  -19.9820  -14.6400 N.ar  305  TRP305     -0.2442
     88  CE2      -28.2200  -19.0730  -14.1290 C.ar  305  TRP305      0.0810
     89  CE3      -30.5740  -18.9460  -13.6080 C.ar  305  TRP305      0.0012
     90  CZ2      -28.0180  -17.7490  -13.7220 C.ar  305  TRP305      0.0191
     91  CZ3      -30.3780  -17.6760  -13.1300 C.ar  305  TRP305      0.0001
     92  CH2      -29.0880  -17.0610  -13.2250 C.ar  305  TRP305      0.0015
     93  N        -18.4910  -10.0220   -9.0800 N.3   339  LYS339     -0.1245
     94  CA       -19.3870   -9.7860  -10.2250 C.3   339  LYS339      0.1561
     95  C        -20.7470  -10.2220   -9.7390 C.2   339  LYS339      0.2260
     96  O        -20.8960  -11.4130   -9.3530 O.2   339  LYS339     -0.2867
     97  CB       -18.9190  -10.5580  -11.4250 C.3   339  LYS339      0.0271
     98  CG       -19.8480  -10.4480  -12.6210 C.3   339  LYS339      0.0035
     99  CD       -19.2250  -11.0560  -13.8690 C.3   339  LYS339      0.0206
    100  CE       -20.2320  -11.2150  -15.0320 C.3   339  LYS339      0.1093
    101  NZ       -19.6160  -12.0040  -16.1520 N.3   339  LYS339     -0.1314
    102  N        -24.6690  -10.4040  -10.6810 N.3   341  ASP341     -0.1225
    103  CA       -25.4270  -10.4440  -11.9050 C.3   341  ASP341      0.1805
    104  C        -26.9080  -10.5110  -11.5870 C.2   341  ASP341      0.2597
    105  O        -27.3560  -10.7820  -10.4470 O.2   341  ASP341     -0.2718
    106  CB       -24.9580  -11.6590  -12.7080 C.3   341  ASP341      0.1424
    107  CG       -25.1130  -11.5500  -14.2100 C.2   341  ASP341      0.3668
    108  OD1      -25.8260  -10.6320  -14.7210 O.co2 341  ASP341     -0.2456
    109  OD2      -24.6980  -12.5670  -14.8960 O.co2 341  ASP341     -0.2456
    110  N        -27.6860  -10.2670  -12.6290 N.am  342  PHE342     -0.1976
    111  CA       -29.1760  -10.2580  -12.5950 C.3   342  PHE342      0.1639
    112  C        -29.7260   -9.3570  -11.4850 C.2   342  PHE342      0.2290
    113  O        -30.7510   -9.6740  -10.8150 O.2   342  PHE342     -0.2864
    114  CB       -29.7650  -11.6840  -12.4710 C.3   342  PHE342      0.0560
    115  CG       -29.3630  -12.5890  -13.5630 C.ar  342  PHE342     -0.0200
    116  CD1      -28.1910  -13.3260  -13.4610 C.ar  342  PHE342     -0.0042
    117  CD2      -30.1230  -12.7150  -14.7090 C.ar  342  PHE342     -0.0042
    118  CE1      -27.8240  -14.1810  -14.4590 C.ar  342  PHE342     -0.0003
    119  CE2      -29.7290  -13.5460  -15.7440 C.ar  342  PHE342     -0.0003
    120  CZ       -28.5300  -14.2100  -15.6390 C.ar  342  PHE342     -0.0000
    121  N        -24.0310   -6.1350  -12.8490 N.3   382  CYS382     -0.1235
    122  CA       -24.3840   -6.7680  -14.1090 C.3   382  CYS382      0.1677
    123  C        -25.8750   -7.1480  -14.1500 C.2   382  CYS382      0.2270
    124  O        -26.4790   -7.5450  -13.1460 O.2   382  CYS382     -0.2867
    125  CB       -23.5300   -7.9870  -14.3570 C.3   382  CYS382      0.0956
    126  SG       -23.7160   -8.6240  -16.0290 S.3   382  CYS382     -0.0801
    127  N        -21.4000   -3.4170  -15.8920 N.3   397  ARG397     -0.1245
    128  CA       -21.6370   -3.8550  -17.2720 C.3   397  ARG397      0.1563
    129  C        -22.6980   -2.9370  -17.8720 C.2   397  ARG397      0.2260
    130  O        -23.7810   -2.7710  -17.2880 O.2   397  ARG397     -0.2867
    131  CB       -22.1110   -5.2980  -17.2880 C.3   397  ARG397      0.0307
    132  CG       -20.9900   -6.3440  -17.1360 C.3   397  ARG397      0.0489
    133  CD       -20.2750   -6.6190  -18.4620 C.3   397  ARG397      0.2205
    134  NE       -21.2360   -6.9410  -19.5080 N.pl3 397  ARG397     -0.0865
    135  CZ       -21.9780   -8.0390  -19.5420 C.cat 397  ARG397      0.5346
    136  NH1      -21.6420   -9.0820  -18.7810 N.pl3 397  ARG397      0.1354
    137  NH2      -23.0630   -8.1080  -20.3110 N.pl3 397  ARG397      0.1354
    138  N        -24.4780   -9.0730  -23.2380 N.3   401  ASP401     -0.1239
    139  CA       -23.3110   -9.9170  -23.2900 C.3   401  ASP401      0.1674
    140  C        -22.6430   -9.9000  -24.6610 C.2   401  ASP401      0.2266
    141  O        -23.3180   -9.9250  -25.7110 O.2   401  ASP401     -0.2867
    142  CB       -23.6700  -11.3640  -22.9760 C.3   401  ASP401      0.1410
    143  CG       -23.9970  -11.6080  -21.5080 C.2   401  ASP401      0.3668
    144  OD1      -24.1040  -10.6720  -20.6990 O.co2 401  ASP401     -0.2456
    145  OD2      -24.1860  -12.8470  -21.1920 O.co2 401  ASP401     -0.2456
@<TRIPOS>BOND
     1   141   140    2
     2   140   139    1
     3    32    31    2
     4     4     3    2
     5   139   138    1
     6   139   142    1
     7    31    30    1
     8    35    37   ar
     9    35    34   ar
    10    33    30    1
    11    33    34    1
    12   142   143    1
    13    37    39   ar
    14    30    29    1
    15    34    36   ar
    16     3     2    1
    17   143   145   ar
    18   143   144   ar
    19    39    40    1
    20    39    38   ar
    21    36    38   ar
    22     2     5    1
    23     2     1    1
    24    29    17   am
    25     5     6    1
    26    18    17    2
    27    23    21   ar
    28    23    24   ar
    29    17    16    1
    30   137   135    1
    31    21    20   ar
    32     6     7   ar
    33     6     8   ar
    34     7     9   ar
    35    24    26   ar
    36    24    22   ar
    37    26    28   ar
    38   135   134    2
    39   135   136    1
    40   134   133    1
    41    20    22   ar
    42    20    19    1
    43     8    11   ar
    44     8    10   ar
    45     9    10   ar
    46    16    19    1
    47    16    15    1
    48    11    13   ar
    49    22    25   ar
    50    28    27   ar
    51   133   132    1
    52    10    12   ar
    53    77    76    2
    54   129   130    2
    55   129   128    1
    56    25    27   ar
    57    13    14   ar
    58    12    14   ar
    59   131   128    1
    60   131   132    1
    61   128   127    1
    62    76    78   am
    63    76    75    1
    64    72    75    1
    65    72    71    1
    66    72    73    1
    67    79    80    1
    68    79    73   am
    69    81    80    1
    70    81    82    2
    71    80    83    1
    72   101   100    1
    73    73    74    2
    74   126   125    1
    75   119   120   ar
    76   119   117   ar
    77   120   118   ar
    78    48    46   ar
    79   100    99    1
    80    46    47   ar
    81    46    45    1
    82    85    87   ar
    83    85    84   ar
    84   109   107   ar
    85    52    51    2
    86    45    42    1
    87    83    84    1
    88   108   107   ar
    89   117   115   ar
    90    87    88   ar
    91    56    54   ar
    92    84    86   ar
    93   118   116   ar
    94   125   122    1
    95   107   106    1
    96   123   122    1
    97   123   124    2
    98    88    86   ar
    99    88    90   ar
   100   122   121    1
   101    86    89   ar
   102    53    54    1
   103    53    50    1
   104    99    98    1
   105    54    55   ar
   106    51    50    1
   107    90    92   ar
   108    89    91   ar
   109   115   116   ar
   110   115   114    1
   111    49    50    1
   112    49    43   am
   113    42    43    1
   114    42    41    1
   115    65    63   ar
   116    65    66   ar
   117    92    91   ar
   118    43    44    2
   119    63    62   ar
   120   106   103    1
   121    68    66   ar
   122    68    70   ar
   123   110   111    1
   124   110   104   am
   125    98    97    1
   126   111   114    1
   127   111   112    1
   128    66    64   ar
   129    70    69   ar
   130   103   104    1
   131   103   102    1
   132    62    64   ar
   133    62    61    1
   134    64    67   ar
   135   104   105    2
   136   112   113    2
   137    97    94    1
   138    61    58    1
   139    69    67   ar
   140    94    95    1
   141    94    93    1
   142    95    96    2
   143    58    57    1
   144    58    59    1
   145    59    60    2
