@<TRIPOS>MOLECULE
tmp/5m1zA00.pdb
 123 119 0 0 0
SMALL
GASTEIGER

@<TRIPOS>ATOM
      1  N         67.0580    9.7370   15.0260 N.3    79  TYR79      -0.1227
      2  CA        68.4970    9.5140   15.0350 C.3    79  TYR79       0.1736
      3  C         68.8860    8.2770   15.8170 C.2    79  TYR79       0.2595
      4  O         68.1720    7.8530   16.7630 O.2    79  TYR79      -0.2718
      5  CB        69.2380   10.6840   15.6680 C.3    79  TYR79       0.0548
      6  CG        69.3260   11.9830   14.9160 C.ar   79  TYR79      -0.0200
      7  CD1       69.0980   12.0770   13.5490 C.ar   79  TYR79      -0.0009
      8  CD2       69.7520   13.1340   15.5950 C.ar   79  TYR79      -0.0009
      9  CE1       69.1990   13.3000   12.8960 C.ar   79  TYR79       0.0417
     10  CE2       69.8870   14.3500   14.9430 C.ar   79  TYR79       0.0417
     11  CZ        69.5910   14.4250   13.6030 C.ar   79  TYR79       0.1957
     12  OH        69.7620   15.6200   13.0140 O.3    79  TYR79      -0.2866
     13  N         70.0000    7.6940   15.3800 N.am   80  GLN80      -0.1979
     14  CA        70.8020    6.7420   16.1280 C.3    80  GLN80       0.1601
     15  C         70.0620    5.5020   16.5790 C.2    80  GLN80       0.2287
     16  O         70.1100    5.1620   17.7780 O.2    80  GLN80      -0.2864
     17  CB        71.4390    7.4900   17.3010 C.3    80  GLN80       0.0394
     18  CG        72.3100    8.6160   16.7750 C.3    80  GLN80       0.0908
     19  CD        72.1820    9.9270   17.4950 C.2    80  GLN80       0.2608
     20  OE1       71.6400   10.0110   18.5990 O.2    80  GLN80      -0.2717
     21  NE2       72.6380   10.9870   16.8260 N.am   80  GLN80      -0.0878
     22  N         75.2890   19.0330   18.0080 N.3   140  PRO140     -0.2116
     23  CA        76.5010   18.7030   18.7730 C.3   140  PRO140      0.1372
     24  C         77.3720   19.9070   19.1680 C.2   140  PRO140      0.2244
     25  O         78.5860   19.8500   18.9510 O.2   140  PRO140     -0.2868
     26  CB        77.2740   17.7890   17.7850 C.3   140  PRO140      0.0268
     27  CG        76.9170   18.3770   16.4460 C.3   140  PRO140      0.0207
     28  CD        75.4340   18.6700   16.5760 C.3   140  PRO140      0.0892
     29  N         72.4070   11.3060   23.0720 N.3   148  TRP148     -0.1227
     30  CA        72.5640   10.6260   21.8090 C.3   148  TRP148      0.1737
     31  C         73.0620    9.2310   21.9140 C.2   148  TRP148      0.2595
     32  O         73.6940    8.8580   22.8860 O.2   148  TRP148     -0.2718
     33  CB        73.6230   11.2730   20.9590 C.3   148  TRP148      0.0564
     34  CG        73.9190   12.7400   21.0220 C.ar  148  TRP148      0.0003
     35  CD1       74.8120   13.3790   21.8840 C.ar  148  TRP148      0.0946
     36  CD2       73.5060   13.7300   20.0930 C.ar  148  TRP148      0.0152
     37  NE1       74.8950   14.6950   21.5690 N.ar  148  TRP148     -0.2442
     38  CE2       74.1170   14.9420   20.4770 C.ar  148  TRP148      0.0810
     39  CE3       72.5950   13.7470   19.0440 C.ar  148  TRP148      0.0012
     40  CZ2       73.9080   16.1420   19.7810 C.ar  148  TRP148      0.0191
     41  CZ3       72.3760   14.9480   18.3600 C.ar  148  TRP148      0.0001
     42  CH2       73.0300   16.1200   18.7300 C.ar  148  TRP148      0.0015
     43  N         72.8550    8.4690   20.8540 N.am  149  GLU149     -0.1979
     44  CA        73.6800    7.2640   20.5560 C.3   149  GLU149      0.1602
     45  C         73.5690    6.1450   21.5680 C.2   149  GLU149      0.2287
     46  O         74.5620    5.7070   22.1310 O.2   149  GLU149     -0.2864
     47  CB        75.1540    7.6660   20.3160 C.3   149  GLU149      0.0415
     48  CG        75.2890    8.5860   19.0970 C.3   149  GLU149      0.1163
     49  CD        76.3120    9.7100   19.2290 C.2   149  GLU149      0.3649
     50  OE1       76.9910    9.8680   20.2810 O.co2 149  GLU149     -0.2457
     51  OE2       76.4270   10.4470   18.2140 O.co2 149  GLU149     -0.2457
     52  N         80.5610   17.1920   26.3630 N.3   174  GLN174     -0.1245
     53  CA        79.8760   15.9390   26.2550 C.3   174  GLN174      0.1566
     54  C         80.6040   14.9250   27.1500 C.2   174  GLN174      0.2260
     55  O         81.8460   15.0030   27.3230 O.2   174  GLN174     -0.2867
     56  CB        79.8420   15.4620   24.8150 C.3   174  GLN174      0.0367
     57  CG        78.9120   14.2850   24.6310 C.3   174  GLN174      0.0905
     58  CD        78.6960   13.9350   23.1840 C.2   174  GLN174      0.2608
     59  OE1       77.7090   14.3590   22.6000 O.2   174  GLN174     -0.2717
     60  NE2       79.6140   13.1870   22.5960 N.am  174  GLN174     -0.0878
     61  N         85.0060   15.8690   23.8890 N.3   202  ARG202     -0.1245
     62  CA        83.6990   15.2670   23.5360 C.3   202  ARG202      0.1563
     63  C         83.8450   13.7750   23.2720 C.2   202  ARG202      0.2260
     64  O         83.7980   13.3490   22.1240 O.2   202  ARG202     -0.2867
     65  CB        83.0230   15.9760   22.3500 C.3   202  ARG202      0.0307
     66  CG        82.6980   17.4360   22.6110 C.3   202  ARG202      0.0489
     67  CD        82.2120   18.1170   21.3350 C.3   202  ARG202      0.2205
     68  NE        81.0040   17.4630   20.8720 N.pl3 202  ARG202     -0.0865
     69  CZ        79.7750   17.6200   21.4140 C.cat 202  ARG202      0.5346
     70  NH1       79.5150   18.5150   22.3950 N.pl3 202  ARG202      0.1354
     71  NH2       78.7590   16.8780   20.9380 N.pl3 202  ARG202      0.1354
     72  N         82.4050   10.2770   22.7790 N.3   204  GLY204     -0.1210
     73  CA        81.1310   10.0250   22.1370 C.3   204  GLY204      0.1956
     74  C         81.0600    8.6340   21.5740 C.2   204  GLY204      0.2611
     75  O         82.0640    7.9790   21.4240 O.2   204  GLY204     -0.2717
     76  N         79.8390    8.2120   21.2600 N.am  205  MET205     -0.1979
     77  CA        79.5710    7.0540   20.3800 C.3   205  MET205      0.1605
     78  C         80.0580    5.7360   20.9890 C.2   205  MET205      0.2287
     79  O         80.8900    5.0340   20.4240 O.2   205  MET205     -0.2864
     80  CB        80.1260    7.3100   18.9580 C.3   205  MET205      0.0413
     81  CG        79.7970    8.7510   18.5220 C.3   205  MET205      0.0598
     82  SD        79.8500    9.0700   16.7900 S.3   205  MET205     -0.1393
     83  CE        78.4470    8.1140   16.1660 C.3   205  MET205      0.0692
     84  N         84.7540    7.4140   20.5010 N.3   221  GLU221     -0.1245
     85  CA        85.5400    8.4660   19.8570 C.3   221  GLU221      0.1567
     86  C         85.8570    9.4830   20.9460 C.2   221  GLU221      0.2260
     87  O         84.9910    9.8960   21.7440 O.2   221  GLU221     -0.2867
     88  CB        84.8180    9.0820   18.6740 C.3   221  GLU221      0.0388
     89  CG        83.5910    9.8980   19.0010 C.3   221  GLU221      0.1160
     90  CD        83.0230   10.5770   17.7770 C.2   221  GLU221      0.3649
     91  OE1       83.4130   10.2800   16.6440 O.co2 221  GLU221     -0.2457
     92  OE2       82.2200   11.4680   17.9560 O.co2 221  GLU221     -0.2457
     93  N         89.0050   13.2130   16.6320 N.3   236  PHE236     -0.1241
     94  CA        88.1540   12.2320   17.2850 C.3   236  PHE236      0.1605
     95  C         88.8130   10.8610   17.2320 C.2   236  PHE236      0.2264
     96  O         88.2370    9.9030   16.7320 O.2   236  PHE236     -0.2867
     97  CB        86.7530   12.2010   16.6100 C.3   236  PHE236      0.0534
     98  CG        85.9660   13.4510   16.7840 C.ar  236  PHE236     -0.0203
     99  CD1       86.1580   14.5190   15.9620 C.ar  236  PHE236     -0.0042
    100  CD2       85.0200   13.5480   17.7910 C.ar  236  PHE236     -0.0042
    101  CE1       85.4540   15.7000   16.1520 C.ar  236  PHE236     -0.0003
    102  CE2       84.2870   14.7220   17.9770 C.ar  236  PHE236     -0.0003
    103  CZ        84.5070   15.8040   17.1450 C.ar  236  PHE236     -0.0000
    104  N         80.0690    6.7590    8.0320 N.3   316  TYR316     -0.1241
    105  CA        79.8160    7.2520    9.3930 C.3   316  TYR316      0.1605
    106  C         79.2060    6.1180   10.2010 C.2   316  TYR316      0.2264
    107  O         78.2630    5.4470    9.7400 O.2   316  TYR316     -0.2867
    108  CB        78.9190    8.4440    9.3390 C.3   316  TYR316      0.0534
    109  CG        78.6440    9.0640   10.6810 C.ar  316  TYR316     -0.0201
    110  CD1       79.6280    9.7080   11.3540 C.ar  316  TYR316     -0.0009
    111  CD2       77.3770    8.9690   11.2640 C.ar  316  TYR316     -0.0009
    112  CE1       79.3940   10.2720   12.6190 C.ar  316  TYR316      0.0417
    113  CE2       77.1120    9.5350   12.5010 C.ar  316  TYR316      0.0417
    114  CZ        78.1390   10.2100   13.1600 C.ar  316  TYR316      0.1957
    115  OH        77.9130   10.7940   14.3420 O.3   316  TYR316     -0.2866
    116  N         78.2200   11.6140    6.5390 N.3   338  LEU338     -0.1245
    117  CA        77.5920   12.7730    7.1280 C.3   338  LEU338      0.1561
    118  C         77.2450   13.8200    6.0770 C.2   338  LEU338      0.2260
    119  O         77.9270   13.9450    5.0730 O.2   338  LEU338     -0.2867
    120  CB        78.5070   13.4140    8.1940 C.3   338  LEU338      0.0270
    121  CG        78.6560   12.6710    9.5300 C.3   338  LEU338      0.0019
    122  CD1       79.9170   13.1350   10.2420 C.3   338  LEU338      0.0001
    123  CD2       77.5070   12.9140   10.4640 C.3   338  LEU338      0.0001
@<TRIPOS>BOND
     1   119   118    2
     2   118   117    1
     3   116   117    1
     4   117   120    1
     5   104   105    1
     6   120   121    1
     7   108   105    1
     8   108   109    1
     9   105   106    1
    10   121   122    1
    11   121   123    1
    12   107   106    2
    13   109   111   ar
    14   109   110   ar
    15   111   113   ar
    16   110   112   ar
    17   113   114   ar
    18   112   114   ar
    19     9     7   ar
    20     9    11   ar
    21    12    11    1
    22   114   115    1
    23     7     6   ar
    24    11    10   ar
    25     6     8   ar
    26     6     5    1
    27    10     8   ar
    28     1     2    1
    29     2     5    1
    30     2     3    1
    31    13     3   am
    32    13    14    1
    33     3     4    2
    34    99   101   ar
    35    99    98   ar
    36    14    15    1
    37    14    17    1
    38   101   103   ar
    39    83    82    1
    40    27    28    1
    41    27    26    1
    42    28    22    1
    43    15    16    2
    44    97    98    1
    45    97    94    1
    46    93    94    1
    47    91    90   ar
    48    96    95    2
    49    18    17    1
    50    18    19    1
    51    98   100   ar
    52    82    81    1
    53    21    19   am
    54   103   102   ar
    55    95    94    1
    56    19    20    2
    57    90    92   ar
    58    90    89    1
    59    26    23    1
    60   100   102   ar
    61    22    23    1
    62    51    49   ar
    63    41    42   ar
    64    41    39   ar
    65    81    80    1
    66    88    89    1
    67    88    85    1
    68    42    40   ar
    69    23    24    1
    70    25    24    2
    71    80    77    1
    72    39    36   ar
    73    48    49    1
    74    48    47    1
    75    49    50   ar
    76    40    38   ar
    77    85    84    1
    78    85    86    1
    79    36    38   ar
    80    36    34   ar
    81    47    44    1
    82    77    78    1
    83    77    76    1
    84    79    78    2
    85    38    37   ar
    86    44    43    1
    87    44    45    1
    88    43    31   am
    89    68    67    1
    90    68    69    2
    91    71    69    1
    92    86    87    2
    93    33    34    1
    94    33    30    1
    95    34    35   ar
    96    76    74   am
    97    67    66    1
    98    69    70    1
    99    75    74    2
   100    45    46    2
   101    37    35   ar
   102    74    73    1
   103    30    31    1
   104    30    29    1
   105    31    32    2
   106    64    63    2
   107    73    72    1
   108    65    66    1
   109    65    62    1
   110    60    58   am
   111    59    58    2
   112    58    57    1
   113    63    62    1
   114    62    61    1
   115    57    56    1
   116    56    53    1
   117    53    52    1
   118    53    54    1
   119    54    55    2
