@<TRIPOS>MOLECULE
tmp/5m21H00.pdb
 147 145 0 0 0
SMALL
GASTEIGER

@<TRIPOS>ATOM
      1  N        -14.7740   40.6290   10.2360 N.3    67  TRP67      -0.1241
      2  CA       -13.9010   40.7990    9.0670 C.3    67  TRP67       0.1605
      3  C        -13.3500   42.2010    8.9080 C.2    67  TRP67       0.2264
      4  O        -12.7310   42.5000    7.8760 O.2    67  TRP67      -0.2867
      5  CB       -14.6910   40.5000    7.8020 C.3    67  TRP67       0.0550
      6  CG       -15.3430   39.1540    7.7340 C.ar   67  TRP67       0.0003
      7  CD1      -14.9790   37.9990    8.3840 C.ar   67  TRP67       0.0946
      8  CD2      -16.4650   38.8250    6.9240 C.ar   67  TRP67       0.0152
      9  NE1      -15.8400   36.9570    8.0170 N.ar   67  TRP67      -0.2442
     10  CE2      -16.7630   37.4540    7.1340 C.ar   67  TRP67       0.0810
     11  CE3      -17.2610   39.5580    6.0590 C.ar   67  TRP67       0.0012
     12  CZ2      -17.8060   36.8110    6.4780 C.ar   67  TRP67       0.0191
     13  CZ3      -18.3060   38.9110    5.4000 C.ar   67  TRP67       0.0001
     14  CH2      -18.5630   37.5530    5.6170 C.ar   67  TRP67       0.0015
     15  N        -14.1010   43.9390    5.6850 N.3    70  PHE70      -0.1241
     16  CA       -13.8490   42.9170    4.6160 C.3    70  PHE70       0.1605
     17  C        -13.3770   43.6120    3.3730 C.2    70  PHE70       0.2264
     18  O        -12.7870   44.6550    3.4570 O.2    70  PHE70      -0.2867
     19  CB       -15.1770   42.1510    4.3280 C.3    70  PHE70       0.0534
     20  CG       -15.0410   40.7540    3.7440 C.ar   70  PHE70      -0.0203
     21  CD1      -13.9410   39.9400    3.9920 C.ar   70  PHE70      -0.0042
     22  CD2      -16.0940   40.2380    2.9740 C.ar   70  PHE70      -0.0042
     23  CE1      -13.8610   38.6290    3.4630 C.ar   70  PHE70      -0.0003
     24  CE2      -16.0450   38.9310    2.4460 C.ar   70  PHE70      -0.0003
     25  CZ       -14.9120   38.1170    2.6850 C.ar   70  PHE70      -0.0000
     26  N        -18.9620   30.5050    8.0430 N.3   224  TRP224     -0.1227
     27  CA       -18.7950   31.6100    7.0910 C.3   224  TRP224      0.1737
     28  C        -17.7940   32.6400    7.5850 C.2   224  TRP224      0.2595
     29  O        -18.1330   33.7800    7.9170 O.2   224  TRP224     -0.2718
     30  CB       -20.1340   32.2490    6.6990 C.3   224  TRP224      0.0564
     31  CG       -21.1980   31.2930    6.2330 C.ar  224  TRP224      0.0003
     32  CD1      -22.2420   30.7920    6.9680 C.ar  224  TRP224      0.0946
     33  CD2      -21.3640   30.7670    4.9020 C.ar  224  TRP224      0.0152
     34  NE1      -23.0520   30.0030    6.1880 N.ar  224  TRP224     -0.2442
     35  CE2      -22.5350   29.9660    4.9130 C.ar  224  TRP224      0.0810
     36  CE3      -20.6440   30.8990    3.7130 C.ar  224  TRP224      0.0012
     37  CZ2      -22.9900   29.2870    3.7770 C.ar  224  TRP224      0.0191
     38  CZ3      -21.1030   30.2040    2.5680 C.ar  224  TRP224      0.0001
     39  CH2      -22.2550   29.4330    2.6080 C.ar  224  TRP224      0.0015
     40  N        -16.5400   32.2220    7.6460 N.am  225  ASN225     -0.1961
     41  CA       -15.4830   33.0800    8.1740 C.3   225  ASN225      0.1804
     42  C        -14.1790   32.8260    7.5360 C.2   225  ASN225      0.2463
     43  O        -13.3490   32.2280    8.1500 O.2   225  ASN225     -0.2730
     44  CB       -15.2640   32.8570    9.6780 C.3   225  ASN225      0.1195
     45  CG       -14.4400   33.9900   10.3200 C.2   225  ASN225      0.2630
     46  OD1      -14.6220   35.1390    9.9570 O.2   225  ASN225     -0.2716
     47  ND2      -13.5580   33.6700   11.2660 N.am  225  ASN225     -0.0877
     48  N        -13.9820   33.2630    6.3020 N.am  226  PRO226     -0.2727
     49  CA       -12.7500   32.9850    5.5690 C.3   226  PRO226      0.1402
     50  C        -11.5420   33.3520    6.3930 C.2   226  PRO226      0.2269
     51  O        -11.4750   34.4590    6.9590 O.2   226  PRO226     -0.2865
     52  CB       -12.8400   33.9460    4.3810 C.3   226  PRO226      0.0296
     53  CG       -14.2890   34.0330    4.1440 C.3   226  PRO226      0.0237
     54  CD       -14.9430   34.0080    5.4870 C.3   226  PRO226      0.0939
     55  N        -12.8040   28.1010    5.1380 N.3   240  THR240     -0.1218
     56  CA       -13.7490   28.2420    6.2100 C.3   240  THR240      0.1862
     57  C        -14.7500   27.0750    6.1720 C.2   240  THR240      0.2287
     58  O        -14.8730   26.3900    5.1500 O.2   240  THR240     -0.2866
     59  CB       -14.4900   29.5940    6.0350 C.3   240  THR240      0.1770
     60  OG1      -15.5900   29.6440    6.9280 O.3   240  THR240     -0.2211
     61  CG2      -14.9920   29.7510    4.5960 C.3   240  THR240      0.0375
     62  N        -18.7480   26.1480    6.2410 N.3   242  GLU242     -0.1245
     63  CA       -20.0380   26.8090    5.8790 C.3   242  GLU242      0.1567
     64  C        -21.2640   25.9680    6.2950 C.2   242  GLU242      0.2260
     65  O        -21.3030   24.7810    6.0340 O.2   242  GLU242     -0.2867
     66  CB       -20.0800   27.0300    4.3710 C.3   242  GLU242      0.0388
     67  CG       -18.7090   27.2750    3.7680 C.3   242  GLU242      0.1160
     68  CD       -18.1120   28.6080    4.1840 C.2   242  GLU242      0.3649
     69  OE1      -17.9020   28.8620    5.4000 O.co2 242  GLU242     -0.2457
     70  OE2      -17.8260   29.4310    3.2990 O.co2 242  GLU242     -0.2457
     71  N        -24.9290   32.1160    3.9570 N.3   246  LEU246     -0.1245
     72  CA       -24.0250   33.2620    4.1130 C.3   246  LEU246      0.1561
     73  C        -24.8630   34.4750    4.5640 C.2   246  LEU246      0.2260
     74  O        -25.8680   34.8100    3.9150 O.2   246  LEU246     -0.2867
     75  CB       -23.2130   33.5670    2.8400 C.3   246  LEU246      0.0270
     76  CG       -22.3180   34.8150    2.9530 C.3   246  LEU246      0.0019
     77  CD1      -21.2770   34.7810    4.0750 C.3   246  LEU246      0.0001
     78  CD2      -21.5610   35.1150    1.6620 C.3   246  LEU246      0.0001
     79  N        -22.1450   39.2750   -0.7710 N.3   250  HIS250     -0.1241
     80  CA       -20.8670   39.9730   -0.8720 C.3   250  HIS250      0.1621
     81  C        -20.6820   40.5850   -2.2600 C.2   250  HIS250      0.2264
     82  O        -20.7080   39.8480   -3.1930 O.2   250  HIS250     -0.2867
     83  CB       -19.7210   39.0220   -0.5450 C.3   250  HIS250      0.0745
     84  CG       -18.3690   39.6440   -0.6320 C.ar  250  HIS250      0.0817
     85  ND1      -17.2550   38.9360   -1.0270 N.ar  250  HIS250     -0.2268
     86  CD2      -17.9370   40.8950   -0.3570 C.ar  250  HIS250      0.1154
     87  CE1      -16.1990   39.7270   -1.0000 C.ar  250  HIS250      0.1986
     88  NE2      -16.5840   40.9160   -0.5750 N.ar  250  HIS250     -0.2212
     89  N        -12.6740   37.0030   -7.0070 N.3   256  GLU256     -0.1245
     90  CA       -12.2800   35.9970   -6.0010 C.3   256  GLU256      0.1567
     91  C        -12.6510   34.6700   -6.5360 C.2   256  GLU256      0.2260
     92  O        -13.4110   34.5720   -7.5140 O.2   256  GLU256     -0.2867
     93  CB       -12.9750   36.1760   -4.6480 C.3   256  GLU256      0.0388
     94  CG       -14.4280   36.5470   -4.7190 C.3   256  GLU256      0.1160
     95  CD       -15.0050   36.8770   -3.3530 C.2   256  GLU256      0.3649
     96  OE1      -15.8480   37.7940   -3.2660 O.co2 256  GLU256     -0.2457
     97  OE2      -14.6130   36.2370   -2.3660 O.co2 256  GLU256     -0.2457
     98  N        -13.6770   30.4650   -5.5410 N.3   258  PHE258     -0.1241
     99  CA       -14.1270   29.4930   -4.5880 C.3   258  PHE258      0.1605
    100  C        -13.6910   28.0990   -5.0440 C.2   258  PHE258      0.2264
    101  O        -13.8460   27.7410   -6.2210 O.2   258  PHE258     -0.2867
    102  CB       -15.6710   29.4750   -4.5060 C.3   258  PHE258      0.0534
    103  CG       -16.2850   30.7440   -4.0080 C.ar  258  PHE258     -0.0203
    104  CD1      -15.5800   31.6120   -3.1600 C.ar  258  PHE258     -0.0042
    105  CD2      -17.6170   31.0410   -4.3280 C.ar  258  PHE258     -0.0042
    106  CE1      -16.1740   32.7760   -2.6860 C.ar  258  PHE258     -0.0003
    107  CE2      -18.2100   32.2000   -3.8470 C.ar  258  PHE258     -0.0003
    108  CZ       -17.4890   33.0700   -3.0300 C.ar  258  PHE258     -0.0000
    109  N        -24.4620   28.9230   -4.8130 N.3   267  TRP267     -0.1241
    110  CA       -24.3110   30.3350   -4.7280 C.3   267  TRP267      0.1605
    111  C        -25.3920   31.0500   -5.5050 C.2   267  TRP267      0.2264
    112  O        -25.5270   30.8650   -6.7200 O.2   267  TRP267     -0.2867
    113  CB       -22.9430   30.7660   -5.2610 C.3   267  TRP267      0.0550
    114  CG       -21.8410   30.1550   -4.4780 C.ar  267  TRP267      0.0003
    115  CD1      -21.2150   28.9660   -4.7340 C.ar  267  TRP267      0.0946
    116  CD2      -21.2680   30.6590   -3.2650 C.ar  267  TRP267      0.0152
    117  NE1      -20.2690   28.7140   -3.7770 N.ar  267  TRP267     -0.2442
    118  CE2      -20.2810   29.7360   -2.8590 C.ar  267  TRP267      0.0810
    119  CE3      -21.4740   31.8120   -2.4930 C.ar  267  TRP267      0.0012
    120  CZ2      -19.5130   29.9270   -1.7100 C.ar  267  TRP267      0.0191
    121  CZ3      -20.6940   32.0140   -1.3440 C.ar  267  TRP267      0.0001
    122  CH2      -19.7320   31.0910   -0.9700 C.ar  267  TRP267      0.0015
    123  N        -22.7780   37.8190   -4.1640 N.3   297  HIS297     -0.1241
    124  CA       -23.0560   36.3850   -4.0100 C.3   297  HIS297      0.1621
    125  C        -23.3930   36.0420   -2.5760 C.2   297  HIS297      0.2264
    126  O        -22.9020   36.6750   -1.6680 O.2   297  HIS297     -0.2867
    127  CB       -21.8580   35.5460   -4.4910 C.3   297  HIS297      0.0745
    128  CG       -20.5470   36.1450   -4.1430 C.ar  297  HIS297      0.0817
    129  ND1      -19.8460   36.9680   -5.0160 N.ar  297  HIS297     -0.2268
    130  CD2      -19.8360   36.1170   -2.9870 C.ar  297  HIS297      0.1154
    131  CE1      -18.7540   37.4090   -4.4060 C.ar  297  HIS297      0.1986
    132  NE2      -18.7210   36.8960   -3.1850 N.ar  297  HIS297     -0.2212
    133  N        -14.8300   24.9790    2.4970 N.3   307  LEU307     -0.1245
    134  CA       -14.7220   25.8140    1.3290 C.3   307  LEU307      0.1561
    135  C        -13.4110   26.5550    1.4430 C.2   307  LEU307      0.2260
    136  O        -13.0150   26.9720    2.5420 O.2   307  LEU307     -0.2867
    137  CB       -15.8820   26.8290    1.2600 C.3   307  LEU307      0.0270
    138  CG       -15.7550   28.0130    0.2590 C.3   307  LEU307      0.0019
    139  CD1      -15.8480   27.6100   -1.2010 C.3   307  LEU307      0.0001
    140  CD2      -16.7910   29.0830    0.5670 C.3   307  LEU307      0.0001
    141  N        -11.8320   29.9060    0.1170 N.3   309  VAL309     -0.1245
    142  CA       -12.0450   31.1510   -0.5770 C.3   309  VAL309      0.1561
    143  C        -10.6440   31.6600   -0.9090 C.2   309  VAL309      0.2260
    144  O         -9.7730   31.7760   -0.0150 O.2   309  VAL309     -0.2867
    145  CB       -12.8120   32.1430    0.3110 C.3   309  VAL309      0.0252
    146  CG1      -12.7900   33.5460   -0.2730 C.3   309  VAL309      0.0019
    147  CG2      -14.2440   31.6650    0.5550 C.3   309  VAL309      0.0019
@<TRIPOS>BOND
     1    92    91    2
     2    89    90    1
     3   112   111    2
     4    91    90    1
     5   101   100    2
     6    90    93    1
     7    98    99    1
     8   111   110    1
     9   113   110    1
    10   113   114    1
    11   100    99    1
    12   129   131   ar
    13   129   128   ar
    14   109   110    1
    15   115   114   ar
    16   115   117   ar
    17    94    93    1
    18    94    95    1
    19    99   102    1
    20   102   103    1
    21   127   128    1
    22   127   124    1
    23   114   116   ar
    24   131   132   ar
    25   105   103   ar
    26   105   107   ar
    27   123   124    1
    28   128   130   ar
    29   124   125    1
    30   103   104   ar
    31   107   108   ar
    32   117   118   ar
    33    95    96   ar
    34    95    97   ar
    35   116   118   ar
    36   116   119   ar
    37    82    81    2
    38   132   130   ar
    39   104   106   ar
    40   108   106   ar
    41   118   120   ar
    42   125   126    2
    43   119   121   ar
    44    81    80    1
    45   120   122   ar
    46   121   122   ar
    47   139   138    1
    48    85    87   ar
    49    85    84   ar
    50    87    88   ar
    51   143   142    1
    52   143   144    2
    53    80    79    1
    54    80    83    1
    55    84    83    1
    56    84    86   ar
    57   142   141    1
    58   142   145    1
    59    88    86   ar
    60   146   145    1
    61   138   140    1
    62   138   137    1
    63   145   147    1
    64   137   134    1
    65   134   135    1
    66   134   133    1
    67   135   136    2
    68    78    76    1
    69    24    25   ar
    70    24    22   ar
    71    38    39   ar
    72    38    36   ar
    73    39    37   ar
    74    25    23   ar
    75    75    76    1
    76    75    72    1
    77    76    77    1
    78    22    20   ar
    79    70    68   ar
    80    17    18    2
    81    17    16    1
    82    23    21   ar
    83    36    33   ar
    84    20    21   ar
    85    20    19    1
    86    67    68    1
    87    67    66    1
    88    37    35   ar
    89    74    73    2
    90    71    72    1
    91    72    73    1
    92    53    52    1
    93    53    54    1
    94    68    69   ar
    95    19    16    1
    96    66    63    1
    97    52    49    1
    98    61    59    1
    99    16    15    1
   100    33    35   ar
   101    33    31   ar
   102    35    34   ar
   103    55    56    1
   104    58    57    2
   105    13    14   ar
   106    13    11   ar
   107    54    48    1
   108    49    48    1
   109    49    50    1
   110    14    12   ar
   111    63    62    1
   112    63    64    1
   113    65    64    2
   114    59    56    1
   115    59    60    1
   116    11     8   ar
   117    57    56    1
   118    34    32   ar
   119    31    30    1
   120    31    32   ar
   121    48    42   am
   122    50    51    2
   123    12    10   ar
   124    30    27    1
   125     8    10   ar
   126     8     6   ar
   127    27    28    1
   128    27    26    1
   129    10     9   ar
   130    42    43    2
   131    42    41    1
   132    28    40   am
   133    28    29    2
   134    40    41    1
   135     6     5    1
   136     6     7   ar
   137     5     2    1
   138     4     3    2
   139     9     7   ar
   140    41    44    1
   141     3     2    1
   142     2     1    1
   143    44    45    1
   144    46    45    2
   145    45    47   am
