@<TRIPOS>MOLECULE
tmp/5m23A00.pdb
 182 176 0 0 0
SMALL
GASTEIGER

@<TRIPOS>ATOM
      1  N         -0.5340   28.0530    2.3270 N.3    15  ALA15      -0.1231
      2  CA        -1.3350   27.0100    1.7260 C.3    15  ALA15       0.1694
      3  C         -1.8470   27.3770    0.3360 C.2    15  ALA15       0.2592
      4  O         -2.3350   28.4830    0.1160 O.2    15  ALA15      -0.2718
      5  CB        -2.5210   26.7050    2.6690 C.3    15  ALA15       0.0304
      6  N         -1.7720   26.4430   -0.5990 N.am   16  VAL16      -0.1966
      7  CA        -2.3560   26.6590   -1.9180 C.3    16  VAL16       0.1727
      8  C         -3.7810   26.1450   -1.8180 C.2    16  VAL16       0.2616
      9  O         -4.0390   25.1440   -1.1540 O.2    16  VAL16      -0.2715
     10  CB        -1.5620   25.9630   -3.0340 C.3    16  VAL16       0.0290
     11  CG1       -2.2120   26.1850   -4.3960 C.3    16  VAL16       0.0023
     12  CG2       -0.0670   26.4290   -3.0060 C.3    16  VAL16       0.0023
     13  N         -4.7290   26.8750   -2.3870 N.am   17  SER17      -0.1950
     14  CA        -6.1020   26.5130   -2.1320 C.3    17  SER17       0.1924
     15  C         -6.7360   25.8980   -3.3700 C.2    17  SER17       0.2314
     16  O         -7.6740   25.1030   -3.2760 O.2    17  SER17      -0.2863
     17  CB        -6.8860   27.7730   -1.6880 C.3    17  SER17       0.2116
     18  OG        -6.7760   28.7220   -2.7220 O.3    17  SER17      -0.2180
     19  N         -3.7120   30.9390    0.3720 N.3    33  ALA33      -0.1245
     20  CA        -3.9680   31.6380    1.6390 C.3    33  ALA33       0.1562
     21  C         -3.0840   32.8770    1.8100 C.2    33  ALA33       0.2260
     22  O         -3.3510   33.7160    2.6970 O.2    33  ALA33      -0.2867
     23  CB        -3.7490   30.7060    2.8100 C.3    33  ALA33       0.0290
     24  N         -6.9870   35.8280    2.3220 N.3    57  GLY57      -0.1210
     25  CA        -6.6300   34.6480    1.5560 C.3    57  GLY57       0.1956
     26  C         -7.6880   34.2990    0.5330 C.2    57  GLY57       0.2612
     27  O         -8.8810   34.6310    0.6990 O.2    57  GLY57      -0.2717
     28  N         -7.2560   33.6150   -0.5230 N.am   58  ILE58      -0.1965
     29  CA        -8.1240   33.2580   -1.6400 C.3    58  ILE58       0.1727
     30  C         -8.4150   31.7450   -1.6540 C.2    58  ILE58       0.2617
     31  O         -7.4900   30.9390   -1.6000 O.2    58  ILE58      -0.2715
     32  CB        -7.4760   33.6590   -2.9540 C.3    58  ILE58       0.0290
     33  CG1       -7.1760   35.1480   -2.9760 C.3    58  ILE58       0.0022
     34  CG2       -8.3100   33.2550   -4.1260 C.3    58  ILE58       0.0023
     35  CD1       -6.1980   35.5030   -4.0870 C.3    58  ILE58       0.0001
     36  N         -9.6890   31.3690   -1.7500 N.am   59  SER59      -0.1936
     37  CA       -10.0610   29.9580   -1.7190 C.3    59  SER59       0.2055
     38  C        -10.2910   29.3260   -3.0850 C.2    59  SER59       0.2643
     39  O        -10.4710   28.1030   -3.1740 O.2    59  SER59      -0.2714
     40  CB       -11.3360   29.7660   -0.9010 C.3    59  SER59       0.2130
     41  OG       -11.0750   29.9220    0.4660 O.3    59  SER59      -0.2179
     42  N        -10.3600   30.1360   -4.1360 N.am   60  ASP60      -0.1971
     43  CA       -10.6940   29.5930   -5.4400 C.3    60  ASP60       0.1709
     44  C        -10.4340   30.5890   -6.5230 C.2    60  ASP60       0.2293
     45  O        -10.5330   31.8020   -6.3090 O.2    60  ASP60      -0.2864
     46  CB       -12.2000   29.1510   -5.4960 C.3    60  ASP60       0.1436
     47  CG       -12.5100   28.2260   -6.6740 C.2    60  ASP60       0.3671
     48  OD1      -11.5680   27.6830   -7.3210 O.co2  60  ASP60      -0.2456
     49  OD2      -13.7120   27.9770   -6.9250 O.co2  60  ASP60      -0.2456
     50  N        -11.6500   35.3230    1.2370 N.3    75  ASP75      -0.1239
     51  CA       -12.1190   35.5220    2.6110 C.3    75  ASP75       0.1674
     52  C        -12.4820   36.9760    2.8950 C.2    75  ASP75       0.2266
     53  O        -13.1520   37.2330    3.8950 O.2    75  ASP75      -0.2867
     54  CB       -11.0800   35.1270    3.6650 C.3    75  ASP75       0.1410
     55  CG       -10.8600   33.6160    3.7570 C.2    75  ASP75       0.3668
     56  OD1      -11.5480   32.8630    3.0450 O.co2  75  ASP75      -0.2456
     57  OD2       -9.9730   33.1880    4.5360 O.co2  75  ASP75      -0.2456
     58  N        -17.0310   34.9430    3.9010 N.3    99  TYR99      -0.1241
     59  CA       -16.0430   34.3880    2.9680 C.3    99  TYR99       0.1605
     60  C        -16.6450   33.9130    1.6550 C.2    99  TYR99       0.2264
     61  O        -17.5890   33.1430    1.6440 O.2    99  TYR99      -0.2867
     62  CB       -15.3240   33.1910    3.5940 C.3    99  TYR99       0.0534
     63  CG       -14.8890   33.3760    5.0140 C.ar   99  TYR99      -0.0201
     64  CD1      -15.0220   32.3320    5.9060 C.ar   99  TYR99      -0.0009
     65  CD2      -14.3330   34.5740    5.4660 C.ar   99  TYR99      -0.0009
     66  CE1      -14.6130   32.4550    7.2140 C.ar   99  TYR99       0.0417
     67  CE2      -13.9270   34.7190    6.7950 C.ar   99  TYR99       0.0417
     68  CZ       -14.0850   33.6350    7.6610 C.ar   99  TYR99       0.1957
     69  OH       -13.7190   33.6750    8.9900 O.3    99  TYR99      -0.2866
     70  N        -16.2200   31.3520   -1.1230 N.3   101  PHE101     -0.1227
     71  CA       -15.5420   30.0650   -1.0790 C.3   101  PHE101      0.1736
     72  C        -15.2100   29.4730   -2.4590 C.2   101  PHE101      0.2595
     73  O        -14.1780   28.8230   -2.6220 O.2   101  PHE101     -0.2718
     74  CB       -16.3950   29.0420   -0.2710 C.3   101  PHE101      0.0547
     75  CG       -15.6050   27.8750    0.2440 C.ar  101  PHE101     -0.0202
     76  CD1      -14.7140   28.0280    1.3080 C.ar  101  PHE101     -0.0042
     77  CD2      -15.7590   26.6090   -0.3290 C.ar  101  PHE101     -0.0042
     78  CE1      -13.9780   26.8990    1.7950 C.ar  101  PHE101     -0.0003
     79  CE2      -15.0390   25.4960    0.1390 C.ar  101  PHE101     -0.0003
     80  CZ       -14.1620   25.6460    1.2130 C.ar  101  PHE101     -0.0000
     81  N        -16.0690   29.7170   -3.4490 N.am  102  CYS102     -0.1970
     82  CA       -15.9690   29.0430   -4.7430 C.3   102  CYS102      0.1712
     83  C        -16.5420   29.9410   -5.8310 C.2   102  CYS102      0.2296
     84  O        -17.3590   30.8570   -5.5480 O.2   102  CYS102     -0.2864
     85  CB       -16.7230   27.6730   -4.7260 C.3   102  CYS102      0.0983
     86  SG       -18.4130   27.8670   -4.0810 S.3   102  CYS102     -0.0798
     87  N        -19.8190   31.3190    2.5190 N.3   117  PHE117     -0.1241
     88  CA       -20.1520   30.9230    3.8880 C.3   117  PHE117      0.1605
     89  C        -21.4420   31.5840    4.3600 C.2   117  PHE117      0.2264
     90  O        -22.0040   31.1550    5.3610 O.2   117  PHE117     -0.2867
     91  CB       -19.0180   31.2880    4.8530 C.3   117  PHE117      0.0534
     92  CG       -18.0630   30.1510    5.1150 C.ar  117  PHE117     -0.0203
     93  CD1      -17.4730   29.4650    4.0480 C.ar  117  PHE117     -0.0042
     94  CD2      -17.7640   29.7610    6.4140 C.ar  117  PHE117     -0.0042
     95  CE1      -16.6050   28.3890    4.2730 C.ar  117  PHE117     -0.0003
     96  CE2      -16.8660   28.7140    6.6520 C.ar  117  PHE117     -0.0003
     97  CZ       -16.3010   28.0260    5.5750 C.ar  117  PHE117     -0.0000
     98  N        -20.1720   25.0210   -0.6170 N.3   143  SER143     -0.1217
     99  CA       -18.8300   24.4740   -0.7960 C.3   143  SER143      0.1889
    100  C        -18.4050   24.5400   -2.2590 C.2   143  SER143      0.2288
    101  O        -17.2370   24.7390   -2.5250 O.2   143  SER143     -0.2866
    102  CB       -18.7590   23.0570   -0.2410 C.3   143  SER143      0.2089
    103  OG       -19.7160   22.2060   -0.8620 O.3   143  SER143     -0.2183
    104  N        -18.7950   18.4420    0.0270 N.3   186  SER186     -0.1202
    105  CA       -17.6320   19.3420    0.0250 C.3   186  SER186      0.2020
    106  C        -17.2190   19.7480   -1.3820 C.2   186  SER186      0.2618
    107  O        -16.3910   20.6070   -1.5550 O.2   186  SER186     -0.2717
    108  CB       -16.4570   18.6550    0.7250 C.3   186  SER186      0.2103
    109  OG       -16.2430   17.3680    0.1620 O.3   186  SER186     -0.2182
    110  N        -17.7940   19.1210   -2.3870 N.am  187  PHE187     -0.1975
    111  CA       -17.4650   19.4550   -3.7470 C.3   187  PHE187      0.1639
    112  C        -18.4790   18.8870   -4.7130 C.2   187  PHE187      0.2290
    113  O        -19.0160   17.8080   -4.4850 O.2   187  PHE187     -0.2864
    114  CB       -16.0780   18.9240   -4.1310 C.3   187  PHE187      0.0560
    115  CG       -15.6900   19.3130   -5.5140 C.ar  187  PHE187     -0.0200
    116  CD1      -15.3050   20.6200   -5.7870 C.ar  187  PHE187     -0.0042
    117  CD2      -15.8060   18.4110   -6.5590 C.ar  187  PHE187     -0.0042
    118  CE1      -14.9490   21.0140   -7.0750 C.ar  187  PHE187     -0.0003
    119  CE2      -15.4790   18.8030   -7.8520 C.ar  187  PHE187     -0.0003
    120  CZ       -15.0450   20.1030   -8.1120 C.ar  187  PHE187     -0.0000
    121  N        -11.7790   18.5150    4.6320 N.3   228  TYR228     -0.1227
    122  CA       -11.4990   19.6110    3.7050 C.3   228  TYR228      0.1736
    123  C        -12.3800   19.5420    2.4840 C.2   228  TYR228      0.2596
    124  O        -12.8220   18.4590    2.1100 O.2   228  TYR228     -0.2718
    125  CB       -10.0150   19.5720    3.2860 C.3   228  TYR228      0.0548
    126  CG        -9.1100   19.9380    4.4310 C.ar  228  TYR228     -0.0200
    127  CD1       -8.4650   18.9460    5.1760 C.ar  228  TYR228     -0.0009
    128  CD2       -8.9520   21.2640    4.8120 C.ar  228  TYR228     -0.0009
    129  CE1       -7.6470   19.2850    6.2500 C.ar  228  TYR228      0.0417
    130  CE2       -8.1400   21.6240    5.8790 C.ar  228  TYR228      0.0417
    131  CZ        -7.4900   20.6270    6.5970 C.ar  228  TYR228      0.1957
    132  OH        -6.6920   20.9740    7.6660 O.3   228  TYR228     -0.2866
    133  N        -12.6380   20.6880    1.8740 N.am  229  CYS229     -0.1956
    134  CA       -13.3280   20.7420    0.5820 C.3   229  CYS229      0.1843
    135  C        -12.2940   20.5860   -0.5220 C.2   229  CYS229      0.2625
    136  O        -11.6920   21.5620   -0.9910 O.2   229  CYS229     -0.2714
    137  CB       -14.0950   22.0410    0.4200 C.3   229  CYS229      0.0997
    138  SG       -15.3920   22.1910    1.6260 S.3   229  CYS229     -0.0797
    139  N        -12.0930   19.3280   -0.9010 N.am  230  ILE230     -0.1963
    140  CA       -11.1110   18.9270   -1.8780 C.3   230  ILE230      0.1727
    141  C        -11.7300   18.8790   -3.2760 C.2   230  ILE230      0.2616
    142  O        -12.7540   18.2150   -3.4690 O.2   230  ILE230     -0.2715
    143  CB       -10.5560   17.5490   -1.4890 C.3   230  ILE230      0.0290
    144  CG1       -9.8450   17.6700   -0.1370 C.3   230  ILE230      0.0022
    145  CG2       -9.6240   16.9550   -2.5880 C.3   230  ILE230      0.0023
    146  CD1       -9.1970   16.3310    0.3280 C.3   230  ILE230      0.0001
    147  N        -11.1040   19.5430   -4.2510 N.am  231  PHE231     -0.1974
    148  CA       -11.5410   19.4100   -5.6400 C.3   231  PHE231      0.1639
    149  C        -11.4270   17.9820   -6.2320 C.2   231  PHE231      0.2290
    150  O        -10.4110   17.2860   -6.0320 O.2   231  PHE231     -0.2864
    151  CB       -10.7240   20.3590   -6.5210 C.3   231  PHE231      0.0560
    152  CG       -11.0090   21.8250   -6.2810 C.ar  231  PHE231     -0.0200
    153  CD1      -10.3090   22.5400   -5.2950 C.ar  231  PHE231     -0.0042
    154  CD2      -11.9200   22.5030   -7.0830 C.ar  231  PHE231     -0.0042
    155  CE1      -10.5460   23.9430   -5.0790 C.ar  231  PHE231     -0.0003
    156  CE2      -12.1750   23.8800   -6.8830 C.ar  231  PHE231     -0.0003
    157  CZ       -11.4750   24.5960   -5.8870 C.ar  231  PHE231     -0.0000
    158  N         -5.4120   19.4220   -1.4610 N.3   273  ILE273     -0.1245
    159  CA        -6.6570   20.1750   -1.5000 C.3   273  ILE273      0.1561
    160  C         -7.2630   20.2770   -2.9170 C.2   273  ILE273      0.2260
    161  O         -8.4630   20.3930   -3.0820 O.2   273  ILE273     -0.2867
    162  CB        -6.4350   21.6060   -0.9360 C.3   273  ILE273      0.0252
    163  CG1       -7.7920   22.3030   -0.6020 C.3   273  ILE273      0.0019
    164  CG2       -5.5950   22.4790   -1.9210 C.3   273  ILE273      0.0019
    165  CD1       -8.6980   21.5010    0.3950 C.3   273  ILE273      0.0001
    166  N         -1.6550   21.9020    1.1380 N.3   289  LEU289     -0.1231
    167  CA        -1.9430   22.8700    2.1880 C.3   289  LEU289      0.1693
    168  C         -0.6760   23.3470    2.8800 C.2   289  LEU289      0.2591
    169  O          0.4110   23.1540    2.3640 O.2   289  LEU289     -0.2718
    170  CB        -2.9190   22.2650    3.2060 C.3   289  LEU289      0.0284
    171  CG        -4.3150   22.0190    2.5890 C.3   289  LEU289      0.0019
    172  CD1       -5.3280   21.5180    3.6110 C.3   289  LEU289      0.0001
    173  CD2       -4.8530   23.3010    1.9390 C.3   289  LEU289      0.0001
    174  N         -0.8430   23.9870    4.0360 N.am  290  GLU290     -0.1979
    175  CA         0.1400   24.9220    4.5690 C.3   290  GLU290      0.1602
    176  C          1.5510   24.2940    4.7670 C.2   290  GLU290      0.2287
    177  O          2.5690   24.9530    4.6090 O.2   290  GLU290     -0.2864
    178  CB        -0.3860   25.4870    5.8790 C.3   290  GLU290      0.0415
    179  CG         0.5260   26.5080    6.5350 C.3   290  GLU290      0.1163
    180  CD         0.5370   27.8970    5.8520 C.2   290  GLU290      0.3649
    181  OE1       -0.4420   28.2930    5.1380 O.co2 290  GLU290     -0.2457
    182  OE2        1.5430   28.6010    6.0590 O.co2 290  GLU290     -0.2457
@<TRIPOS>BOND
     1   120   119   ar
     2   120   118   ar
     3   119   117   ar
     4    48    47   ar
     5   154   156   ar
     6   154   152   ar
     7   118   116   ar
     8    49    47   ar
     9   156   157   ar
    10    47    46    1
    11   117   115   ar
    12    44    45    2
    13    44    43    1
    14   151   152    1
    15   151   148    1
    16   152   153   ar
    17   149   150    2
    18   149   148    1
    19   157   155   ar
    20    83    84    2
    21    83    82    1
    22   116   115   ar
    23   148   147    1
    24   115   114    1
    25    46    43    1
    26    43    42    1
    27   153   155   ar
    28    82    85    1
    29    82    81    1
    30    85    86    1
    31   112   113    2
    32   112   111    1
    33    11    10    1
    34   147   141   am
    35    42    38   am
    36   114   111    1
    37    34    32    1
    38    35    33    1
    39   111   110    1
    40   142   141    2
    41    81    72   am
    42    15    16    2
    43    15    14    1
    44   141   140    1
    45    39    38    2
    46    38    37    1
    47   161   160    2
    48    10    12    1
    49    10     7    1
    50    33    32    1
    51    32    29    1
    52   160   159    1
    53    18    17    1
    54    73    72    2
    55   145   143    1
    56   101   100    2
    57    72    71    1
    58    13    14    1
    59    13     8   am
    60   110   106   am
    61   100    99    1
    62    14    17    1
    63   164   162    1
    64     7     8    1
    65     7     6    1
    66   140   143    1
    67   140   139    1
    68     8     9    2
    69    36    37    1
    70    36    30   am
    71    37    40    1
    72    30    29    1
    73    30    31    2
    74    29    28    1
    75   107   106    2
    76   159   158    1
    77   159   162    1
    78   143   144    1
    79   106   105    1
    80    70    71    1
    81    71    74    1
    82   136   135    2
    83   162   163    1
    84   139   135   am
    85    40    41    1
    86   103   102    1
    87    99    98    1
    88    99   102    1
    89   163   165    1
    90     6     3   am
    91    28    26   am
    92   135   134    1
    93    77    79   ar
    94    77    75   ar
    95    74    75    1
    96   144   146    1
    97   105   104    1
    98   105   108    1
    99     4     3    2
   100    79    80   ar
   101   109   108    1
   102    75    76   ar
   103     3     2    1
   104    19    20    1
   105   137   134    1
   106   137   138    1
   107    26    27    2
   108    26    25    1
   109   134   133    1
   110   166   167    1
   111    80    78   ar
   112    50    51    1
   113    76    78   ar
   114    25    24    1
   115    20    21    1
   116    20    23    1
   117    61    60    2
   118    60    59    1
   119     2     1    1
   120     2     5    1
   121    21    22    2
   122   133   123   am
   123   173   171    1
   124   124   123    2
   125   167   168    1
   126   167   170    1
   127   169   168    2
   128   123   122    1
   129    87    88    1
   130   171   170    1
   131   171   172    1
   132    51    52    1
   133    51    54    1
   134   168   174   am
   135    52    53    2
   136    59    62    1
   137    59    58    1
   138    56    55   ar
   139   125   122    1
   140   125   126    1
   141    62    63    1
   142    54    55    1
   143   122   121    1
   144    55    57   ar
   145    88    89    1
   146    88    91    1
   147   174   175    1
   148    93    95   ar
   149    93    92   ar
   150    95    97   ar
   151    89    90    2
   152   126   128   ar
   153   126   127   ar
   154   175   176    1
   155   175   178    1
   156   177   176    2
   157   128   130   ar
   158    91    92    1
   159    63    65   ar
   160    63    64   ar
   161    92    94   ar
   162   181   180   ar
   163   127   129   ar
   164    65    67   ar
   165    97    96   ar
   166   180   182   ar
   167   180   179    1
   168   130   131   ar
   169   178   179    1
   170    64    66   ar
   171   129   131   ar
   172    94    96   ar
   173   131   132    1
   174    67    68   ar
   175    66    68   ar
   176    68    69    1
