@<TRIPOS>MOLECULE
tmp/5m25A00.pdb
 203 194 0 0 0
SMALL
GASTEIGER

@<TRIPOS>ATOM
      1  N         -0.5940   28.1550    2.2240 N.3    15  ALA15      -0.1245
      2  CA        -1.3270   27.0440    1.6150 C.3    15  ALA15       0.1562
      3  C         -1.9220   27.4050    0.2750 C.2    15  ALA15       0.2260
      4  O         -2.4990   28.4730    0.1150 O.2    15  ALA15      -0.2867
      5  CB        -2.4260   26.5740    2.5290 C.3    15  ALA15       0.0290
      6  N         -4.8660   26.8780   -2.2310 N.3    17  SER17      -0.1217
      7  CA        -6.2350   26.4920   -1.9960 C.3    17  SER17       0.1889
      8  C         -6.7990   25.8240   -3.2340 C.2    17  SER17       0.2288
      9  O         -7.6460   24.9390   -3.1330 O.2    17  SER17      -0.2866
     10  CB        -7.0860   27.7090   -1.5940 C.3    17  SER17       0.2089
     11  OG        -7.0330   28.7380   -2.5730 O.3    17  SER17      -0.2183
     12  N         -3.7590   31.0200    0.3560 N.3    33  ALA33      -0.1245
     13  CA        -4.0070   31.7190    1.5930 C.3    33  ALA33       0.1562
     14  C         -3.0730   32.9160    1.7300 C.2    33  ALA33       0.2260
     15  O         -3.3360   33.8080    2.5390 O.2    33  ALA33      -0.2867
     16  CB        -3.8410   30.7740    2.7760 C.3    33  ALA33       0.0290
     17  N         -6.9970   35.8700    2.2360 N.3    57  GLY57      -0.1210
     18  CA        -6.6490   34.6970    1.4600 C.3    57  GLY57       0.1956
     19  C         -7.6850   34.3760    0.4090 C.2    57  GLY57       0.2612
     20  O         -8.8150   34.8440    0.4720 O.2    57  GLY57      -0.2717
     21  N         -7.2920   33.5560   -0.5510 N.am   58  ILE58      -0.1965
     22  CA        -8.1480   33.1670   -1.6530 C.3    58  ILE58       0.1727
     23  C         -8.4830   31.6780   -1.5580 C.2    58  ILE58       0.2617
     24  O         -7.5960   30.8650   -1.3320 O.2    58  ILE58      -0.2715
     25  CB        -7.4650   33.4720   -2.9820 C.3    58  ILE58       0.0290
     26  CG1       -7.0870   34.9520   -3.0280 C.3    58  ILE58       0.0022
     27  CG2       -8.3540   33.1030   -4.1490 C.3    58  ILE58       0.0023
     28  CD1       -6.0630   35.2910   -4.0920 C.3    58  ILE58       0.0001
     29  N         -9.7610   31.3280   -1.7050 N.am   59  SER59      -0.1936
     30  CA       -10.1770   29.9270   -1.6350 C.3    59  SER59       0.2055
     31  C        -10.3740   29.3010   -3.0080 C.2    59  SER59       0.2643
     32  O        -10.4210   28.0750   -3.1270 O.2    59  SER59      -0.2714
     33  CB       -11.4770   29.7670   -0.8430 C.3    59  SER59       0.2130
     34  OG       -11.2500   29.8100    0.5560 O.3    59  SER59      -0.2179
     35  N        -10.4920   30.1220   -4.0490 N.am   60  ASP60      -0.1971
     36  CA       -10.8270   29.5660   -5.3550 C.3    60  ASP60       0.1709
     37  C        -10.5070   30.5100   -6.5000 C.2    60  ASP60       0.2293
     38  O        -10.4120   31.7150   -6.3210 O.2    60  ASP60      -0.2864
     39  CB       -12.3180   29.1900   -5.4020 C.3    60  ASP60       0.1436
     40  CG       -12.6270   28.1500   -6.4800 C.2    60  ASP60       0.3671
     41  OD1      -11.6750   27.7440   -7.2000 O.co2  60  ASP60      -0.2456
     42  OD2      -13.8160   27.7370   -6.5980 O.co2  60  ASP60      -0.2456
     43  N        -11.6970   35.4460    1.1800 N.3    75  ASP75      -0.1239
     44  CA       -12.2340   35.6210    2.5230 C.3    75  ASP75       0.1674
     45  C        -12.5310   37.0970    2.8270 C.2    75  ASP75       0.2266
     46  O        -13.1420   37.3980    3.8530 O.2    75  ASP75      -0.2867
     47  CB       -11.2670   35.0740    3.5900 C.3    75  ASP75       0.1410
     48  CG       -11.1090   33.5480    3.5440 C.2    75  ASP75       0.3668
     49  OD1      -11.8690   32.8600    2.8280 O.co2  75  ASP75      -0.2456
     50  OD2      -10.2120   33.0290    4.2470 O.co2  75  ASP75      -0.2456
     51  N        -17.2150   34.9710    3.8520 N.3    99  TYR99      -0.1241
     52  CA       -16.2200   34.3520    2.9790 C.3    99  TYR99       0.1605
     53  C        -16.7770   33.8120    1.6670 C.2    99  TYR99       0.2264
     54  O        -17.6600   32.9680    1.6620 O.2    99  TYR99      -0.2867
     55  CB       -15.5250   33.1950    3.7020 C.3    99  TYR99       0.0534
     56  CG       -15.0120   33.4880    5.0940 C.ar   99  TYR99      -0.0201
     57  CD1      -14.9870   32.4830    6.0570 C.ar   99  TYR99      -0.0009
     58  CD2      -14.5510   34.7560    5.4540 C.ar   99  TYR99      -0.0009
     59  CE1      -14.5220   32.7240    7.3380 C.ar   99  TYR99       0.0417
     60  CE2      -14.0880   35.0100    6.7430 C.ar   99  TYR99       0.0417
     61  CZ       -14.0790   33.9830    7.6810 C.ar   99  TYR99       0.1957
     62  OH       -13.6230   34.1950    8.9670 O.3    99  TYR99      -0.2866
     63  N        -16.3700   31.3310   -1.1510 N.3   101  PHE101     -0.1227
     64  CA       -15.6730   30.0560   -1.0810 C.3   101  PHE101      0.1736
     65  C        -15.3190   29.5180   -2.4710 C.2   101  PHE101      0.2595
     66  O        -14.2170   29.0280   -2.6920 O.2   101  PHE101     -0.2718
     67  CB       -16.5330   29.0620   -0.3160 C.3   101  PHE101      0.0547
     68  CG       -15.7950   27.8690    0.1830 C.ar  101  PHE101     -0.0202
     69  CD1      -14.9990   27.9550    1.3180 C.ar  101  PHE101     -0.0042
     70  CD2      -15.9140   26.6450   -0.4590 C.ar  101  PHE101     -0.0042
     71  CE1      -14.3140   26.8370    1.8000 C.ar  101  PHE101     -0.0003
     72  CE2      -15.2370   25.5200    0.0120 C.ar  101  PHE101     -0.0003
     73  CZ       -14.4360   25.6150    1.1430 C.ar  101  PHE101     -0.0000
     74  N        -16.2430   29.6470   -3.4120 N.am  102  CYS102     -0.1970
     75  CA       -16.0950   29.0320   -4.7210 C.3   102  CYS102      0.1712
     76  C        -16.5620   29.9820   -5.8000 C.2   102  CYS102      0.2296
     77  O        -17.3690   30.8630   -5.5310 O.2   102  CYS102     -0.2864
     78  CB       -16.8960   27.7250   -4.7780 C.3   102  CYS102      0.0983
     79  SG       -18.4970   27.8480   -3.9400 S.3   102  CYS102     -0.0798
     80  N        -19.9910   31.4640    2.4960 N.3   117  PHE117     -0.1241
     81  CA       -20.3320   31.0680    3.8590 C.3   117  PHE117      0.1605
     82  C        -21.5840   31.7890    4.3610 C.2   117  PHE117      0.2264
     83  O        -22.0440   31.5030    5.4620 O.2   117  PHE117     -0.2867
     84  CB       -19.1660   31.3420    4.8170 C.3   117  PHE117      0.0534
     85  CG       -18.2340   30.1770    5.0020 C.ar  117  PHE117     -0.0203
     86  CD1      -17.6140   29.5780    3.9130 C.ar  117  PHE117     -0.0042
     87  CD2      -17.9520   29.6990    6.2750 C.ar  117  PHE117     -0.0042
     88  CE1      -16.7530   28.5090    4.0820 C.ar  117  PHE117     -0.0003
     89  CE2      -17.0740   28.6380    6.4550 C.ar  117  PHE117     -0.0003
     90  CZ       -16.4770   28.0380    5.3540 C.ar  117  PHE117     -0.0000
     91  N        -20.2410   25.0790   -0.5570 N.3   143  SER143     -0.1217
     92  CA       -18.8970   24.5620   -0.7690 C.3   143  SER143      0.1889
     93  C        -18.4610   24.6050   -2.2190 C.2   143  SER143      0.2288
     94  O        -17.2680   24.6890   -2.4870 O.2   143  SER143     -0.2866
     95  CB       -18.7780   23.1190   -0.2420 C.3   143  SER143      0.2089
     96  OG       -19.7180   22.2380   -0.8410 O.3   143  SER143     -0.2183
     97  N        -22.3920   22.1690    3.1620 N.3   159  TYR159     -0.1241
     98  CA       -22.2720   21.4360    4.4120 C.3   159  TYR159      0.1605
     99  C        -23.6290   20.9510    4.9360 C.2   159  TYR159      0.2264
    100  O        -23.6770   20.0440    5.7510 O.2   159  TYR159     -0.2867
    101  CB       -21.6030   22.2960    5.4890 C.3   159  TYR159      0.0534
    102  CG       -20.1580   22.7040    5.2460 C.ar  159  TYR159     -0.0201
    103  CD1      -19.6850   23.9210    5.7300 C.ar  159  TYR159     -0.0009
    104  CD2      -19.2590   21.8770    4.5730 C.ar  159  TYR159     -0.0009
    105  CE1      -18.3730   24.3120    5.5420 C.ar  159  TYR159      0.0417
    106  CE2      -17.9280   22.2670    4.3830 C.ar  159  TYR159      0.0417
    107  CZ       -17.5030   23.4860    4.8710 C.ar  159  TYR159      0.1957
    108  OH       -16.2110   23.9140    4.6980 O.3   159  TYR159     -0.2866
    109  N        -22.1420   16.1800    4.9340 N.3   184  PRO184     -0.2116
    110  CA       -21.8770   17.4380    4.2390 C.3   184  PRO184      0.1372
    111  C        -21.3290   17.2080    2.8280 C.2   184  PRO184      0.2244
    112  O        -20.5020   16.2920    2.6530 O.2   184  PRO184     -0.2868
    113  CB       -20.8130   18.1040    5.1370 C.3   184  PRO184      0.0268
    114  CG       -21.0470   17.5490    6.5090 C.3   184  PRO184      0.0207
    115  CD       -21.5140   16.1230    6.2630 C.3   184  PRO184      0.0892
    116  N        -18.8660   18.3760    0.1140 N.3   186  SER186     -0.1202
    117  CA       -17.6910   19.2290    0.1590 C.3   186  SER186      0.2020
    118  C        -17.3520   19.6920   -1.2300 C.2   186  SER186      0.2618
    119  O        -16.6320   20.6570   -1.4040 O.2   186  SER186     -0.2717
    120  CB       -16.5080   18.4780    0.7740 C.3   186  SER186      0.2103
    121  OG       -16.3350   17.2010    0.1670 O.3   186  SER186     -0.2182
    122  N        -17.8750   18.9930   -2.2260 N.am  187  PHE187     -0.1975
    123  CA       -17.5840   19.3430   -3.6030 C.3   187  PHE187      0.1639
    124  C        -18.6090   18.8030   -4.5880 C.2   187  PHE187      0.2290
    125  O        -19.1870   17.7410   -4.3750 O.2   187  PHE187     -0.2864
    126  CB       -16.2050   18.8340   -4.0080 C.3   187  PHE187      0.0560
    127  CG       -15.8170   19.2380   -5.3950 C.ar  187  PHE187     -0.0200
    128  CD1      -15.4620   20.5590   -5.6700 C.ar  187  PHE187     -0.0042
    129  CD2      -15.8450   18.3200   -6.4350 C.ar  187  PHE187     -0.0042
    130  CE1      -15.1240   20.9530   -6.9520 C.ar  187  PHE187     -0.0003
    131  CE2      -15.5040   18.7050   -7.7280 C.ar  187  PHE187     -0.0003
    132  CZ       -15.1430   20.0280   -7.9830 C.ar  187  PHE187     -0.0000
    133  N        -17.8990   14.4700    3.0620 N.3   202  LEU202     -0.1245
    134  CA       -17.0100   14.2930    4.1910 C.3   202  LEU202      0.1561
    135  C        -17.2230   12.9600    4.9080 C.2   202  LEU202      0.2260
    136  O        -17.0390   12.8620    6.1130 O.2   202  LEU202     -0.2867
    137  CB       -17.1680   15.4650    5.1600 C.3   202  LEU202      0.0270
    138  CG       -16.8630   16.8170    4.5000 C.3   202  LEU202      0.0019
    139  CD1      -16.7080   17.9330    5.5290 C.3   202  LEU202      0.0001
    140  CD2      -15.6220   16.7120    3.6350 C.3   202  LEU202      0.0001
    141  N        -12.5210   13.8190    5.3910 N.3   226  GLU226     -0.1231
    142  CA       -13.4760   14.0290    6.4650 C.3   226  GLU226      0.1699
    143  C        -13.5500   15.4780    6.9220 C.2   226  GLU226      0.2592
    144  O        -14.3220   15.8030    7.8180 O.2   226  GLU226     -0.2718
    145  CB       -13.1340   13.1330    7.6550 C.3   226  GLU226      0.0402
    146  CG       -13.0690   11.6520    7.2910 C.3   226  GLU226      0.1161
    147  CD       -13.0550   10.7290    8.5100 C.2   226  GLU226      0.3649
    148  OE1      -12.3760   11.0740    9.5080 O.co2 226  GLU226     -0.2457
    149  OE2      -13.7300    9.6650    8.4630 O.co2 226  GLU226     -0.2457
    150  N        -12.7680   16.3580    6.3100 N.am  227  LYS227     -0.1966
    151  CA       -12.6540   17.7040    6.8560 C.3   227  LYS227      0.1728
    152  C        -12.5560   18.8240    5.8210 C.2   227  LYS227      0.2616
    153  O        -13.0650   19.9160    6.0430 O.2   227  LYS227     -0.2715
    154  CB       -11.4500   17.7510    7.7930 C.3   227  LYS227      0.0311
    155  CG       -11.0730   19.1250    8.2980 C.3   227  LYS227      0.0038
    156  CD        -9.8240   19.0380    9.1730 C.3   227  LYS227      0.0206
    157  CE        -9.3040   20.4100    9.5750 C.3   227  LYS227      0.1093
    158  NZ        -7.9570   20.3230   10.2300 N.3   227  LYS227     -0.1314
    159  N        -11.9090   18.5730    4.6930 N.am  228  TYR228     -0.1960
    160  CA       -11.6570   19.6580    3.7580 C.3   228  TYR228      0.1771
    161  C        -12.5260   19.5630    2.5220 C.2   228  TYR228      0.2619
    162  O        -12.9730   18.4940    2.1380 O.2   228  TYR228     -0.2715
    163  CB       -10.1790   19.6780    3.3570 C.3   228  TYR228      0.0574
    164  CG        -9.2560   20.0030    4.5090 C.ar  228  TYR228     -0.0198
    165  CD1       -8.6310   18.9890    5.2330 C.ar  228  TYR228     -0.0009
    166  CD2       -9.0250   21.3230    4.8870 C.ar  228  TYR228     -0.0009
    167  CE1       -7.7950   19.2860    6.2990 C.ar  228  TYR228      0.0417
    168  CE2       -8.2030   21.6280    5.9540 C.ar  228  TYR228      0.0417
    169  CZ        -7.5860   20.6040    6.6520 C.ar  228  TYR228      0.1957
    170  OH        -6.7710   20.8980    7.7120 O.3   228  TYR228     -0.2866
    171  N        -12.7610   20.6960    1.8870 N.am  229  CYS229     -0.1968
    172  CA       -13.4450   20.6800    0.6090 C.3   229  CYS229      0.1712
    173  C        -12.4110   20.4810   -0.4950 C.2   229  CYS229      0.2296
    174  O        -11.8260   21.4220   -1.0050 O.2   229  CYS229     -0.2864
    175  CB       -14.2510   21.9590    0.4150 C.3   229  CYS229      0.0983
    176  SG       -15.3510   22.2730    1.8110 S.3   229  CYS229     -0.0798
    177  N        -11.2450   19.4860   -4.1430 N.3   231  PHE231     -0.1241
    178  CA       -11.6560   19.4400   -5.5430 C.3   231  PHE231      0.1605
    179  C        -11.4850   18.0230   -6.1060 C.2   231  PHE231      0.2264
    180  O        -10.4900   17.3490   -5.8200 O.2   231  PHE231     -0.2867
    181  CB       -10.8390   20.4170   -6.3960 C.3   231  PHE231      0.0534
    182  CG       -11.1110   21.8800   -6.1320 C.ar  231  PHE231     -0.0203
    183  CD1      -10.3520   22.5940   -5.2000 C.ar  231  PHE231     -0.0042
    184  CD2      -12.0810   22.5640   -6.8550 C.ar  231  PHE231     -0.0042
    185  CE1      -10.5820   23.9610   -4.9700 C.ar  231  PHE231     -0.0003
    186  CE2      -12.3220   23.9290   -6.6250 C.ar  231  PHE231     -0.0003
    187  CZ       -11.5670   24.6230   -5.6870 C.ar  231  PHE231     -0.0000
    188  N         -5.5340   19.3840   -1.2510 N.3   273  ILE273     -0.1245
    189  CA        -6.7760   20.1150   -1.3040 C.3   273  ILE273      0.1561
    190  C         -7.3360   20.1760   -2.7190 C.2   273  ILE273      0.2260
    191  O         -8.5420   20.2410   -2.8990 O.2   273  ILE273     -0.2867
    192  CB        -6.5990   21.5730   -0.7800 C.3   273  ILE273      0.0252
    193  CG1       -7.9510   22.2680   -0.6050 C.3   273  ILE273      0.0019
    194  CG2       -5.7390   22.4060   -1.7170 C.3   273  ILE273      0.0019
    195  CD1       -8.8900   21.5910    0.4010 C.3   273  ILE273      0.0001
    196  N         -1.7930   21.8960    1.3290 N.3   289  LEU289     -0.1245
    197  CA        -2.0220   22.8770    2.3710 C.3   289  LEU289      0.1561
    198  C         -0.7290   23.3530    3.0090 C.2   289  LEU289      0.2260
    199  O          0.3550   23.0880    2.5060 O.2   289  LEU289     -0.2867
    200  CB        -2.9500   22.3010    3.4450 C.3   289  LEU289      0.0270
    201  CG        -4.3240   21.8910    2.9070 C.3   289  LEU289      0.0019
    202  CD1       -5.2830   21.5100    4.0360 C.3   289  LEU289      0.0001
    203  CD2       -4.9190   23.0040    2.0400 C.3   289  LEU289      0.0001
@<TRIPOS>BOND
     1   132   131   ar
     2   132   130   ar
     3   131   129   ar
     4    41    40   ar
     5   130   128   ar
     6   184   186   ar
     7   184   182   ar
     8   186   187   ar
     9    42    40   ar
    10    37    38    2
    11    37    36    1
    12    40    39    1
    13   129   127   ar
    14   181   182    1
    15   181   178    1
    16   182   183   ar
    17   179   180    2
    18   179   178    1
    19    76    77    2
    20    76    75    1
    21   187   185   ar
    22   128   127   ar
    23   178   177    1
    24    39    36    1
    25   127   126    1
    26    36    35    1
    27   183   185   ar
    28    78    75    1
    29    78    79    1
    30    75    74    1
    31   124   125    2
    32   124   123    1
    33    27    25    1
    34    28    26    1
    35    35    31   am
    36   126   123    1
    37   123   122    1
    38    74    65   am
    39     8     9    2
    40     8     7    1
    41    32    31    2
    42    26    25    1
    43    31    30    1
    44    25    22    1
    45   191   190    2
    46   190   189    1
    47    66    65    2
    48    11    10    1
    49    94    93    2
    50    65    64    1
    51     6     7    1
    52   122   118   am
    53    93    92    1
    54     7    10    1
    55   194   192    1
    56    29    30    1
    57    29    23   am
    58    22    23    1
    59    22    21    1
    60    30    33    1
    61    23    24    2
    62   119   118    2
    63   189   188    1
    64   189   192    1
    65   118   117    1
    66    63    64    1
    67    64    67    1
    68   174   173    2
    69    33    34    1
    70    96    95    1
    71   192   193    1
    72    92    91    1
    73    92    95    1
    74   193   195    1
    75    21    19   am
    76   173   172    1
    77    70    72   ar
    78    70    68   ar
    79    67    68    1
    80    72    73   ar
    81   116   117    1
    82     4     3    2
    83   117   120    1
    84   121   120    1
    85    68    69   ar
    86     3     2    1
    87    12    13    1
    88    19    20    2
    89    19    18    1
    90   175   172    1
    91   175   176    1
    92   172   171    1
    93    73    71   ar
    94    43    44    1
    95    69    71   ar
    96   196   197    1
    97    18    17    1
    98    13    14    1
    99    13    16    1
   100     2     1    1
   101     2     5    1
   102    54    53    2
   103    53    52    1
   104    14    15    2
   105   171   161   am
   106   203   201    1
   107   162   161    2
   108   197   198    1
   109   197   200    1
   110    80    81    1
   111   199   198    2
   112   161   160    1
   113    44    45    1
   114    44    47    1
   115   112   111    2
   116    45    46    2
   117   111   110    1
   118    49    48   ar
   119   201   200    1
   120   201   202    1
   121    52    55    1
   122    52    51    1
   123   133   134    1
   124    97    98    1
   125   163   160    1
   126   163   164    1
   127    48    47    1
   128    48    50   ar
   129   140   138    1
   130    55    56    1
   131   160   159    1
   132    81    82    1
   133    81    84    1
   134    86    88   ar
   135    86    85   ar
   136    88    90   ar
   137   134   135    1
   138   134   137    1
   139   110   109    1
   140   110   113    1
   141    82    83    2
   142   106   104   ar
   143   106   107   ar
   144    98    99    1
   145    98   101    1
   146   138   137    1
   147   138   139    1
   148   164   166   ar
   149   164   165   ar
   150   104   102   ar
   151   159   152   am
   152   108   107    1
   153    84    85    1
   154   107   105   ar
   155   166   168   ar
   156   135   136    2
   157   109   115    1
   158    99   100    2
   159    85    87   ar
   160    56    58   ar
   161    56    57   ar
   162   113   114    1
   163   165   167   ar
   164   102   101    1
   165   102   103   ar
   166    90    89   ar
   167   141   142    1
   168    58    60   ar
   169   105   103   ar
   170   152   153    2
   171   152   151    1
   172   168   169   ar
   173    57    59   ar
   174   115   114    1
   175    87    89   ar
   176   167   169   ar
   177   150   151    1
   178   150   143   am
   179   142   143    1
   180   142   145    1
   181   169   170    1
   182    60    61   ar
   183   151   154    1
   184   143   144    2
   185   146   145    1
   186   146   147    1
   187    59    61   ar
   188    61    62    1
   189   154   155    1
   190   155   156    1
   191   149   147   ar
   192   147   148   ar
   193   156   157    1
   194   157   158    1
