@<TRIPOS>MOLECULE
tmp/5m26B00.pdb
 154 151 0 0 0
SMALL
GASTEIGER

@<TRIPOS>ATOM
      1  N         23.9010   -8.8080   42.5560 N.3    66  TRP66      -0.1241
      2  CA        23.0930   -9.7250   43.3870 C.3    66  TRP66       0.1605
      3  C         22.4520   -9.0520   44.5930 C.2    66  TRP66       0.2264
      4  O         21.7550   -9.7060   45.3830 O.2    66  TRP66      -0.2867
      5  CB        23.9590  -10.8760   43.8920 C.3    66  TRP66       0.0550
      6  CG        24.6040  -11.6890   42.8300 C.ar   66  TRP66       0.0003
      7  CD1       24.2120  -11.8150   41.5230 C.ar   66  TRP66       0.0946
      8  CD2       25.7470  -12.5330   42.9930 C.ar   66  TRP66       0.0152
      9  NE1       25.0730  -12.6660   40.8590 N.ar   66  TRP66      -0.2442
     10  CE2       26.0190  -13.1230   41.7320 C.ar   66  TRP66       0.0810
     11  CE3       26.5960  -12.8200   44.0710 C.ar   66  TRP66       0.0012
     12  CZ2       27.0880  -14.0030   41.5240 C.ar   66  TRP66       0.0191
     13  CZ3       27.6570  -13.7130   43.8660 C.ar   66  TRP66       0.0001
     14  CH2       27.8900  -14.2820   42.5850 C.ar   66  TRP66       0.0015
     15  N         23.3800  -10.7590   47.6330 N.3    69  PHE69      -0.1241
     16  CA        23.1160  -12.2060   47.4970 C.3    69  PHE69       0.1605
     17  C         22.5780  -12.8220   48.7990 C.2    69  PHE69       0.2264
     18  O         21.8570  -12.1590   49.5290 O.2    69  PHE69      -0.2867
     19  CB        24.3880  -12.9340   46.9640 C.3    69  PHE69       0.0534
     20  CG        24.0940  -14.2120   46.2090 C.ar   69  PHE69      -0.0203
     21  CD1       22.8900  -14.3740   45.5220 C.ar   69  PHE69      -0.0042
     22  CD2       25.0280  -15.2480   46.1680 C.ar   69  PHE69      -0.0042
     23  CE1       22.5990  -15.5470   44.8410 C.ar   69  PHE69      -0.0003
     24  CE2       24.7470  -16.4180   45.4630 C.ar   69  PHE69      -0.0003
     25  CZ        23.5280  -16.5760   44.8050 C.ar   69  PHE69      -0.0000
     26  N         27.9750  -16.2590   35.5410 N.3   223  TRP223     -0.1227
     27  CA        27.8830  -16.3960   37.0010 C.3   223  TRP223      0.1737
     28  C         26.8720  -15.3870   37.5690 C.2   223  TRP223      0.2595
     29  O         27.2270  -14.4860   38.3320 O.2   223  TRP223     -0.2718
     30  CB        29.2520  -16.2430   37.6660 C.3   223  TRP223      0.0564
     31  CG        30.3510  -17.1610   37.1410 C.ar  223  TRP223      0.0003
     32  CD1       31.4150  -16.7930   36.3580 C.ar  223  TRP223      0.0946
     33  CD2       30.5170  -18.5930   37.3850 C.ar  223  TRP223      0.0152
     34  NE1       32.2210  -17.8860   36.1120 N.ar  223  TRP223     -0.2442
     35  CE2       31.7000  -18.9940   36.7180 C.ar  223  TRP223      0.0810
     36  CE3       29.8010  -19.5470   38.1130 C.ar  223  TRP223      0.0012
     37  CZ2       32.1700  -20.3230   36.7350 C.ar  223  TRP223      0.0191
     38  CZ3       30.2740  -20.8840   38.1360 C.ar  223  TRP223      0.0001
     39  CH2       31.4440  -21.2430   37.4590 C.ar  223  TRP223      0.0015
     40  N         25.6210  -15.5410   37.1460 N.am  224  ASN224     -0.1961
     41  CA        24.5570  -14.6380   37.5420 C.3   224  ASN224      0.1804
     42  C         23.2340  -15.3820   37.7210 C.2   224  ASN224      0.2463
     43  O         22.3490  -15.2760   36.8890 O.2   224  ASN224     -0.2730
     44  CB        24.4090  -13.4880   36.5390 C.3   224  ASN224      0.1195
     45  CG        23.5860  -12.3240   37.1000 C.2   224  ASN224      0.2630
     46  OD1       23.6870  -11.9880   38.2880 O.2   224  ASN224     -0.2716
     47  ND2       22.7450  -11.7300   36.2590 N.am  224  ASN224     -0.0877
     48  N         23.0850  -16.1220   38.8210 N.am  225  PRO225     -0.2727
     49  CA        21.8380  -16.8770   39.0330 C.3   225  PRO225      0.1402
     50  C         20.6450  -15.9390   38.8750 C.2   225  PRO225      0.2269
     51  O         20.6250  -14.8670   39.4930 O.2   225  PRO225     -0.2865
     52  CB        21.9710  -17.3330   40.4810 C.3   225  PRO225      0.0296
     53  CG        23.4520  -17.4710   40.6840 C.3   225  PRO225      0.0237
     54  CD        23.9900  -16.2460   39.9750 C.3   225  PRO225      0.0939
     55  N         21.8300  -19.9930   34.9890 N.3   239  THR239     -0.1218
     56  CA        22.8470  -18.9920   34.6100 C.3   239  THR239      0.1862
     57  C         23.8360  -19.6380   33.6190 C.2   239  THR239      0.2287
     58  O         23.8920  -20.8660   33.5180 O.2   239  THR239     -0.2866
     59  CB        23.5380  -18.3930   35.8750 C.3   239  THR239      0.1770
     60  OG1       24.6660  -17.5720   35.5080 O.3   239  THR239     -0.2211
     61  CG2       23.9790  -19.4780   36.8720 C.3   239  THR239      0.0375
     62  N         27.8440  -20.1180   32.8110 N.3   241  GLU241     -0.1245
     63  CA        29.0740  -20.0030   33.5980 C.3   241  GLU241      0.1567
     64  C         30.2700  -20.2460   32.7020 C.2   241  GLU241      0.2260
     65  O         30.2640  -21.1770   31.9110 O.2   241  GLU241     -0.2867
     66  CB        29.1080  -21.0610   34.7030 C.3   241  GLU241      0.0388
     67  CG        27.7870  -21.3220   35.4370 C.3   241  GLU241      0.1160
     68  CD        27.2870  -20.1200   36.2170 C.2   241  GLU241      0.3649
     69  OE1       27.2410  -19.0150   35.6510 O.co2 241  GLU241     -0.2457
     70  OE2       26.9170  -20.2610   37.4070 O.co2 241  GLU241     -0.2457
     71  N         33.9750  -18.6530   39.0970 N.3   245  LEU245     -0.1245
     72  CA        33.0300  -17.8630   39.9020 C.3   245  LEU245      0.1561
     73  C         33.8720  -16.8130   40.6430 C.2   245  LEU245      0.2260
     74  O         34.8420  -17.1920   41.2980 O.2   245  LEU245     -0.2867
     75  CB        32.3070  -18.7520   40.8980 C.3   245  LEU245      0.0270
     76  CG        31.3810  -18.0000   41.8610 C.3   245  LEU245      0.0019
     77  CD1       30.2850  -17.2540   41.1050 C.3   245  LEU245      0.0001
     78  CD2       30.7970  -19.0270   42.8220 C.3   245  LEU245      0.0001
     79  N         33.6410  -15.1370   43.2420 N.3   247  VAL247     -0.1245
     80  CA        33.6350  -15.1620   44.7030 C.3   247  VAL247      0.1561
     81  C         33.6790  -16.6040   45.2550 C.2   247  VAL247      0.2260
     82  O         33.4480  -17.5570   44.5140 O.2   247  VAL247     -0.2867
     83  CB        32.3970  -14.4380   45.2570 C.3   247  VAL247      0.0252
     84  CG1       32.2910  -12.9990   44.6990 C.3   247  VAL247      0.0019
     85  CG2       31.1220  -15.2490   44.9930 C.3   247  VAL247      0.0019
     86  N         31.2920  -18.4720   47.6800 N.3   249  HIS249     -0.1241
     87  CA        30.0130  -18.2150   48.2930 C.3   249  HIS249      0.1621
     88  C         29.7980  -19.0810   49.5100 C.2   249  HIS249      0.2264
     89  O         29.8020  -20.2990   49.4050 O.2   249  HIS249     -0.2867
     90  CB        28.9020  -18.4870   47.3220 C.3   249  HIS249      0.0745
     91  CG        27.5560  -18.2200   47.8930 C.ar  249  HIS249      0.0817
     92  ND1       26.4520  -18.9810   47.5850 N.ar  249  HIS249     -0.2268
     93  CD2       27.1270  -17.2480   48.7290 C.ar  249  HIS249      0.1154
     94  CE1       25.3970  -18.4890   48.2100 C.ar  249  HIS249      0.1986
     95  NE2       25.7850  -17.4450   48.9160 N.ar  249  HIS249     -0.2212
     96  N         21.9020  -24.9730   49.4830 N.3   255  GLU255     -0.1245
     97  CA        21.4890  -24.6350   48.1120 C.3   255  GLU255      0.1567
     98  C         21.8910  -25.7780   47.1770 C.2   255  GLU255      0.2260
     99  O         22.7640  -26.5820   47.5160 O.2   255  GLU255     -0.2867
    100  CB        22.0420  -23.2620   47.6920 C.3   255  GLU255      0.0388
    101  CG        23.3800  -23.3260   47.0290 C.3   255  GLU255      0.1160
    102  CD        24.0720  -21.9770   46.8930 C.2   255  GLU255      0.3649
    103  OE1       23.5220  -20.9090   47.2510 O.co2 255  GLU255     -0.2457
    104  OE2       25.1890  -21.9930   46.4010 O.co2 255  GLU255     -0.2457
    105  N         22.8240  -27.3690   43.1310 N.3   257  PHE257     -0.1241
    106  CA        23.2880  -27.1580   41.7690 C.3   257  PHE257      0.1605
    107  C         22.8750  -28.3180   40.8880 C.2   257  PHE257      0.2264
    108  O         23.2520  -29.4790   41.1580 O.2   257  PHE257     -0.2867
    109  CB        24.8200  -27.1300   41.7590 C.3   257  PHE257      0.0534
    110  CG        25.4260  -25.9670   42.4640 C.ar  257  PHE257     -0.0203
    111  CD1       24.7870  -24.7270   42.4930 C.ar  257  PHE257     -0.0042
    112  CD2       26.6830  -26.0920   43.0730 C.ar  257  PHE257     -0.0042
    113  CE1       25.3730  -23.6450   43.1300 C.ar  257  PHE257     -0.0003
    114  CE2       27.2670  -25.0100   43.7040 C.ar  257  PHE257     -0.0003
    115  CZ        26.5990  -23.7740   43.7320 C.ar  257  PHE257     -0.0000
    116  N         33.5980  -27.7050   41.4000 N.3   266  TRP266     -0.1241
    117  CA        33.3930  -26.8250   42.5530 C.3   266  TRP266      0.1605
    118  C         34.4950  -27.0950   43.5720 C.2   266  TRP266      0.2264
    119  O         34.6950  -28.2510   44.0120 O.2   266  TRP266     -0.2867
    120  CB        32.0210  -27.0620   43.2010 C.3   266  TRP266      0.0550
    121  CG        30.8900  -26.7570   42.2630 C.ar  266  TRP266      0.0003
    122  CD1       30.1880  -27.6490   41.4980 C.ar  266  TRP266      0.0946
    123  CD2       30.3410  -25.4560   41.9740 C.ar  266  TRP266      0.0152
    124  NE1       29.2430  -26.9870   40.7530 N.ar  266  TRP266     -0.2442
    125  CE2       29.3170  -25.6430   41.0200 C.ar  266  TRP266      0.0810
    126  CE3       30.6330  -24.1540   42.4160 C.ar  266  TRP266      0.0012
    127  CZ2       28.5570  -24.5790   40.5100 C.ar  266  TRP266      0.0191
    128  CZ3       29.8610  -23.0740   41.8970 C.ar  266  TRP266      0.0001
    129  CH2       28.8490  -23.3050   40.9630 C.ar  266  TRP266      0.0015
    130  N         31.8910  -22.2580   48.4270 N.3   296  HIS296     -0.1241
    131  CA        32.1820  -22.9400   47.1680 C.3   296  HIS296      0.1621
    132  C         32.5600  -21.9480   46.0970 C.2   296  HIS296      0.2264
    133  O         32.0860  -20.7960   46.1100 O.2   296  HIS296     -0.2867
    134  CB        30.9670  -23.7630   46.7060 C.3   296  HIS296      0.0745
    135  CG        29.6620  -23.0540   46.8860 C.ar  296  HIS296      0.0817
    136  ND1       28.9400  -23.1210   48.0540 N.ar  296  HIS296     -0.2268
    137  CD2       28.9640  -22.2390   46.0600 C.ar  296  HIS296      0.1154
    138  CE1       27.8460  -22.3860   47.9430 C.ar  296  HIS296      0.1986
    139  NE2       27.8440  -21.8260   46.7460 N.ar  296  HIS296     -0.2212
    140  N         23.9870  -23.9020   34.0500 N.3   306  LEU306     -0.1245
    141  CA        23.8610  -24.3990   35.4330 C.3   306  LEU306      0.1561
    142  C         22.5310  -23.9200   35.9850 C.2   306  LEU306      0.2260
    143  O         22.1640  -22.7670   35.7690 O.2   306  LEU306     -0.2867
    144  CB        24.9870  -23.8360   36.2870 C.3   306  LEU306      0.0270
    145  CG        24.8740  -24.0440   37.8000 C.3   306  LEU306      0.0019
    146  CD1       25.1060  -25.5100   38.1870 C.3   306  LEU306      0.0001
    147  CD2       25.8720  -23.1040   38.4640 C.3   306  LEU306      0.0001
    148  N         20.9150  -23.0540   39.4350 N.3   308  VAL308     -0.1245
    149  CA        21.1150  -22.8770   40.8640 C.3   308  VAL308      0.1561
    150  C         19.7060  -22.8590   41.4720 C.2   308  VAL308      0.2260
    151  O         18.8380  -22.0770   41.0360 O.2   308  VAL308     -0.2867
    152  CB        21.8920  -21.5780   41.1930 C.3   308  VAL308      0.0252
    153  CG1       21.9580  -21.3310   42.7010 C.3   308  VAL308      0.0019
    154  CG2       23.3020  -21.6600   40.6230 C.3   308  VAL308      0.0019
@<TRIPOS>BOND
     1    65    64    2
     2    64    63    1
     3    62    63    1
     4    58    57    2
     5    63    66    1
     6    57    56    1
     7   140   141    1
     8    56    55    1
     9    56    59    1
    10    66    67    1
    11   141   142    1
    12   141   144    1
    13    67    68    1
    14    60    59    1
    15    26    27    1
    16    69    68   ar
    17   143   142    2
    18    59    61    1
    19    34    32   ar
    20    34    35   ar
    21    68    70   ar
    22    47    45   am
    23   144   145    1
    24    32    31   ar
    25    44    45    1
    26    44    41    1
    27    35    37   ar
    28    35    33   ar
    29    37    39   ar
    30    43    42    2
    31    27    28    1
    32    27    30    1
    33    45    46    2
    34    31    33   ar
    35    31    30    1
    36    40    41    1
    37    40    28   am
    38    33    36   ar
    39    39    38   ar
    40    41    42    1
    41    28    29    2
    42    42    48   am
    43   145   146    1
    44   145   147    1
    45    36    38   ar
    46    48    49    1
    47    48    54    1
    48    50    49    1
    49    50    51    2
    50    49    52    1
    51    71    72    1
    52   148   149    1
    53    72    73    1
    54    72    75    1
    55    54    53    1
    56    52    53    1
    57   127   129   ar
    58   127   125   ar
    59   154   152    1
    60    73    74    2
    61   124   125   ar
    62   124   122   ar
    63     9     7   ar
    64     9    10   ar
    65   149   152    1
    66   149   150    1
    67   107   108    2
    68   107   106    1
    69    75    76    1
    70   129   128   ar
    71   125   123   ar
    72   151   150    2
    73    77    76    1
    74   152   153    1
    75   116   117    1
    76   122   121   ar
    77     7     6   ar
    78    12    10   ar
    79    12    14   ar
    80    10     8   ar
    81   109   106    1
    82   109   110    1
    83   106   105    1
    84    76    78    1
    85   128   126   ar
    86   123   121   ar
    87   123   126   ar
    88   121   120    1
    89   110   111   ar
    90   110   112   ar
    91   111   113   ar
    92   117   120    1
    93   117   118    1
    94     1     2    1
    95    14    13   ar
    96     6     8   ar
    97     6     5    1
    98     8    11   ar
    99   112   114   ar
   100   113   115   ar
   101    79    80    1
   102     2     5    1
   103     2     3    1
   104   118   119    2
   105   114   115   ar
   106    13    11   ar
   107    82    81    2
   108     3     4    2
   109    84    83    1
   110    80    81    1
   111    80    83    1
   112    25    23   ar
   113    25    24   ar
   114    23    21   ar
   115    85    83    1
   116    24    22   ar
   117    21    20   ar
   118   137   139   ar
   119   137   135   ar
   120   132   133    2
   121   132   131    1
   122    22    20   ar
   123    20    19    1
   124   104   102   ar
   125   134   135    1
   126   134   131    1
   127   139   138   ar
   128   135   136   ar
   129   102   101    1
   130   102   103   ar
   131    19    16    1
   132   101   100    1
   133   131   130    1
   134    98    99    2
   135    98    97    1
   136    90    91    1
   137    90    87    1
   138    16    15    1
   139    16    17    1
   140    92    91   ar
   141    92    94   ar
   142    86    87    1
   143   100    97    1
   144    91    93   ar
   145   138   136   ar
   146    97    96    1
   147    94    95   ar
   148    87    88    1
   149    93    95   ar
   150    17    18    2
   151    89    88    2
