@<TRIPOS>MOLECULE
tmp/5m28A00.pdb
 168 159 0 0 0
SMALL
GASTEIGER

@<TRIPOS>ATOM
      1  N          6.3050    7.0540   42.8480 N.3    11  ASP11      -0.1239
      2  CA         6.2220    8.5080   42.8590 C.3    11  ASP11       0.1674
      3  C          4.8170    8.9630   43.2810 C.2    11  ASP11       0.2266
      4  O          3.8320    8.2420   43.1550 O.2    11  ASP11      -0.2867
      5  CB         6.6140    9.0580   41.4800 C.3    11  ASP11       0.1410
      6  CG         8.0880    8.8660   41.1690 C.2    11  ASP11       0.3668
      7  OD1        8.8890    8.8670   42.1180 O.co2  11  ASP11      -0.2456
      8  OD2        8.4760    8.7050   39.9960 O.co2  11  ASP11      -0.2456
      9  N          1.4590    8.4170   41.4960 N.3    14  GLN14      -0.1245
     10  CA         1.3060    7.0410   41.0440 C.3    14  GLN14       0.1566
     11  C          0.6900    6.1370   42.0990 C.2    14  GLN14       0.2260
     12  O          0.2410    5.0380   41.7680 O.2    14  GLN14      -0.2867
     13  CB         2.6720    6.4700   40.6610 C.3    14  GLN14       0.0367
     14  CG         3.4030    7.2410   39.5670 C.3    14  GLN14       0.0905
     15  CD         4.7660    6.6620   39.2560 C.2    14  GLN14       0.2608
     16  OE1        5.2550    6.7370   38.1280 O.2    14  GLN14      -0.2717
     17  NE2        5.3750    6.0720   40.2220 N.am   14  GLN14      -0.0878
     18  N         11.3840   10.8320   45.4180 N.3    42  GLY42      -0.1210
     19  CA        11.0730   10.5030   44.0440 C.3    42  GLY42       0.1956
     20  C         12.0940    9.5700   43.4090 C.2    42  GLY42       0.2613
     21  O         13.2430    9.4530   43.8430 O.2    42  GLY42      -0.2717
     22  N         11.6490    8.9150   42.3330 N.am   43  SER43      -0.1938
     23  CA        12.4750    7.9910   41.5660 C.3    43  SER43       0.2055
     24  C         13.7240    8.6480   40.9980 C.2    43  SER43       0.2643
     25  O         14.7480    7.9700   40.8360 O.2    43  SER43      -0.2714
     26  CB        11.6370    7.4020   40.4320 C.3    43  SER43       0.2130
     27  OG        11.1120    8.4210   39.5910 O.3    43  SER43      -0.2179
     28  N         13.6660    9.9480   40.6860 N.am   44  ALA44      -0.1963
     29  CA        14.8430   10.6470   40.2070 C.3    44  ALA44       0.1728
     30  C         15.9090   10.7710   41.2810 C.2    44  ALA44       0.2616
     31  O         17.0290   11.1720   40.9660 O.2    44  ALA44      -0.2715
     32  CB        14.4620   12.0340   39.6920 C.3    44  ALA44       0.0334
     33  N         15.5830   10.4340   42.5340 N.am   45  ASN45      -0.1972
     34  CA        16.4860   10.5180   43.6770 C.3    45  ASN45       0.1688
     35  C         16.5740    9.1970   44.4410 C.2    45  ASN45       0.2292
     36  O         16.9640    9.1880   45.6120 O.2    45  ASN45      -0.2864
     37  CB        16.0430   11.6490   44.6040 C.3    45  ASN45       0.1181
     38  CG        16.1340   12.9920   43.9340 C.2    45  ASN45       0.2629
     39  OD1       17.2160   13.4240   43.5460 O.2    45  ASN45      -0.2716
     40  ND2       15.0080   13.6590   43.7810 N.am   45  ASN45      -0.0877
     41  N         18.7810    6.9190   44.1920 N.3    47  LYS47      -0.1197
     42  CA        20.2040    6.8020   44.5260 C.3    47  LYS47       0.1778
     43  C         20.4690    7.2430   45.9570 C.2    47  LYS47       0.2305
     44  O         21.1340    6.5480   46.7420 O.2    47  LYS47      -0.2863
     45  CB        21.0730    7.6360   43.5310 C.2    47  LYS47      -0.0042
     46  CG        20.5400    9.0640   43.0680 C.2    47  LYS47      -0.0273
     47  CD        21.3850    9.7600   41.9400 C.3    47  LYS47       0.0462
     48  CE        20.6090   10.9120   41.2500 C.3    47  LYS47       0.1140
     49  NZ        21.3200   11.5190   40.0590 N.3    47  LYS47      -0.1310
     50  N         11.0840    2.4710   42.7910 N.3    62  GLU62      -0.1245
     51  CA        11.1640    2.9920   41.4360 C.3    62  GLU62       0.1567
     52  C         12.4740    3.7540   41.2500 C.2    62  GLU62       0.2260
     53  O         12.8750    4.5320   42.1230 O.2    62  GLU62      -0.2867
     54  CB         9.9640    3.9040   41.1860 C.3    62  GLU62       0.0388
     55  CG         9.7430    4.2340   39.7150 C.3    62  GLU62       0.1160
     56  CD         8.4390    4.9520   39.4690 C.2    62  GLU62       0.3649
     57  OE1        7.5900    4.9150   40.3910 O.co2  62  GLU62      -0.2457
     58  OE2        8.2180    5.5030   38.3810 O.co2  62  GLU62      -0.2457
     59  N         15.1910    5.3540   37.9260 N.3    64  ALA64      -0.1245
     60  CA        15.5610    5.5340   36.5290 C.3    64  ALA64       0.1562
     61  C         16.8810    4.8250   36.2190 C.2    64  ALA64       0.2260
     62  O         17.7480    4.6760   37.0830 O.2    64  ALA64      -0.2867
     63  CB        15.6900    7.0230   36.2090 C.3    64  ALA64       0.0290
     64  N         19.6780    5.3820   34.7690 N.3    66  ASP66      -0.1225
     65  CA        21.0090    5.9660   34.9100 C.3    66  ASP66       0.1805
     66  C         21.6240    5.7160   36.2780 C.2    66  ASP66       0.2597
     67  O         22.8460    5.7820   36.4090 O.2    66  ASP66      -0.2718
     68  CB        20.9830    7.4770   34.6500 C.3    66  ASP66       0.1424
     69  CG        20.1410    8.2390   35.6570 C.2    66  ASP66       0.3668
     70  OD1       18.9220    7.9490   35.7110 O.co2  66  ASP66      -0.2456
     71  OD2       20.6850    9.1250   36.3670 O.co2  66  ASP66      -0.2456
     72  N         20.8030    5.4710   37.2950 N.am   67  GLN67      -0.1979
     73  CA        21.2930    5.3090   38.6590 C.3    67  GLN67       0.1601
     74  C         21.8000    3.9040   38.9450 C.2    67  GLN67       0.2287
     75  O         22.3560    3.6480   40.0190 O.2    67  GLN67      -0.2864
     76  CB        20.1840    5.6740   39.6440 C.3    67  GLN67       0.0394
     77  CG        19.7930    7.1310   39.5190 C.3    67  GLN67       0.0908
     78  CD        18.5960    7.4780   40.3340 C.2    67  GLN67       0.2608
     79  OE1       18.4350    7.0150   41.4630 O.2    67  GLN67      -0.2717
     80  NE2       17.6730    8.2130   39.7110 N.am   67  GLN67      -0.0878
     81  N         10.9680    6.2870   28.3230 N.3   114  GLN114     -0.1245
     82  CA        10.8170    7.7260   28.5310 C.3   114  GLN114      0.1566
     83  C         11.6850    8.5170   27.5630 C.2   114  GLN114      0.2260
     84  O         12.9100    8.4100   27.5820 O.2   114  GLN114     -0.2867
     85  CB        11.1930    8.1020   29.9650 C.3   114  GLN114      0.0367
     86  CG        10.2940    7.4670   30.9920 C.3   114  GLN114      0.0905
     87  CD        10.6430    7.8240   32.4160 C.2   114  GLN114      0.2608
     88  OE1       11.7470    8.2980   32.7100 O.2   114  GLN114     -0.2717
     89  NE2        9.6950    7.6020   33.3280 N.am  114  GLN114     -0.0878
     90  N         17.9890   22.4020   34.5700 N.3   148  ASN148     -0.1225
     91  CA        17.7510   20.9610   34.5710 C.3   148  ASN148      0.1785
     92  C         18.5640   20.3490   33.4320 C.2   148  ASN148      0.2597
     93  O         18.2310   20.5230   32.2580 O.2   148  ASN148     -0.2718
     94  CB        16.2560   20.6800   34.4270 C.3   148  ASN148      0.1169
     95  CG        15.9390   19.2000   34.5180 C.2   148  ASN148      0.2627
     96  OD1       16.7950   18.3590   34.2640 O.2   148  ASN148     -0.2716
     97  ND2       14.7130   18.8670   34.8840 N.am  148  ASN148     -0.0877
     98  N         19.6650   19.6800   33.7830 N.am  149  ALA149     -0.1966
     99  CA        20.5690   19.1170   32.7820 C.3   149  ALA149      0.1728
    100  C         19.9320   17.9870   31.9850 C.2   149  ALA149      0.2616
    101  O         20.3850   17.6930   30.8730 O.2   149  ALA149     -0.2715
    102  CB        21.8520   18.6220   33.4410 C.3   149  ALA149      0.0334
    103  N         18.9060   17.3340   32.5250 N.am  150  TYR150     -0.1974
    104  CA        18.1910   16.3300   31.7500 C.3   150  TYR150      0.1639
    105  C         17.4980   16.9610   30.5460 C.2   150  TYR150      0.2290
    106  O         17.3560   16.3080   29.5080 O.2   150  TYR150     -0.2864
    107  CB        17.2020   15.6200   32.6680 C.3   150  TYR150      0.0560
    108  CG        16.3450   14.5530   32.0330 C.ar  150  TYR150     -0.0198
    109  CD1       16.7900   13.2450   31.9190 C.ar  150  TYR150     -0.0009
    110  CD2       15.0690   14.8540   31.5820 C.ar  150  TYR150     -0.0009
    111  CE1       15.9570   12.2520   31.3860 C.ar  150  TYR150      0.0417
    112  CE2       14.2320   13.8710   31.0730 C.ar  150  TYR150      0.0417
    113  CZ        14.6810   12.5720   30.9720 C.ar  150  TYR150      0.1957
    114  OH        13.8510   11.6010   30.4630 O.3   150  TYR150     -0.2866
    115  N          5.6210   10.8480   31.7450 N.3   220  TRP220     -0.1241
    116  CA         5.0510   10.8710   33.0890 C.3   220  TRP220      0.1605
    117  C          3.9980   11.9670   33.2170 C.2   220  TRP220      0.2264
    118  O          3.1330   11.8880   34.0950 O.2   220  TRP220     -0.2867
    119  CB         6.1590   11.0090   34.1540 C.3   220  TRP220      0.0550
    120  CG         7.0660   12.1740   33.9010 C.ar  220  TRP220      0.0003
    121  CD1        6.8880   13.4540   34.3240 C.ar  220  TRP220      0.0946
    122  CD2        8.2700   12.1780   33.1220 C.ar  220  TRP220      0.0152
    123  NE1        7.9090   14.2520   33.8700 N.ar  220  TRP220     -0.2442
    124  CE2        8.7620   13.4960   33.1130 C.ar  220  TRP220      0.0810
    125  CE3        8.9940   11.1880   32.4530 C.ar  220  TRP220      0.0012
    126  CZ2        9.9340   13.8460   32.4510 C.ar  220  TRP220      0.0191
    127  CZ3       10.1520   11.5430   31.7950 C.ar  220  TRP220      0.0001
    128  CH2       10.6120   12.8590   31.7980 C.ar  220  TRP220      0.0015
    129  N         12.4800    3.5920   32.8340 N.3   257  GLU257     -0.1245
    130  CA        12.0420    3.5890   34.2190 C.3   257  GLU257      0.1567
    131  C         11.9230    2.1420   34.6730 C.2   257  GLU257      0.2260
    132  O         11.4650    1.2780   33.9170 O.2   257  GLU257     -0.2867
    133  CB        10.7010    4.3050   34.3860 C.3   257  GLU257      0.0388
    134  CG        10.4300    4.7360   35.8160 C.3   257  GLU257      0.1160
    135  CD        11.3970    5.8020   36.2560 C.2   257  GLU257      0.3649
    136  OE1       11.7210    6.6880   35.4730 O.co2 257  GLU257     -0.2457
    137  OE2       11.8840    5.7660   37.3830 O.co2 257  GLU257     -0.2457
    138  N          2.2640    6.8710   30.4190 N.3   295  GLN295     -0.1245
    139  CA         3.6210    6.4000   30.1960 C.3   295  GLN295      0.1566
    140  C          3.6250    5.2160   29.2320 C.2   295  GLN295      0.2260
    141  O          2.6730    4.4360   29.1370 O.2   295  GLN295     -0.2867
    142  CB         4.3310    6.0350   31.4960 C.3   295  GLN295      0.0367
    143  CG         4.6860    7.2290   32.3420 C.3   295  GLN295      0.0905
    144  CD         6.0110    7.0760   33.0310 C.2   295  GLN295      0.2608
    145  OE1        7.0380    6.8750   32.3830 O.2   295  GLN295     -0.2717
    146  NE2        6.0110    7.2120   34.3560 N.am  295  GLN295     -0.0878
    147  N         20.3180    7.1220   28.3960 N.3   329  MET329     -0.1245
    148  CA        21.0940    7.6360   29.5200 C.3   329  MET329      0.1570
    149  C         22.1350    6.6110   29.9380 C.2   329  MET329      0.2261
    150  O         21.7640    5.4710   30.2740 O.2   329  MET329     -0.2867
    151  CB        20.2510    7.9080   30.7570 C.3   329  MET329      0.0387
    152  CG        19.3100    9.0760   30.6220 C.3   329  MET329      0.0595
    153  SD        18.6320    9.6320   32.2200 S.3   329  MET329     -0.1393
    154  CE        17.5230    8.2890   32.6420 C.3   329  MET329      0.0692
    155  N         25.5400   14.6880   36.6590 N.3   339  TRP339     -0.1241
    156  CA        24.3640   15.5490   36.6870 C.3   339  TRP339      0.1605
    157  C         24.6270   16.7980   37.5110 C.2   339  TRP339      0.2264
    158  O         24.1800   17.8900   37.1510 O.2   339  TRP339     -0.2867
    159  CB        23.1650   14.8110   37.2780 C.3   339  TRP339      0.0550
    160  CG        22.6390   13.6680   36.4720 C.ar  339  TRP339      0.0003
    161  CD1       22.6120   12.3590   36.8500 C.ar  339  TRP339      0.0946
    162  CD2       22.0420   13.7280   35.1700 C.ar  339  TRP339      0.0152
    163  NE1       22.0550   11.5940   35.8590 N.ar  339  TRP339     -0.2442
    164  CE2       21.6750   12.4130   34.8270 C.ar  339  TRP339      0.0810
    165  CE3       21.7730   14.7680   34.2620 C.ar  339  TRP339      0.0012
    166  CZ2       21.0620   12.1080   33.6210 C.ar  339  TRP339      0.0191
    167  CZ3       21.1530   14.4540   33.0630 C.ar  339  TRP339      0.0001
    168  CH2       20.8080   13.1370   32.7570 C.ar  339  TRP339      0.0015
@<TRIPOS>BOND
     1    83    84    2
     2    83    82    1
     3    81    82    1
     4   147   148    1
     5    82    85    1
     6   141   140    2
     7   140   139    1
     8   106   105    2
     9   148   149    1
    10   148   151    1
    11   149   150    2
    12    85    86    1
    13   139   138    1
    14   139   142    1
    15   114   113    1
    16   105   104    1
    17   152   151    1
    18   152   153    1
    19   101   100    2
    20   113   112   ar
    21   113   111   ar
    22    86    87    1
    23   112   110   ar
    24   111   109   ar
    25   142   143    1
    26   110   108   ar
    27   115   116    1
    28   104   103    1
    29   104   107    1
    30   127   128   ar
    31   127   125   ar
    32   128   126   ar
    33   109   108   ar
    34   100   103   am
    35   100    99    1
    36   108   107    1
    37   153   154    1
    38    93    92    2
    39   143   144    1
    40   145   144    2
    41    87    88    2
    42    87    89   am
    43   126   124   ar
    44   125   122   ar
    45   168   167   ar
    46   168   166   ar
    47    99   102    1
    48    99    98    1
    49   129   130    1
    50   144   146   am
    51   167   165   ar
    52   116   117    1
    53   116   119    1
    54   124   122   ar
    55   124   123   ar
    56   122   120   ar
    57   117   118    2
    58    92    98   am
    59    92    91    1
    60   166   164   ar
    61   123   121   ar
    62   120   119    1
    63   120   121   ar
    64   132   131    2
    65   130   133    1
    66   130   131    1
    67   165   162   ar
    68    96    95    2
    69   133   134    1
    70    94    95    1
    71    94    91    1
    72    95    97   am
    73    90    91    1
    74    68    65    1
    75    68    69    1
    76    64    65    1
    77   164   162   ar
    78   164   163   ar
    79    65    66    1
    80   162   160   ar
    81   136   135   ar
    82    69    70   ar
    83    69    71   ar
    84   134   135    1
    85   163   161   ar
    86    63    60    1
    87    61    60    1
    88    61    62    2
    89   135   137   ar
    90    66    67    2
    91    66    72   am
    92   160   161   ar
    93   160   159    1
    94    60    59    1
    95   155   156    1
    96   156   159    1
    97   156   157    1
    98   158   157    2
    99    72    73    1
   100    16    15    2
   101    58    56   ar
   102    73    74    1
   103    73    76    1
   104    74    75    2
   105    15    14    1
   106    15    17   am
   107    56    55    1
   108    56    57   ar
   109    77    76    1
   110    77    78    1
   111    14    13    1
   112    27    26    1
   113    32    29    1
   114    80    78   am
   115    55    54    1
   116     8     6   ar
   117    49    48    1
   118    29    28    1
   119    29    30    1
   120    78    79    2
   121    26    23    1
   122    13    10    1
   123    28    24   am
   124    25    24    2
   125    31    30    2
   126    24    23    1
   127    10     9    1
   128    10    11    1
   129     6     5    1
   130     6     7   ar
   131    54    51    1
   132    52    51    1
   133    52    53    2
   134    48    47    1
   135    30    33   am
   136    51    50    1
   137     5     2    1
   138    23    22    1
   139    12    11    2
   140    47    46    1
   141    22    20   am
   142    33    34    1
   143     1     2    1
   144     2     3    1
   145    46    45    2
   146     4     3    2
   147    20    21    2
   148    20    19    1
   149    45    42    1
   150    39    38    2
   151    34    35    1
   152    34    37    1
   153    40    38   am
   154    38    37    1
   155    19    18    1
   156    41    42    1
   157    35    36    2
   158    42    43    1
   159    43    44    2
