@<TRIPOS>MOLECULE
tmp/5m2aA00.pdb
 139 130 0 0 0
SMALL
GASTEIGER

@<TRIPOS>ATOM
      1  N        -24.0860  -16.6220  -32.9550 N.3     7  TYR7       -0.1241
      2  CA       -23.2000  -16.9820  -31.8620 C.3     7  TYR7        0.1605
      3  C        -21.7680  -17.0060  -32.3620 C.2     7  TYR7        0.2264
      4  O        -21.5030  -17.1030  -33.5630 O.2     7  TYR7       -0.2867
      5  CB       -23.5780  -18.3420  -31.2350 C.3     7  TYR7        0.0534
      6  CG       -23.2140  -19.5590  -32.0550 C.ar    7  TYR7       -0.0201
      7  CD1      -21.9290  -20.0940  -32.0220 C.ar    7  TYR7       -0.0009
      8  CD2      -24.1610  -20.1840  -32.8560 C.ar    7  TYR7       -0.0009
      9  CE1      -21.5950  -21.2070  -32.7780 C.ar    7  TYR7        0.0417
     10  CE2      -23.8370  -21.2970  -33.6090 C.ar    7  TYR7        0.0417
     11  CZ       -22.5530  -21.8050  -33.5690 C.ar    7  TYR7        0.1957
     12  OH       -22.2230  -22.9130  -34.3190 O.3     7  TYR7       -0.2866
     13  N        -18.5790  -30.5010  -41.4460 N.3    23  ILE23      -0.1245
     14  CA       -19.6570  -29.7700  -40.7920 C.3    23  ILE23       0.1561
     15  C        -20.6170  -29.1990  -41.8300 C.2    23  ILE23       0.2260
     16  O        -21.8390  -29.2230  -41.6420 O.2    23  ILE23      -0.2867
     17  CB       -19.0760  -28.6760  -39.8780 C.3    23  ILE23       0.0252
     18  CG1      -18.1490  -29.2990  -38.8330 C.3    23  ILE23       0.0019
     19  CG2      -20.1910  -27.8970  -39.1950 C.3    23  ILE23       0.0019
     20  CD1      -17.4180  -28.2890  -37.9910 C.3    23  ILE23       0.0001
     21  N        -23.1350  -31.9630  -43.6150 N.3    26  VAL26      -0.1231
     22  CA       -24.1470  -32.4260  -42.6700 C.3    26  VAL26       0.1692
     23  C        -25.0970  -31.2910  -42.3200 C.2    26  VAL26       0.2592
     24  O        -26.3150  -31.4920  -42.2210 O.2    26  VAL26      -0.2718
     25  CB       -23.4830  -33.0210  -41.4110 C.3    26  VAL26       0.0266
     26  CG1      -24.5190  -33.2770  -40.3250 C.3    26  VAL26       0.0020
     27  CG2      -22.7560  -34.3150  -41.7500 C.3    26  VAL26       0.0020
     28  N        -24.5620  -30.0820  -42.1310 N.am   27  SER27      -0.1952
     29  CA       -25.4180  -28.9300  -41.8700 C.3    27  SER27       0.1924
     30  C        -26.3650  -28.6800  -43.0370 C.2    27  SER27       0.2314
     31  O        -27.5690  -28.4880  -42.8410 O.2    27  SER27      -0.2863
     32  CB       -24.5650  -27.6940  -41.5900 C.3    27  SER27       0.2116
     33  OG       -23.6650  -27.9440  -40.5250 O.3    27  SER27      -0.2180
     34  N        -29.0880  -31.4850  -43.0040 N.3    30  ASN30      -0.1225
     35  CA       -30.0470  -31.3490  -41.9130 C.3    30  ASN30       0.1785
     36  C        -30.8540  -30.0620  -42.0400 C.2    30  ASN30       0.2597
     37  O        -32.0770  -30.0710  -41.8550 O.2    30  ASN30      -0.2718
     38  CB       -29.3250  -31.3950  -40.5670 C.3    30  ASN30       0.1169
     39  CG       -28.6670  -32.7370  -40.3000 C.2    30  ASN30       0.2627
     40  OD1      -28.9240  -33.7170  -40.9980 O.2    30  ASN30      -0.2716
     41  ND2      -27.8150  -32.7870  -39.2780 N.am   30  ASN30      -0.0877
     42  N        -30.1910  -28.9480  -42.3660 N.am   31  ASN31      -0.1974
     43  CA       -30.8910  -27.6680  -42.4230 C.3    31  ASN31       0.1688
     44  C        -31.9110  -27.6320  -43.5540 C.2    31  ASN31       0.2292
     45  O        -32.9560  -26.9870  -43.4190 O.2    31  ASN31      -0.2864
     46  CB       -29.8850  -26.5250  -42.5600 C.3    31  ASN31       0.1181
     47  CG       -29.0130  -26.3680  -41.3240 C.2    31  ASN31       0.2629
     48  OD1      -29.0800  -27.1770  -40.3980 O.2    31  ASN31      -0.2716
     49  ND2      -28.1840  -25.3310  -41.3100 N.am   31  ASN31      -0.0877
     50  N        -21.9040  -19.9730  -41.8840 N.3    40  LEU40      -0.1245
     51  CA       -20.8710  -20.3330  -40.9210 C.3    40  LEU40       0.1561
     52  C        -19.5590  -19.7450  -41.4120 C.2    40  LEU40       0.2260
     53  O        -19.0760  -20.1180  -42.4850 O.2    40  LEU40      -0.2867
     54  CB       -20.7610  -21.8520  -40.7590 C.3    40  LEU40       0.0270
     55  CG       -19.6360  -22.3680  -39.8610 C.3    40  LEU40       0.0019
     56  CD1      -19.8500  -21.8990  -38.4230 C.3    40  LEU40       0.0001
     57  CD2      -19.5510  -23.8930  -39.9450 C.3    40  LEU40       0.0001
     58  N        -15.2690  -19.4880  -34.6670 N.3    47  PHE47      -0.1241
     59  CA       -16.4440  -19.7400  -35.4920 C.3    47  PHE47       0.1605
     60  C        -17.4480  -18.6120  -35.2850 C.2    47  PHE47       0.2264
     61  O        -17.6050  -18.1030  -34.1730 O.2    47  PHE47      -0.2867
     62  CB       -17.1110  -21.0700  -35.1270 C.3    47  PHE47       0.0534
     63  CG       -16.4630  -22.2860  -35.7280 C.ar   47  PHE47      -0.0203
     64  CD1      -16.0920  -22.3150  -37.0580 C.ar   47  PHE47      -0.0042
     65  CD2      -16.2530  -23.4230  -34.9550 C.ar   47  PHE47      -0.0042
     66  CE1      -15.5110  -23.4460  -37.6090 C.ar   47  PHE47      -0.0003
     67  CE2      -15.6740  -24.5580  -35.5010 C.ar   47  PHE47      -0.0003
     68  CZ       -15.3020  -24.5670  -36.8290 C.ar   47  PHE47      -0.0000
     69  N        -21.5660  -18.1440  -36.4220 N.3    49  GLN49      -0.1245
     70  CA       -22.6560  -18.7730  -37.1510 C.3    49  GLN49       0.1566
     71  C        -23.9570  -18.0150  -36.9560 C.2    49  GLN49       0.2260
     72  O        -24.2680  -17.5560  -35.8570 O.2    49  GLN49      -0.2867
     73  CB       -22.8430  -20.2480  -36.7630 C.3    49  GLN49       0.0367
     74  CG       -23.7220  -21.0150  -37.7910 C.3    49  GLN49       0.0905
     75  CD       -23.7600  -22.5120  -37.5510 C.2    49  GLN49       0.2608
     76  OE1      -23.5560  -22.9820  -36.4280 O.2    49  GLN49      -0.2717
     77  NE2      -24.0240  -23.2730  -38.6060 N.am   49  GLN49      -0.0878
     78  N        -28.0340  -18.7250  -37.6570 N.3    51  LEU51      -0.1245
     79  CA       -29.0350  -19.7500  -37.9220 C.3    51  LEU51       0.1561
     80  C        -30.4120  -19.1030  -37.9630 C.2    51  LEU51       0.2260
     81  O        -30.7100  -18.2190  -37.1550 O.2    51  LEU51      -0.2867
     82  CB       -29.0080  -20.8420  -36.8390 C.3    51  LEU51       0.0270
     83  CG       -27.7440  -21.6850  -36.6670 C.3    51  LEU51       0.0019
     84  CD1      -27.8660  -22.5880  -35.4440 C.3    51  LEU51       0.0001
     85  CD2      -27.4710  -22.5110  -37.9170 C.3    51  LEU51       0.0001
     86  N        -31.6500  -27.5510  -33.0260 N.3    61  LEU61      -0.1245
     87  CA       -30.3130  -27.6010  -33.6100 C.3    61  LEU61       0.1561
     88  C        -29.2800  -26.9610  -32.6920 C.2    61  LEU61       0.2260
     89  O        -28.1720  -27.4890  -32.5310 O.2    61  LEU61      -0.2867
     90  CB       -30.3200  -26.9100  -34.9740 C.3    61  LEU61       0.0270
     91  CG       -28.9540  -26.6470  -35.6070 C.3    61  LEU61       0.0019
     92  CD1      -28.1900  -27.9430  -35.7660 C.3    61  LEU61       0.0001
     93  CD2      -29.1060  -25.9310  -36.9420 C.3    61  LEU61       0.0001
     94  N        -27.9670  -29.1100  -29.9840 N.3    64  LYS64      -0.1231
     95  CA       -26.9710  -30.0810  -30.4220 C.3    64  LYS64       0.1693
     96  C        -25.6300  -29.4150  -30.6810 C.2    64  LYS64       0.2591
     97  O        -24.5800  -29.9590  -30.3210 O.2    64  LYS64      -0.2718
     98  CB       -27.4520  -30.8010  -31.6790 C.3    64  LYS64       0.0285
     99  CG       -28.8150  -31.4440  -31.5430 C.3    64  LYS64       0.0035
    100  CD       -29.1780  -32.1880  -32.8120 C.3    64  LYS64       0.0206
    101  CE       -28.9120  -31.3250  -34.0360 C.3    64  LYS64       0.1093
    102  NZ       -29.3670  -31.9830  -35.2910 N.3    64  LYS64      -0.1314
    103  N        -25.6430  -28.2450  -31.3250 N.am   65  ILE65      -0.1980
    104  CA       -24.4010  -27.5190  -31.5670 C.3    65  ILE65       0.1595
    105  C        -23.6750  -27.2500  -30.2540 C.2    65  ILE65       0.2287
    106  O        -22.4440  -27.3550  -30.1750 O.2    65  ILE65      -0.2864
    107  CB       -24.6900  -26.2150  -32.3380 C.3    65  ILE65       0.0276
    108  CG1      -25.1730  -26.5260  -33.7570 C.3    65  ILE65       0.0022
    109  CG2      -23.4580  -25.3440  -32.3940 C.3    65  ILE65       0.0022
    110  CD1      -25.4660  -25.2850  -34.5830 C.3    65  ILE65       0.0001
    111  N        -21.4480  -29.9890  -29.2250 N.3    68  ASP68      -0.1239
    112  CA       -20.5030  -30.4600  -30.2270 C.3    68  ASP68       0.1674
    113  C        -19.0740  -30.3540  -29.7020 C.2    68  ASP68       0.2266
    114  O        -18.6730  -29.3290  -29.1440 O.2    68  ASP68      -0.2867
    115  CB       -20.6580  -29.6620  -31.5240 C.3    68  ASP68       0.1410
    116  CG       -20.0050  -30.3440  -32.7160 C.2    68  ASP68       0.3668
    117  OD1      -18.7630  -30.4590  -32.7260 O.co2  68  ASP68      -0.2456
    118  OD2      -20.7330  -30.7520  -33.6490 O.co2  68  ASP68      -0.2456
    119  N        -16.3410  -30.0600  -31.2640 N.3    70  ARG70      -0.1231
    120  CA       -15.3910  -29.3660  -32.1220 C.3    70  ARG70       0.1694
    121  C        -15.2640  -27.8820  -31.8100 C.2    70  ARG70       0.2592
    122  O        -14.4540  -27.1990  -32.4450 O.2    70  ARG70      -0.2718
    123  CB       -15.7780  -29.5700  -33.5930 C.3    70  ARG70       0.0321
    124  CG       -15.5120  -30.9880  -34.0910 C.3    70  ARG70       0.0489
    125  CD       -16.1950  -31.2780  -35.4280 C.3    70  ARG70       0.2205
    126  NE       -17.6310  -31.4960  -35.2680 N.pl3  70  ARG70      -0.0865
    127  CZ       -18.4190  -32.0200  -36.2030 C.cat  70  ARG70       0.5346
    128  NH1      -17.9100  -32.3860  -37.3710 N.pl3  70  ARG70       0.1354
    129  NH2      -19.7150  -32.1860  -35.9670 N.pl3  70  ARG70       0.1354
    130  N        -16.0220  -27.3640  -30.8480 N.am   71  HIS71      -0.1976
    131  CA       -15.8390  -25.9780  -30.4470 C.3    71  HIS71       0.1656
    132  C        -16.2200  -25.8190  -28.9810 C.2    71  HIS71       0.2291
    133  O        -16.8310  -26.7030  -28.3730 O.2    71  HIS71      -0.2864
    134  CB       -16.6270  -25.0160  -31.3550 C.3    71  HIS71       0.0771
    135  CG       -18.1120  -25.2090  -31.3190 C.ar   71  HIS71       0.0820
    136  ND1      -18.9910  -24.2440  -31.7620 N.ar   71  HIS71      -0.2267
    137  CD2      -18.8740  -26.2460  -30.8990 C.ar   71  HIS71       0.1154
    138  CE1      -20.2300  -24.6770  -31.6160 C.ar   71  HIS71       0.1986
    139  NE2      -20.1870  -25.8900  -31.0950 N.ar   71  HIS71      -0.2212
@<TRIPOS>BOND
     1    21    22    1
     2    44    45    2
     3    44    43    1
     4    30    31    2
     5    30    29    1
     6    34    35    1
     7    22    23    1
     8    22    25    1
     9    46    43    1
    10    46    47    1
    11    53    52    2
    12    43    42    1
    13    42    36   am
    14    23    24    2
    15    23    28   am
    16    28    29    1
    17    36    35    1
    18    36    37    2
    19    35    38    1
    20    50    51    1
    21    29    32    1
    22    15    16    2
    23    15    14    1
    24    27    25    1
    25    32    33    1
    26    13    14    1
    27    52    51    1
    28    25    26    1
    29    47    49   am
    30    47    48    2
    31    40    39    2
    32    51    54    1
    33    14    17    1
    34    54    55    1
    35    38    39    1
    36    39    41   am
    37    57    55    1
    38    17    19    1
    39    17    18    1
    40    55    56    1
    41    18    20    1
    42    77    75   am
    43    80    79    1
    44    80    81    2
    45    79    78    1
    46    79    82    1
    47    85    83    1
    48    74    75    1
    49    74    73    1
    50    66    64   ar
    51    66    68   ar
    52    75    76    2
    53   128   127    1
    54    70    71    1
    55    70    73    1
    56    70    69    1
    57    64    63   ar
    58    71    72    2
    59    93    91    1
    60    82    83    1
    61    68    67   ar
    62    83    84    1
    63   127   129    1
    64   127   126    2
    65    92    91    1
    66    63    62    1
    67    63    65   ar
    68    91    90    1
    69    67    65   ar
    70    59    60    1
    71    59    62    1
    72    59    58    1
    73   125   126    1
    74   125   124    1
    75   102   101    1
    76    60    61    2
    77    90    87    1
    78   110   108    1
    79    12    11    1
    80   124   123    1
    81   101   100    1
    82   108   107    1
    83   118   116   ar
    84    87    86    1
    85    87    88    1
    86    10    11   ar
    87    10     8   ar
    88   123   120    1
    89    11     9   ar
    90     4     3    2
    91     1     2    1
    92     8     6   ar
    93   100    99    1
    94     9     7   ar
    95   117   116   ar
    96   116   115    1
    97    88    89    2
    98   122   121    2
    99   109   107    1
   100     3     2    1
   101   107   104    1
   102   120   121    1
   103   120   119    1
   104     6     7   ar
   105     6     5    1
   106     2     5    1
   107   121   130   am
   108   136   138   ar
   109   136   135   ar
   110    98    99    1
   111    98    95    1
   112   138   139   ar
   113   104   103    1
   114   104   105    1
   115   115   112    1
   116   134   135    1
   117   134   131    1
   118   103    96   am
   119   135   137   ar
   120   139   137   ar
   121   130   131    1
   122    96    95    1
   123    96    97    2
   124   131   132    1
   125    95    94    1
   126   105   106    2
   127   112   113    1
   128   112   111    1
   129   113   114    2
   130   132   133    2
