@<TRIPOS>MOLECULE
tmp/5m2bK00.pdb
 124 116 0 0 0
SMALL
GASTEIGER

@<TRIPOS>ATOM
      1  N         11.1320 -141.5150   10.0420 N.3     1  THR1       -0.1218
      2  CA        10.8820 -140.2340    9.3190 C.3     1  THR1        0.1862
      3  C         11.4670 -140.2810    7.9110 C.2     1  THR1        0.2287
      4  O         12.5400 -140.8470    7.6860 O.2     1  THR1       -0.2866
      5  CB        11.4750 -139.0280   10.0870 C.3     1  THR1        0.1770
      6  OG1       10.7590 -138.8420   11.3170 O.3     1  THR1       -0.2211
      7  CG2       11.4090 -137.7390    9.2610 C.3     1  THR1        0.0375
      8  N          4.8930 -139.8810   10.7100 N.3    19  ARG19      -0.1231
      9  CA         5.0180 -140.7790   11.8520 C.3    19  ARG19       0.1694
     10  C          5.9810 -140.2580   12.9100 C.2    19  ARG19       0.2592
     11  O          6.9840 -139.6140   12.5990 O.2    19  ARG19      -0.2718
     12  CB         5.4660 -142.1630   11.3940 C.3    19  ARG19       0.0321
     13  CG         5.4410 -143.2000   12.5020 C.3    19  ARG19       0.0489
     14  CD         5.5580 -144.6020   11.9470 C.3    19  ARG19       0.2205
     15  NE         4.3120 -145.0450   11.3280 N.pl3  19  ARG19      -0.0865
     16  CZ         4.1410 -146.2240   10.7350 C.cat  19  ARG19       0.5346
     17  NH1        5.1390 -147.0990   10.6680 N.pl3  19  ARG19       0.1354
     18  NH2        2.9660 -146.5280   10.2030 N.pl3  19  ARG19       0.1354
     19  N          5.6570 -140.5540   14.1640 N.am   20  ALA20      -0.1966
     20  CA         6.5130 -140.2430   15.2990 C.3    20  ALA20       0.1728
     21  C          6.5130 -141.4570   16.2100 C.2    20  ALA20       0.2616
     22  O          5.4580 -142.0340   16.4740 O.2    20  ALA20      -0.2715
     23  CB         5.9890 -139.0310   16.0390 C.3    20  ALA20       0.0334
     24  N          7.6910 -141.8440   16.6850 N.am   21  SER21      -0.1950
     25  CA         7.8230 -143.0590   17.4810 C.3    21  SER21       0.1924
     26  C          8.6180 -142.8680   18.7650 C.2    21  SER21       0.2314
     27  O          9.5140 -142.0280   18.8480 O.2    21  SER21      -0.2863
     28  CB         8.4310 -144.1900   16.6430 C.3    21  SER21       0.2116
     29  OG         8.8950 -143.7190   15.3890 O.3    21  SER21      -0.2180
     30  N          3.9890 -143.1840   18.7610 N.3    27  SER27      -0.1202
     31  CA         3.3970 -142.1760   19.6260 C.3    27  SER27       0.2020
     32  C          2.4880 -141.2310   18.8520 C.2    27  SER27       0.2618
     33  O          1.5750 -140.6520   19.4270 O.2    27  SER27      -0.2717
     34  CB         4.4870 -141.3860   20.3510 C.3    27  SER27       0.2103
     35  OG         5.3800 -140.7840   19.4320 O.3    27  SER27      -0.2182
     36  N          2.7250 -141.0750   17.5530 N.am   28  ALA28      -0.1979
     37  CA         1.8790 -140.2140   16.7330 C.3    28  ALA28       0.1597
     38  C          1.7960 -140.7040   15.2940 C.2    28  ALA28       0.2287
     39  O          2.8120 -141.0130   14.6700 O.2    28  ALA28      -0.2864
     40  CB         2.3810 -138.7820   16.7730 C.3    28  ALA28       0.0319
     41  N          1.8930 -136.2040   12.5550 N.3    31  VAL31      -0.1231
     42  CA         2.5780 -134.9900   12.9860 C.3    31  VAL31       0.1692
     43  C          2.9700 -134.1930   11.7570 C.2    31  VAL31       0.2592
     44  O          3.2540 -134.7670   10.7060 O.2    31  VAL31      -0.2718
     45  CB         3.8220 -135.2820   13.8520 C.3    31  VAL31       0.0266
     46  CG1        3.4060 -135.9290   15.1590 C.3    31  VAL31       0.0020
     47  CG2        4.8210 -136.1630   13.1190 C.3    31  VAL31       0.0020
     48  N          2.9910 -132.8890   11.8820 N.am   32  ASN32      -0.1960
     49  CA         3.3560 -132.0630   10.7730 C.3    32  ASN32       0.1819
     50  C          4.8410 -131.8820   10.7790 C.2    32  ASN32       0.2621
     51  O          5.3910 -131.4310   11.7380 O.2    32  ASN32      -0.2715
     52  CB         2.6330 -130.7420   10.8580 C.3    32  ASN32       0.1195
     53  CG         2.6550 -129.9830    9.5750 C.2    32  ASN32       0.2630
     54  OD1        2.4460 -128.7960    9.5680 O.2    32  ASN32      -0.2716
     55  ND2        2.9040 -130.6560    8.4920 N.am   32  ASN32      -0.0877
     56  N          5.4750 -132.2630    9.6870 N.am   33  LYS33      -0.1977
     57  CA         6.9310 -132.2130    9.5520 C.3    33  LYS33       0.1596
     58  C          7.3750 -131.1520    8.5660 C.2    33  LYS33       0.2287
     59  O          8.5130 -131.1530    8.1020 O.2    33  LYS33      -0.2864
     60  CB         7.4550 -133.5730    9.1250 C.3    33  LYS33       0.0298
     61  CG         7.4460 -134.5540   10.2690 C.3    33  LYS33       0.0038
     62  CD         7.6830 -135.9640    9.7920 C.3    33  LYS33       0.0206
     63  CE         7.5690 -136.9180   10.9580 C.3    33  LYS33       0.1093
     64  NZ         7.9310 -138.2940   10.5550 N.3    33  LYS33      -0.1314
     65  N         11.3180 -131.1800    8.7850 N.3    45  MET45      -0.1230
     66  CA        11.7140 -131.5570   10.1220 C.3    45  MET45       0.1702
     67  C         12.1550 -132.9930   10.2880 C.2    45  MET45       0.2593
     68  O         11.4030 -133.8740   10.0270 O.2    45  MET45      -0.2718
     69  CB        10.5260 -131.4070   11.0360 C.3    45  MET45       0.0401
     70  CG        10.0710 -130.0000   11.3090 C.3    45  MET45       0.0596
     71  SD         8.7920 -130.0670   12.5480 S.3    45  MET45      -0.1393
     72  CE         8.4010 -128.3550   12.6580 C.3    45  MET45       0.0692
     73  N         13.3680 -133.2170   10.7620 N.am   46  SER46      -0.1938
     74  CA        13.9000 -134.5440   11.0340 C.3    46  SER46       0.2055
     75  C         14.8640 -134.4280   12.2130 C.2    46  SER46       0.2643
     76  O         15.6300 -133.4680   12.2990 O.2    46  SER46      -0.2714
     77  CB        14.5990 -135.1170    9.7970 C.3    46  SER46       0.2130
     78  OG        15.9010 -134.5820    9.6410 O.3    46  SER46      -0.2179
     79  N         14.8060 -135.3950   13.1250 N.am   47  GLY47      -0.1954
     80  CA        15.5930 -135.3570   14.3590 C.3    47  GLY47       0.1869
     81  C         14.6810 -135.1130   15.5470 C.2    47  GLY47       0.2309
     82  O         13.6330 -135.7470   15.6670 O.2    47  GLY47      -0.2863
     83  N         11.8970 -133.1750   17.3440 N.3    49  ALA49      -0.1245
     84  CA        10.7630 -132.3390   16.9540 C.3    49  ALA49       0.1562
     85  C         10.8540 -130.9600   17.5880 C.2    49  ALA49       0.2260
     86  O         10.6640 -129.9430   16.9220 O.2    49  ALA49      -0.2867
     87  CB         9.4720 -133.0040   17.3780 C.3    49  ALA49       0.0290
     88  N         13.5260 -128.7420   15.9990 N.3    52  CYS52      -0.1221
     89  CA        13.1110 -128.2800   14.6740 C.3    52  CYS52       0.1808
     90  C         12.0470 -127.1880   14.7780 C.2    52  CYS52       0.2601
     91  O         12.1350 -126.1790   14.0860 O.2    52  CYS52      -0.2717
     92  CB        12.5920 -129.4360   13.8140 C.3    52  CYS52       0.0970
     93  SG        13.8010 -130.7260   13.4460 S.3    52  CYS52      -0.0800
     94  N         11.0570 -127.3830   15.6490 N.am   53  GLN53      -0.1979
     95  CA         9.9880 -126.3960   15.8260 C.3    53  GLN53       0.1601
     96  C         10.5180 -125.0900   16.3930 C.2    53  GLN53       0.2287
     97  O         10.2740 -124.0240   15.8370 O.2    53  GLN53      -0.2864
     98  CB         8.8900 -126.9180   16.7530 C.3    53  GLN53       0.0394
     99  CG         7.9230 -127.8800   16.0910 C.3    53  GLN53       0.0908
    100  CD         6.8470 -128.3770   17.0350 C.2    53  GLN53       0.2608
    101  OE1        6.6850 -127.8630   18.1410 O.2    53  GLN53      -0.2717
    102  NE2        6.0980 -129.3790   16.5980 N.am   53  GLN53      -0.0878
    103  N         16.1900 -138.3450    7.1290 N.3   129  GLY129     -0.1210
    104  CA        15.4450 -139.2210    8.0240 C.3   129  GLY129      0.1956
    105  C         15.7890 -140.6840    7.8390 C.2   129  GLY129      0.2612
    106  O         16.5850 -141.0430    6.9720 O.2   129  GLY129     -0.2717
    107  N         15.1680 -141.5300    8.6560 N.am  130  SER130     -0.1952
    108  CA        15.4290 -142.9710    8.6440 C.3   130  SER130      0.1924
    109  C         15.0850 -143.6600    7.3220 C.2   130  SER130      0.2314
    110  O         15.5990 -144.7420    7.0440 O.2   130  SER130     -0.2863
    111  CB        14.6740 -143.6610    9.7870 C.3   130  SER130      0.2116
    112  OG        13.3600 -143.1500    9.9180 O.3   130  SER130     -0.2180
    113  N          9.8230 -146.8570   10.8390 N.3   169  TYR169     -0.1241
    114  CA         9.6690 -145.5960   11.5640 C.3   169  TYR169      0.1605
    115  C          9.1680 -144.4710   10.6610 C.2   169  TYR169      0.2264
    116  O          9.1290 -143.3090   11.0660 O.2   169  TYR169     -0.2867
    117  CB        10.9930 -145.2410   12.2430 C.3   169  TYR169      0.0534
    118  CG        11.3920 -146.3240   13.2120 C.ar  169  TYR169     -0.0201
    119  CD1       10.6940 -146.4960   14.3980 C.ar  169  TYR169     -0.0009
    120  CD2       12.4250 -147.2130   12.9230 C.ar  169  TYR169     -0.0009
    121  CE1       11.0260 -147.5000   15.2860 C.ar  169  TYR169      0.0417
    122  CE2       12.7660 -148.2220   13.8090 C.ar  169  TYR169      0.0417
    123  CZ        12.0600 -148.3590   14.9900 C.ar  169  TYR169      0.1957
    124  OH        12.3780 -149.3520   15.8850 O.3   169  TYR169     -0.2866
@<TRIPOS>BOND
     1   106   105    2
     2   110   109    2
     3   103   104    1
     4   109   108    1
     5     4     3    2
     6   105   104    1
     7   105   107   am
     8     3     2    1
     9    59    58    2
    10    55    53   am
    11    58    57    1
    12   108   107    1
    13   108   111    1
    14    65    66    1
    15    60    57    1
    16    60    61    1
    17     7     5    1
    18     2     1    1
    19     2     5    1
    20    57    56    1
    21    54    53    2
    22    53    52    1
    23    78    77    1
    24    56    50   am
    25   111   112    1
    26    62    61    1
    27    62    63    1
    28    77    74    1
    29    68    67    2
    30     5     6    1
    31    66    67    1
    32    66    69    1
    33    18    16    1
    34    67    73   am
    35    64    63    1
    36   115   116    2
    37   115   114    1
    38    17    16    1
    39    44    43    2
    40     8     9    1
    41    16    15    2
    42    73    74    1
    43    49    50    1
    44    49    52    1
    45    49    48    1
    46    50    51    2
    47   113   114    1
    48    74    75    1
    49    69    70    1
    50    70    71    1
    51    15    14    1
    52    12     9    1
    53    12    13    1
    54   114   117    1
    55    43    48   am
    56    43    42    1
    57     9    10    1
    58    14    13    1
    59    75    76    2
    60    75    79   am
    61   117   118    1
    62    71    72    1
    63    41    42    1
    64    11    10    2
    65    10    19   am
    66   120   118   ar
    67   120   122   ar
    68    42    45    1
    69    47    45    1
    70    79    80    1
    71   118   119   ar
    72    93    92    1
    73   122   123   ar
    74    92    89    1
    75    45    46    1
    76    91    90    2
    77    19    20    1
    78    80    81    1
    79   119   121   ar
    80    39    38    2
    81    89    90    1
    82    89    88    1
    83    90    94   am
    84   123   121   ar
    85   123   124    1
    86    38    37    1
    87    20    23    1
    88    20    21    1
    89    29    28    1
    90    81    82    2
    91    94    95    1
    92    95    96    1
    93    95    98    1
    94    97    96    2
    95    99    98    1
    96    99   100    1
    97    21    22    2
    98    21    24   am
    99   102   100   am
   100    28    25    1
   101    24    25    1
   102    37    40    1
   103    37    36    1
   104    86    85    2
   105    84    83    1
   106    84    87    1
   107    84    85    1
   108   100   101    2
   109    25    26    1
   110    36    32   am
   111    30    31    1
   112    26    27    2
   113    32    33    2
   114    32    31    1
   115    35    34    1
   116    31    34    1
