@<TRIPOS>MOLECULE
tmp/5m2fA01.pdb
 183 182 0 0 0
SMALL
GASTEIGER

@<TRIPOS>ATOM
      1  N         25.4430   25.5040   -1.8990 N.3    20  TRP20      -0.1241
      2  CA        25.7370   26.6340   -1.0120 C.3    20  TRP20       0.1605
      3  C         27.2230   26.6760   -0.6470 C.2    20  TRP20       0.2264
      4  O         27.7730   25.6940   -0.1550 O.2    20  TRP20      -0.2867
      5  CB        24.8970   26.5800    0.2650 C.3    20  TRP20       0.0550
      6  CG        25.1710   27.7210    1.2130 C.ar   20  TRP20       0.0003
      7  CD1       25.6870   28.9470    0.8990 C.ar   20  TRP20       0.0946
      8  CD2       24.9480   27.7360    2.6300 C.ar   20  TRP20       0.0152
      9  NE1       25.8020   29.7260    2.0330 N.ar   20  TRP20      -0.2442
     10  CE2       25.3520   29.0050    3.1070 C.ar   20  TRP20       0.0810
     11  CE3       24.4340   26.8030    3.5420 C.ar   20  TRP20       0.0012
     12  CZ2       25.2550   29.3620    4.4510 C.ar   20  TRP20       0.0191
     13  CZ3       24.3370   27.1600    4.8790 C.ar   20  TRP20       0.0001
     14  CH2       24.7480   28.4290    5.3200 C.ar   20  TRP20       0.0015
     15  N         20.9640   33.4560   -3.9920 N.3    44  VAL44      -0.1231
     16  CA        21.7970   34.0110   -2.9460 C.3    44  VAL44       0.1692
     17  C         23.1710   33.3370   -2.8830 C.2    44  VAL44       0.2592
     18  O         24.0930   33.8700   -2.2640 O.2    44  VAL44      -0.2718
     19  CB        21.0740   33.9780   -1.5740 C.3    44  VAL44       0.0266
     20  CG1       21.1770   32.5970   -0.9360 C.3    44  VAL44       0.0020
     21  CG2       21.6230   35.0730   -0.6480 C.3    44  VAL44       0.0020
     22  N         23.3350   32.1870   -3.5290 N.am   45  TYR45      -0.1976
     23  CA        24.6500   31.5380   -3.5090 C.3    45  TYR45       0.1639
     24  C         25.6130   32.2460   -4.4730 C.2    45  TYR45       0.2290
     25  O         26.8300   32.0650   -4.3940 O.2    45  TYR45      -0.2864
     26  CB        24.5710   30.0370   -3.8260 C.3    45  TYR45       0.0560
     27  CG        23.5750   29.2430   -3.0010 C.ar   45  TYR45      -0.0198
     28  CD1       23.0270   29.7610   -1.8390 C.ar   45  TYR45      -0.0009
     29  CD2       23.1810   27.9710   -3.3950 C.ar   45  TYR45      -0.0009
     30  CE1       22.0970   29.0460   -1.1100 C.ar   45  TYR45       0.0417
     31  CE2       22.2640   27.2470   -2.6600 C.ar   45  TYR45       0.0417
     32  CZ        21.7250   27.7880   -1.5200 C.ar   45  TYR45       0.1957
     33  OH        20.8130   27.0680   -0.7900 O.3    45  TYR45      -0.2866
     34  N         15.7600   29.1940   -5.8130 N.3    72  LYS72      -0.1245
     35  CA        15.0570   29.7840   -4.6840 C.3    72  LYS72       0.1561
     36  C         14.9810   31.3120   -4.8140 C.2    72  LYS72       0.2260
     37  O         15.9260   31.9620   -5.2750 O.2    72  LYS72      -0.2867
     38  CB        15.7620   29.4100   -3.3700 C.3    72  LYS72       0.0271
     39  CG        16.1510   27.9410   -3.2350 C.3    72  LYS72       0.0035
     40  CD        16.6490   27.6450   -1.8270 C.3    72  LYS72       0.0206
     41  CE        17.3310   26.2740   -1.7330 C.3    72  LYS72       0.1093
     42  NZ        18.6190   26.1790   -2.4570 N.3    72  LYS72      -0.1314
     43  N         15.0050   34.8330   -3.0500 N.3    74  TRP74      -0.1241
     44  CA        15.5160   35.4710   -1.8350 C.3    74  TRP74       0.1605
     45  C         14.5000   36.5070   -1.3520 C.2    74  TRP74       0.2264
     46  O         13.8530   37.1590   -2.1760 O.2    74  TRP74      -0.2867
     47  CB        16.8980   36.1130   -2.1040 C.3    74  TRP74       0.0550
     48  CG        17.6000   36.5720   -0.8590 C.ar   74  TRP74       0.0003
     49  CD1       17.8890   37.8600   -0.5030 C.ar   74  TRP74       0.0946
     50  CD2       18.0780   35.7420    0.2110 C.ar   74  TRP74       0.0152
     51  NE1       18.5170   37.8850    0.7260 N.ar   74  TRP74      -0.2442
     52  CE2       18.6440   36.5990    1.1840 C.ar   74  TRP74       0.0810
     53  CE3       18.0710   34.3620    0.4450 C.ar   74  TRP74       0.0012
     54  CZ2       19.2080   36.1180    2.3680 C.ar   74  TRP74       0.0191
     55  CZ3       18.6200   33.8880    1.6230 C.ar   74  TRP74       0.0001
     56  CH2       19.1800   34.7660    2.5710 C.ar   74  TRP74       0.0015
     57  N         12.7550   31.0400   -0.4430 N.3   103  HIS103     -0.1226
     58  CA        13.9490   30.6740    0.3130 C.3   103  HIS103      0.1752
     59  C         13.7490   30.7880    1.8140 C.2   103  HIS103      0.2596
     60  O         14.2200   29.9490    2.5780 O.2   103  HIS103     -0.2718
     61  CB        15.1390   31.5370   -0.1270 C.3   103  HIS103      0.0759
     62  CG        16.4750   30.8810    0.0670 C.ar  103  HIS103      0.0818
     63  ND1       17.5180   31.0420   -0.8190 N.ar  103  HIS103     -0.2268
     64  CD2       16.9340   30.0650    1.0480 C.ar  103  HIS103      0.1154
     65  CE1       18.5640   30.3540   -0.3950 C.ar  103  HIS103      0.1986
     66  NE2       18.2340   29.7540    0.7350 N.ar  103  HIS103     -0.2212
     67  N         13.0300   31.8250    2.2230 N.am  104  TRP104     -0.1976
     68  CA        12.8720   32.1750    3.6270 C.3   104  TRP104      0.1640
     69  C         11.5250   32.8730    3.7480 C.2   104  TRP104      0.2290
     70  O         11.1930   33.6870    2.8910 O.2   104  TRP104     -0.2864
     71  CB        14.0150   33.1080    4.0730 C.3   104  TRP104      0.0576
     72  CG        13.9690   33.4360    5.5400 C.ar  104  TRP104      0.0006
     73  CD1       13.4670   34.5710    6.1140 C.ar  104  TRP104      0.0946
     74  CD2       14.4060   32.6000    6.6220 C.ar  104  TRP104      0.0152
     75  NE1       13.5740   34.4990    7.4820 N.ar  104  TRP104     -0.2442
     76  CE2       14.1450   33.2990    7.8200 C.ar  104  TRP104      0.0810
     77  CE3       15.0030   31.3340    6.6920 C.ar  104  TRP104      0.0012
     78  CZ2       14.4540   32.7700    9.0770 C.ar  104  TRP104      0.0191
     79  CZ3       15.3070   30.8100    7.9410 C.ar  104  TRP104      0.0001
     80  CH2       15.0300   31.5280    9.1170 C.ar  104  TRP104      0.0015
     81  N         12.4050   40.7220    3.5930 N.3   108  PHE108     -0.1241
     82  CA        13.4250   41.6870    3.9800 C.3   108  PHE108      0.1605
     83  C         13.2190   42.9620    3.1790 C.2   108  PHE108      0.2264
     84  O         12.4290   42.9730    2.2270 O.2   108  PHE108     -0.2867
     85  CB        14.8250   41.1200    3.7220 C.3   108  PHE108      0.0534
     86  CG        15.1690   39.9400    4.5890 C.ar  108  PHE108     -0.0203
     87  CD1       14.5050   39.7270    5.7970 C.ar  108  PHE108     -0.0042
     88  CD2       16.1500   39.0400    4.2000 C.ar  108  PHE108     -0.0042
     89  CE1       14.8150   38.6430    6.6030 C.ar  108  PHE108     -0.0003
     90  CE2       16.4610   37.9540    5.0050 C.ar  108  PHE108     -0.0003
     91  CZ        15.7910   37.7580    6.2100 C.ar  108  PHE108     -0.0000
     92  N         21.3900   41.4000    2.1180 N.3   115  PHE115     -0.1228
     93  CA        21.4290   41.2290    3.5700 C.3   115  PHE115      0.1721
     94  C         21.2730   42.5670    4.2920 C.2   115  PHE115      0.2437
     95  O         22.1850   43.0010    4.9970 O.2   115  PHE115     -0.2733
     96  CB        22.7340   40.5390    4.0020 C.3   115  PHE115      0.0547
     97  CG        23.0490   39.2970    3.2140 C.ar  115  PHE115     -0.0202
     98  CD1       22.5460   38.0700    3.6040 C.ar  115  PHE115     -0.0042
     99  CD2       23.8370   39.3620    2.0730 C.ar  115  PHE115     -0.0042
    100  CE1       22.8290   36.9220    2.8760 C.ar  115  PHE115     -0.0003
    101  CE2       24.1160   38.2250    1.3350 C.ar  115  PHE115     -0.0003
    102  CZ        23.6110   37.0040    1.7390 C.ar  115  PHE115     -0.0000
    103  N         20.1050   43.2190    4.1310 N.am  116  PRO116     -0.2718
    104  CA        19.9190   44.5380    4.7480 C.3   116  PRO116      0.1535
    105  C         19.8090   44.3950    6.2620 C.2   116  PRO116      0.2598
    106  O         19.0010   43.5890    6.7320 O.2   116  PRO116     -0.2715
    107  CB        18.5990   45.0180    4.1500 C.3   116  PRO116      0.0310
    108  CG        17.8470   43.7610    3.8300 C.3   116  PRO116      0.0237
    109  CD        18.8710   42.7160    3.4910 C.3   116  PRO116      0.0939
    110  N         20.6110   45.1450    7.0180 N.am  117  ARG117     -0.1978
    111  CA        20.6680   44.9410    8.4680 C.3   117  ARG117      0.1597
    112  C         21.0480   46.2130    9.1850 C.2   117  ARG117      0.2287
    113  O         21.6680   47.0950    8.6010 O.2   117  ARG117     -0.2864
    114  CB        21.6870   43.8570    8.8150 C.3   117  ARG117      0.0334
    115  CG        23.1160   44.2170    8.4320 C.3   117  ARG117      0.0492
    116  CD        23.8000   43.0280    7.7910 C.3   117  ARG117      0.2205
    117  NE        25.2270   43.2220    7.5470 N.pl3 117  ARG117     -0.0865
    118  CZ        25.7640   43.4390    6.3480 C.cat 117  ARG117      0.5346
    119  NH1       24.9950   43.5020    5.2700 N.pl3 117  ARG117      0.1354
    120  NH2       27.0740   43.5990    6.2260 N.pl3 117  ARG117      0.1354
    121  N         23.4430   44.2790   13.3600 N.3   121  GLY121     -0.1225
    122  CA        23.3690   43.1610   12.4400 C.3   121  GLY121      0.1811
    123  C         22.0170   42.4790   12.3100 C.2   121  GLY121      0.2280
    124  O         21.8880   41.5120   11.5570 O.2   121  GLY121     -0.2866
    125  N         18.2770   41.8710   10.9330 N.3   123  ALA123     -0.1245
    126  CA        17.7070   42.0350    9.5930 C.3   123  ALA123      0.1562
    127  C         16.7570   43.2230    9.5220 C.2   123  ALA123      0.2260
    128  O         16.0460   43.4940   10.4790 O.2   123  ALA123     -0.2867
    129  CB        16.9680   40.7620    9.1820 C.3   123  ALA123      0.0290
    130  N         12.2670   26.5640    4.8120 N.3   152  ASN152     -0.1240
    131  CA        12.3200   27.1320    6.1600 C.3   152  ASN152      0.1653
    132  C         10.9780   27.6210    6.6730 C.2   152  ASN152      0.2266
    133  O         10.9190   28.6000    7.4030 O.2   152  ASN152     -0.2867
    134  CB        13.3560   28.2520    6.2460 C.3   152  ASN152      0.1155
    135  CG        14.7410   27.7660    5.9270 C.2   152  ASN152      0.2627
    136  OD1       15.3240   26.9870    6.6870 O.2   152  ASN152     -0.2716
    137  ND2       15.2750   28.1980    4.7870 N.am  152  ASN152     -0.0877
    138  N         11.7460   22.5540    1.9630 N.3   173  GLN173     -0.1245
    139  CA        13.1660   22.3130    2.1940 C.3   173  GLN173      0.1566
    140  C         13.5980   22.9000    3.5410 C.2   173  GLN173      0.2260
    141  O         13.5580   24.1150    3.7490 O.2   173  GLN173     -0.2867
    142  CB        14.0170   22.8940    1.0630 C.3   173  GLN173      0.0367
    143  CG        15.5030   22.6070    1.2540 C.3   173  GLN173      0.0905
    144  CD        16.3890   23.1380    0.1310 C.2   173  GLN173      0.2608
    145  OE1       17.3760   23.8380    0.3820 O.2   173  GLN173     -0.2717
    146  NE2       16.0590   22.7770   -1.1100 N.am  173  GLN173     -0.0878
    147  N         18.0740   19.6330    4.1090 N.3   198  TYR198     -0.1241
    148  CA        19.3690   20.2760    3.9050 C.3   198  TYR198      0.1605
    149  C         20.3040   20.1160    5.1150 C.2   198  TYR198      0.2264
    150  O         19.8750   19.6790    6.1910 O.2   198  TYR198     -0.2867
    151  CB        19.2510   21.7370    3.4070 C.3   198  TYR198      0.0534
    152  CG        18.8410   22.8290    4.3900 C.ar  198  TYR198     -0.0201
    153  CD1       19.6770   23.2200    5.4300 C.ar  198  TYR198     -0.0009
    154  CD2       17.6490   23.5250    4.2190 C.ar  198  TYR198     -0.0009
    155  CE1       19.3150   24.2450    6.3070 C.ar  198  TYR198      0.0417
    156  CE2       17.2800   24.5490    5.0820 C.ar  198  TYR198      0.0417
    157  CZ        18.1220   24.9100    6.1200 C.ar  198  TYR198      0.1957
    158  OH        17.7640   25.9310    6.9780 O.3   198  TYR198     -0.2866
    159  N         21.6550   31.3680   11.4430 N.3   284  LEU284     -0.1231
    160  CA        22.5120   32.5340   11.6340 C.3   284  LEU284      0.1693
    161  C         21.6770   33.8190   11.5840 C.2   284  LEU284      0.2592
    162  O         22.1820   34.9190   11.8480 O.2   284  LEU284     -0.2718
    163  CB        23.6530   32.5580   10.6030 C.3   284  LEU284      0.0284
    164  CG        23.3560   32.6350    9.1020 C.3   284  LEU284      0.0019
    165  CD1       23.0050   34.0440    8.7030 C.3   284  LEU284      0.0001
    166  CD2       24.5490   32.1670    8.2920 C.3   284  LEU284      0.0001
    167  N         20.3960   33.6600   11.2460 N.am  285  LEU285     -0.1966
    168  CA        19.5000   34.7940   11.0490 C.3   285  LEU285      0.1728
    169  C         19.0350   35.4540   12.3450 C.2   285  LEU285      0.2616
    170  O         18.2170   34.9000   13.0950 O.2   285  LEU285     -0.2715
    171  CB        18.3160   34.4250   10.1510 C.3   285  LEU285      0.0311
    172  CG        18.6450   34.6110    8.6720 C.3   285  LEU285      0.0022
    173  CD1       19.4840   33.4540    8.1720 C.3   285  LEU285      0.0001
    174  CD2       17.4020   34.7650    7.8240 C.3   285  LEU285      0.0001
    175  N         19.6030   36.6350   12.5940 N.am  286  GLN286     -0.1977
    176  CA        19.1260   37.5550   13.6090 C.3   286  GLN286      0.1601
    177  C         17.9130   38.2530   13.0160 C.2   286  GLN286      0.2287
    178  O         17.9600   39.4450   12.6690 O.2   286  GLN286     -0.2864
    179  CB        20.1940   38.5990   13.9200 C.3   286  GLN286      0.0394
    180  CG        21.6210   38.0750   13.9410 C.3   286  GLN286      0.0908
    181  CD        22.5950   39.0820   14.5410 C.2   286  GLN286      0.2608
    182  OE1       22.2350   39.8620   15.4290 O.2   286  GLN286     -0.2717
    183  NE2       23.8330   39.0750   14.0500 N.am  286  GLN286     -0.0878
@<TRIPOS>BOND
     1    34    35    1
     2    37    36    2
     3    36    35    1
     4    35    38    1
     5    24    25    2
     6    24    23    1
     7    15    16    1
     8    26    23    1
     9    26    27    1
    10    22    23    1
    11    22    17   am
    12    29    27   ar
    13    29    31   ar
    14    38    39    1
    15    39    40    1
    16    43    44    1
    17    27    28   ar
    18    16    17    1
    19    16    19    1
    20    17    18    2
    21    31    32   ar
    22    42    41    1
    23    46    45    2
    24    47    44    1
    25    47    48    1
    26     1     2    1
    27    28    30   ar
    28    44    45    1
    29    40    41    1
    30    19    20    1
    31    19    21    1
    32    32    30   ar
    33    32    33    1
    34   146   144   am
    35     2     3    1
    36     2     5    1
    37    48    49   ar
    38    48    50   ar
    39    63    65   ar
    40    63    62   ar
    41     3     4    2
    42    49    51   ar
    43    57    58    1
    44    65    66   ar
    45    61    62    1
    46    61    58    1
    47    62    64   ar
    48   144   145    2
    49   144   143    1
    50    50    53   ar
    51    50    52   ar
    52     5     6    1
    53    58    59    1
    54    53    55   ar
    55    51    52   ar
    56    66    64   ar
    57     7     6   ar
    58     7     9   ar
    59   142   143    1
    60   142   139    1
    61    52    54   ar
    62     6     8   ar
    63   101   102   ar
    64   101    99   ar
    65    55    56   ar
    66   102   100   ar
    67    59    67   am
    68    59    60    2
    69   138   139    1
    70     9    10   ar
    71    99    97   ar
    72    92    93    1
    73   139   140    1
    74    67    68    1
    75    84    83    2
    76    54    56   ar
    77     8    10   ar
    78     8    11   ar
    79   100    98   ar
    80    70    69    2
    81    10    12   ar
    82    83    82    1
    83    97    98   ar
    84    97    96    1
    85   151   148    1
    86   151   152    1
    87   109   108    1
    88   109   103    1
    89   140   141    2
    90    11    13   ar
    91    93    96    1
    92    93    94    1
    93    81    82    1
    94    68    69    1
    95    68    71    1
    96    85    82    1
    97    85    86    1
    98   108   107    1
    99   148   147    1
   100   148   149    1
   101    71    72    1
   102   103    94   am
   103   103   104    1
   104   107   104    1
   105    88    86   ar
   106    88    90   ar
   107   154   152   ar
   108   154   156   ar
   109    94    95    2
   110   152   153   ar
   111    12    14   ar
   112    86    87   ar
   113   104   105    1
   114   137   135   am
   115   130   131    1
   116    13    14   ar
   117    90    91   ar
   118   156   157   ar
   119   149   150    2
   120   119   118    1
   121   153   155   ar
   122    72    73   ar
   123    72    74   ar
   124    87    89   ar
   125   135   134    1
   126   135   136    2
   127    73    75   ar
   128   157   155   ar
   129   157   158    1
   130   131   134    1
   131   131   132    1
   132    91    89   ar
   133   120   118    1
   134   105   106    2
   135   105   110   am
   136   118   117    2
   137    74    77   ar
   138    74    76   ar
   139   132   133    2
   140    77    79   ar
   141   110   111    1
   142    75    76   ar
   143   117   116    1
   144   116   115    1
   145    76    78   ar
   146   174   172    1
   147    79    80   ar
   148   173   172    1
   149   166   164    1
   150   115   114    1
   151   111   114    1
   152   111   112    1
   153   113   112    2
   154   172   171    1
   155   165   164    1
   156    78    80   ar
   157   164   163    1
   158   129   126    1
   159   127   126    1
   160   127   128    2
   161   126   125    1
   162   171   168    1
   163   163   160    1
   164   168   167    1
   165   168   169    1
   166   167   161   am
   167   159   160    1
   168   124   123    2
   169   161   160    1
   170   161   162    2
   171   123   122    1
   172   169   175   am
   173   169   170    2
   174   122   121    1
   175   175   176    1
   176   178   177    2
   177   177   176    1
   178   176   179    1
   179   179   180    1
   180   180   181    1
   181   183   181   am
   182   181   182    2
