@<TRIPOS>MOLECULE
tmp/5m2vA00.pdb
 139 132 0 0 0
SMALL
GASTEIGER

@<TRIPOS>ATOM
      1  N          4.5560   31.2180  -22.9420 N.3     9  GLU9       -0.1245
      2  CA         4.4290   32.5240  -22.3060 C.3     9  GLU9        0.1567
      3  C          5.6910   32.8680  -21.5220 C.2     9  GLU9        0.2260
      4  O          6.1000   32.1140  -20.6340 O.2     9  GLU9       -0.2867
      5  CB         3.2090   32.5550  -21.3830 C.3     9  GLU9        0.0388
      6  CG         2.8320   33.9440  -20.8950 C.3     9  GLU9        0.1160
      7  CD         2.1260   34.7630  -21.9600 C.2     9  GLU9        0.3649
      8  OE1        0.9930   34.3980  -22.3390 O.co2   9  GLU9       -0.2457
      9  OE2        2.7040   35.7710  -22.4170 O.co2   9  GLU9       -0.2457
     10  N          7.5830   31.8310  -18.4950 N.3    12  TYR12      -0.1241
     11  CA         7.1270   30.5590  -17.9470 C.3    12  TYR12       0.1605
     12  C          7.5020   29.3950  -18.8550 C.2    12  TYR12       0.2264
     13  O          8.1310   28.4300  -18.4080 O.2    12  TYR12      -0.2867
     14  CB         5.6140   30.6060  -17.7230 C.3    12  TYR12       0.0534
     15  CG         5.1630   31.7840  -16.8870 C.ar   12  TYR12      -0.0201
     16  CD1        5.2560   31.7570  -15.5000 C.ar   12  TYR12      -0.0009
     17  CD2        4.6630   32.9310  -17.4860 C.ar   12  TYR12      -0.0009
     18  CE1        4.8490   32.8370  -14.7360 C.ar   12  TYR12       0.0417
     19  CE2        4.2550   34.0140  -16.7310 C.ar   12  TYR12       0.0417
     20  CZ         4.3510   33.9630  -15.3580 C.ar   12  TYR12       0.1957
     21  OH         3.9450   35.0420  -14.6060 O.3    12  TYR12      -0.2866
     22  N         -5.8540   28.9850  -22.7260 N.3    57  TYR57      -0.1241
     23  CA        -5.7360   28.6520  -21.3070 C.3    57  TYR57       0.1605
     24  C         -6.9110   27.7930  -20.8480 C.2    57  TYR57       0.2264
     25  O         -6.7390   26.6180  -20.5060 O.2    57  TYR57      -0.2867
     26  CB        -5.6290   29.9330  -20.4730 C.3    57  TYR57       0.0534
     27  CG        -4.2380   30.5240  -20.4340 C.ar   57  TYR57      -0.0201
     28  CD1       -3.3180   30.1170  -19.4750 C.ar   57  TYR57      -0.0009
     29  CD2       -3.8390   31.4780  -21.3600 C.ar   57  TYR57      -0.0009
     30  CE1       -2.0430   30.6500  -19.4350 C.ar   57  TYR57       0.0417
     31  CE2       -2.5650   32.0170  -21.3290 C.ar   57  TYR57       0.0417
     32  CZ        -1.6720   31.5990  -20.3640 C.ar   57  TYR57       0.1957
     33  OH        -0.4030   32.1310  -20.3260 O.3    57  TYR57      -0.2866
     34  N          1.1550   29.5220  -16.0530 N.3    84  PRO84      -0.2102
     35  CA         0.4970   30.6330  -15.3520 C.3    84  PRO84       0.1504
     36  C         -1.0170   30.5790  -15.4850 C.2    84  PRO84       0.2576
     37  O         -1.6240   31.4430  -16.1240 O.2    84  PRO84      -0.2718
     38  CB         1.0810   31.8750  -16.0380 C.3    84  PRO84       0.0282
     39  CG         1.5130   31.3890  -17.3840 C.3    84  PRO84       0.0208
     40  CD         2.0330   30.0060  -17.1330 C.3    84  PRO84       0.0893
     41  N         -1.6340   29.5650  -14.8840 N.am   85  LEU85      -0.1966
     42  CA        -3.0710   29.3440  -14.9800 C.3    85  LEU85       0.1728
     43  C         -3.7370   29.9140  -13.7340 C.2    85  LEU85       0.2616
     44  O         -3.4620   29.4650  -12.6160 O.2    85  LEU85      -0.2715
     45  CB        -3.3800   27.8550  -15.1370 C.3    85  LEU85       0.0311
     46  CG        -4.8410   27.4700  -15.3690 C.3    85  LEU85       0.0022
     47  CD1       -5.3430   28.0560  -16.6780 C.3    85  LEU85       0.0001
     48  CD2       -5.0010   25.9590  -15.3660 C.3    85  LEU85       0.0001
     49  N         -4.6090   30.8990  -13.9310 N.am   86  THR86      -0.1951
     50  CA        -5.2080   31.6130  -12.8130 C.3    86  THR86       0.1897
     51  C         -6.2460   30.7510  -12.1030 C.2    86  THR86       0.2313
     52  O         -7.0350   30.0460  -12.7380 O.2    86  THR86      -0.2863
     53  CB        -5.8470   32.9130  -13.3050 C.3    86  THR86       0.1794
     54  OG1       -4.8380   33.7510  -13.8820 O.3    86  THR86      -0.2208
     55  CG2       -6.5120   33.6570  -12.1590 C.3    86  THR86       0.0378
     56  N        -13.1540   27.9150  -12.7960 N.3    91  ARG91      -0.1245
     57  CA       -12.2180   26.8630  -13.1830 C.3    91  ARG91       0.1563
     58  C        -12.0930   25.7920  -12.1060 C.2    91  ARG91       0.2260
     59  O        -11.9410   24.6060  -12.4220 O.2    91  ARG91      -0.2867
     60  CB       -10.8440   27.4590  -13.4940 C.3    91  ARG91       0.0307
     61  CG       -10.7640   28.2330  -14.7960 C.3    91  ARG91       0.0489
     62  CD        -9.3800   28.8370  -14.9740 C.3    91  ARG91       0.2205
     63  NE        -9.2000   29.4500  -16.2870 N.pl3  91  ARG91      -0.0865
     64  CZ        -8.2210   30.2990  -16.5840 C.cat  91  ARG91       0.5346
     65  NH1       -7.3320   30.6370  -15.6610 N.pl3  91  ARG91       0.1354
     66  NH2       -8.1310   30.8100  -17.8040 N.pl3  91  ARG91       0.1354
     67  N         -6.0460   42.3560  -22.7820 N.3   133  VAL133     -0.1245
     68  CA        -6.0250   41.2970  -23.7810 C.3   133  VAL133      0.1561
     69  C         -7.3970   40.6430  -23.8660 C.2   133  VAL133      0.2260
     70  O         -8.0430   40.3670  -22.8440 O.2   133  VAL133     -0.2867
     71  CB        -4.9320   40.2680  -23.4430 C.3   133  VAL133      0.0252
     72  CG1       -5.0110   39.0670  -24.3760 C.3   133  VAL133      0.0019
     73  CG2       -3.5570   40.9170  -23.5100 C.3   133  VAL133      0.0019
     74  N         -8.7070   37.1710  -21.9670 N.3   136  GLY136     -0.1210
     75  CA        -7.8640   36.8770  -20.8280 C.3   136  GLY136      0.1956
     76  C         -8.6120   37.0140  -19.5130 C.2   136  GLY136      0.2613
     77  O         -9.7690   37.4310  -19.4510 O.2   136  GLY136     -0.2717
     78  N         -7.9230   36.6380  -18.4330 N.am  137  SER137     -0.1938
     79  CA        -8.5390   36.6860  -17.1100 C.3   137  SER137      0.2055
     80  C         -8.8610   38.1180  -16.6950 C.2   137  SER137      0.2643
     81  O         -9.8720   38.3650  -16.0260 O.2   137  SER137     -0.2714
     82  CB        -7.6260   36.0210  -16.0800 C.3   137  SER137      0.2130
     83  OG        -7.6110   34.6140  -16.2500 O.3   137  SER137     -0.2179
     84  N         -8.0070   39.0720  -17.0700 N.am  138  THR138     -0.1950
     85  CA        -8.2550   40.4710  -16.7320 C.3   138  THR138      0.1897
     86  C         -9.5510   40.9680  -17.3660 C.2   138  THR138      0.2313
     87  O        -10.3860   41.6020  -16.7030 O.2   138  THR138     -0.2863
     88  CB        -7.0700   41.3270  -17.1810 C.3   138  THR138      0.1794
     89  OG1       -5.8870   40.9130  -16.4870 O.3   138  THR138     -0.2208
     90  CG2       -7.3310   42.7990  -16.8980 C.3   138  THR138      0.0378
     91  N         -0.6870   39.7280  -25.5380 N.3   169  SER169     -0.1217
     92  CA         0.0370   40.6290  -24.6440 C.3   169  SER169      0.1889
     93  C          1.0560   41.4760  -25.3970 C.2   169  SER169      0.2288
     94  O          1.2100   42.6700  -25.1140 O.2   169  SER169     -0.2866
     95  CB         0.7240   39.8240  -23.5410 C.3   169  SER169      0.2089
     96  OG         1.6470   38.8960  -24.0850 O.3   169  SER169     -0.2183
     97  N         -3.9580   47.0910  -19.0900 N.3   184  LEU184     -0.1231
     98  CA        -4.2640   46.4470  -17.8190 C.3   184  LEU184      0.1693
     99  C         -4.0010   44.9530  -17.9510 C.2   184  LEU184      0.2592
    100  O         -4.5790   44.2890  -18.8180 O.2   184  LEU184     -0.2718
    101  CB        -5.7100   46.7160  -17.4070 C.3   184  LEU184      0.0284
    102  CG        -5.9870   48.1710  -17.0230 C.3   184  LEU184      0.0019
    103  CD1       -6.7770   48.8790  -18.1150 C.3   184  LEU184      0.0001
    104  CD2       -6.6950   48.2620  -15.6830 C.3   184  LEU184      0.0001
    105  N         -3.1280   44.4280  -17.0960 N.am  185  MET185     -0.1965
    106  CA        -2.6380   43.0660  -17.2560 C.3   185  MET185      0.1736
    107  C         -2.1560   42.5510  -15.9080 C.2   185  MET185      0.2616
    108  O         -2.0650   43.2970  -14.9310 O.2   185  MET185     -0.2715
    109  CB        -1.5230   43.0150  -18.3050 C.3   185  MET185      0.0427
    110  CG        -0.4240   44.0300  -18.0390 C.3   185  MET185      0.0599
    111  SD         0.9710   43.9650  -19.1760 S.3   185  MET185     -0.1393
    112  CE         1.1800   42.2030  -19.3640 C.3   185  MET185      0.0692
    113  N         -1.8410   41.2590  -15.8710 N.am  186  GLU186     -0.1977
    114  CA        -1.3860   40.6350  -14.6360 C.3   186  GLU186      0.1602
    115  C          0.0050   41.1380  -14.2630 C.2   186  GLU186      0.2287
    116  O          0.8850   41.2760  -15.1170 O.2   186  GLU186     -0.2864
    117  CB        -1.3990   39.1140  -14.7790 C.3   186  GLU186      0.0415
    118  CG        -2.8080   38.5410  -14.8980 C.3   186  GLU186      0.1163
    119  CD        -2.8260   37.0460  -15.1510 C.2   186  GLU186      0.3649
    120  OE1       -1.7610   36.4810  -15.4770 O.co2 186  GLU186     -0.2457
    121  OE2       -3.9090   36.4380  -15.0250 O.co2 186  GLU186     -0.2457
    122  N          3.6780   39.7960  -15.2080 N.3   189  SER189     -0.1217
    123  CA         4.2110   40.1380  -16.5210 C.3   189  SER189      0.1889
    124  C          4.6550   41.5960  -16.5720 C.2   189  SER189      0.2288
    125  O          5.6360   41.9260  -17.2500 O.2   189  SER189     -0.2866
    126  CB         3.1710   39.8490  -17.6040 C.3   189  SER189      0.2089
    127  OG         2.8780   38.4640  -17.6760 O.3   189  SER189     -0.2183
    128  N         -1.4110   31.5710   -9.3300 N.3   212  TYR212     -0.1241
    129  CA        -1.2090   30.4900  -10.2850 C.3   212  TYR212      0.1605
    130  C         -1.1340   29.1650   -9.5350 C.2   212  TYR212      0.2264
    131  O         -0.4050   29.0480   -8.5460 O.2   212  TYR212     -0.2867
    132  CB         0.0770   30.6980  -11.0880 C.3   212  TYR212      0.0534
    133  CG         0.1170   31.9400  -11.9510 C.ar  212  TYR212     -0.0201
    134  CD1       -1.0470   32.5060  -12.4550 C.ar  212  TYR212     -0.0009
    135  CD2        1.3300   32.5370  -12.2770 C.ar  212  TYR212     -0.0009
    136  CE1       -1.0040   33.6380  -13.2500 C.ar  212  TYR212      0.0417
    137  CE2        1.3830   33.6660  -13.0720 C.ar  212  TYR212      0.0417
    138  CZ         0.2140   34.2120  -13.5580 C.ar  212  TYR212      0.1957
    139  OH         0.2650   35.3400  -14.3450 O.3   212  TYR212     -0.2866
@<TRIPOS>BOND
     1    91    92    1
     2    93    94    2
     3    93    92    1
     4    92    95    1
     5    72    71    1
     6    96    95    1
     7    69    68    1
     8    69    70    2
     9    68    71    1
    10    68    67    1
    11    73    71    1
    12     1     2    1
    13    22    23    1
    14     9     7   ar
    15     8     7   ar
    16     2     3    1
    17     2     5    1
    18    74    75    1
    19     7     6    1
    20     3     4    2
    21     5     6    1
    22    29    31   ar
    23    29    27   ar
    24    31    32   ar
    25    23    24    1
    26    23    26    1
    27    24    25    2
    28    75    76    1
    29    26    27    1
    30    27    28   ar
    31    32    33    1
    32    32    30   ar
    33    76    77    2
    34    76    78   am
    35    28    30   ar
    36   112   111    1
    37   111   110    1
    38    97    98    1
    39    12    13    2
    40    12    11    1
    41   100    99    2
    42    10    11    1
    43    78    79    1
    44   109   110    1
    45   109   106    1
    46   103   102    1
    47    99    98    1
    48    99   105   am
    49    11    14    1
    50    98   101    1
    51    66    64    1
    52    14    15    1
    53   127   126    1
    54   126   123    1
    55    17    15   ar
    56    17    19   ar
    57   101   102    1
    58    39    40    1
    59    39    38    1
    60    86    85    1
    61    86    87    2
    62   106   105    1
    63   106   107    1
    64   125   124    2
    65    88    90    1
    66    88    85    1
    67    88    89    1
    68    40    34    1
    69    79    80    1
    70    79    82    1
    71    84    85    1
    72    84    80   am
    73   102   104    1
    74    15    16   ar
    75    19    20   ar
    76    80    81    2
    77    47    46    1
    78    64    63    2
    79    64    65    1
    80   124   123    1
    81   123   122    1
    82    63    62    1
    83    83    82    1
    84    37    36    2
    85    34    35    1
    86    38    35    1
    87   107   113   am
    88   107   108    2
    89   113   114    1
    90    16    18   ar
    91    36    35    1
    92    36    41   am
    93   120   119   ar
    94    46    48    1
    95    46    45    1
    96    20    18   ar
    97    20    21    1
    98   119   121   ar
    99   119   118    1
   100    45    42    1
   101   116   115    2
   102    42    41    1
   103    42    43    1
   104    62    61    1
   105   118   117    1
   106    61    60    1
   107   117   114    1
   108   114   115    1
   109   139   138    1
   110    49    43   am
   111    49    50    1
   112    54    53    1
   113    43    44    2
   114   138   136   ar
   115   138   137   ar
   116    60    57    1
   117    53    50    1
   118    53    55    1
   119   136   134   ar
   120    57    56    1
   121    57    58    1
   122   137   135   ar
   123    50    51    1
   124    52    51    2
   125   134   133   ar
   126    59    58    2
   127   135   133   ar
   128   133   132    1
   129   132   129    1
   130   129   130    1
   131   129   128    1
   132   130   131    2
