@<TRIPOS>MOLECULE
tmp/5m2xA00.pdb
 187 183 0 0 0
SMALL
GASTEIGER

@<TRIPOS>ATOM
      1  N        -24.2810  147.4090 -161.1140 N.3    51  SER51      -0.1217
      2  CA       -23.3860  146.3910 -161.6420 C.3    51  SER51       0.1889
      3  C        -22.2960  147.0570 -162.4720 C.2    51  SER51       0.2288
      4  O        -22.2040  148.2860 -162.5580 O.2    51  SER51      -0.2866
      5  CB       -24.1530  145.3630 -162.4810 C.3    51  SER51       0.2089
      6  OG       -24.3560  145.8360 -163.8030 O.3    51  SER51      -0.2183
      7  N        -22.0870  146.3130 -165.8250 N.3    53  GLY53      -0.1225
      8  CA       -22.7130  146.5110 -167.1270 C.3    53  GLY53       0.1811
      9  C        -23.1670  147.9250 -167.4400 C.2    53  GLY53       0.2280
     10  O        -23.1640  148.3310 -168.6090 O.2    53  GLY53      -0.2866
     11  N        -35.0220  144.3230 -171.3120 N.3    74  ASP74      -0.1239
     12  CA       -33.7590  143.7490 -170.8610 C.3    74  ASP74       0.1674
     13  C        -33.9570  142.2550 -170.6300 C.2    74  ASP74       0.2266
     14  O        -34.7110  141.8490 -169.7390 O.2    74  ASP74      -0.2867
     15  CB       -33.2680  144.4350 -169.5880 C.3    74  ASP74       0.1410
     16  CG       -31.8310  144.0710 -169.2380 C.2    74  ASP74       0.3668
     17  OD1      -31.2080  143.2760 -169.9740 O.co2  74  ASP74      -0.2456
     18  OD2      -31.3270  144.5800 -168.2140 O.co2  74  ASP74      -0.2456
     19  N        -32.2540  138.9510 -169.2870 N.3    76  GLY76      -0.1210
     20  CA       -31.1740  138.6500 -168.3680 C.3    76  GLY76       0.1956
     21  C        -30.7000  139.8870 -167.6340 C.2    76  GLY76       0.2612
     22  O        -29.5080  140.2080 -167.6410 O.2    76  GLY76      -0.2717
     23  N        -31.6390  140.6090 -167.0160 N.am   77  CYS77      -0.1956
     24  CA       -31.2890  141.8500 -166.3310 C.3    77  CYS77       0.1843
     25  C        -30.3790  141.6040 -165.1350 C.2    77  CYS77       0.2626
     26  O        -29.5850  142.4800 -164.7760 O.2    77  CYS77      -0.2714
     27  CB       -32.5520  142.5880 -165.8880 C.3    77  CYS77       0.0997
     28  SG       -33.7250  141.5830 -164.9590 S.3    77  CYS77      -0.0797
     29  N        -30.5000  140.4480 -164.4840 N.am   78  GLY78      -0.1940
     30  CA       -29.6500  140.1440 -163.3490 C.3    78  GLY78       0.2014
     31  C        -29.8980  141.0960 -162.2000 C.2    78  GLY78       0.2639
     32  O        -30.9850  141.1030 -161.6170 O.2    78  GLY78      -0.2714
     33  N        -28.8930  141.9070 -161.8640 N.am   79  ARG79      -0.1963
     34  CA       -29.1250  143.0150 -160.9450 C.3    79  ARG79       0.1729
     35  C        -29.9880  144.0920 -161.5910 C.2    79  ARG79       0.2617
     36  O        -30.8510  144.6830 -160.9320 O.2    79  ARG79      -0.2715
     37  CB       -27.7960  143.6090 -160.4800 C.3    79  ARG79       0.0348
     38  CG       -26.9560  142.6920 -159.6100 C.3    79  ARG79       0.0492
     39  CD       -25.5790  143.2960 -159.3750 C.3    79  ARG79       0.2205
     40  NE       -24.7860  142.5230 -158.4240 N.pl3  79  ARG79      -0.0865
     41  CZ       -23.4970  142.7370 -158.1780 C.cat  79  ARG79       0.5346
     42  NH1      -22.8480  143.7000 -158.8180 N.pl3  79  ARG79       0.1354
     43  NH2      -22.8550  141.9850 -157.2940 N.pl3  79  ARG79       0.1354
     44  N        -29.7690  144.3580 -162.8720 N.am   80  GLY80      -0.1940
     45  CA       -30.5430  145.3220 -163.6170 C.3    80  GLY80       0.2014
     46  C        -29.8210  146.6010 -164.0190 C.2    80  GLY80       0.2639
     47  O        -30.4940  147.5750 -164.3810 O.2    80  GLY80      -0.2714
     48  N        -28.4860  146.6280 -163.9700 N.am   81  GLY81      -0.1939
     49  CA       -27.7630  147.8380 -164.3260 C.3    81  GLY81       0.2014
     50  C        -27.9910  148.2730 -165.7590 C.2    81  GLY81       0.2638
     51  O        -27.9640  149.4700 -166.0600 O.2    81  GLY81      -0.2714
     52  N        -28.2250  147.3160 -166.6570 N.am   82  TRP82      -0.1973
     53  CA       -28.6200  147.6520 -168.0200 C.3    82  TRP82       0.1640
     54  C        -29.9310  148.4290 -168.0240 C.2    82  TRP82       0.2290
     55  O        -30.0170  149.5310 -168.5770 O.2    82  TRP82      -0.2864
     56  CB       -28.7260  146.3820 -168.8670 C.3    82  TRP82       0.0576
     57  CG       -27.3980  145.9130 -169.3940 C.ar   82  TRP82       0.0006
     58  CD1      -26.1800  146.0650 -168.7960 C.ar   82  TRP82       0.0946
     59  CD2      -27.1520  145.2420 -170.6380 C.ar   82  TRP82       0.0152
     60  NE1      -25.1940  145.5210 -169.5830 N.ar   82  TRP82      -0.2442
     61  CE2      -25.7630  145.0100 -170.7200 C.ar   82  TRP82       0.0810
     62  CE3      -27.9700  144.8100 -171.6870 C.ar   82  TRP82       0.0012
     63  CZ2      -25.1750  144.3690 -171.8080 C.ar   82  TRP82       0.0191
     64  CZ3      -27.3840  144.1720 -172.7670 C.ar   82  TRP82       0.0001
     65  CH2      -26.0000  143.9570 -172.8180 C.ar   82  TRP82       0.0015
     66  N        -36.2860  141.1570 -167.3960 N.3    98  TYR98      -0.1227
     67  CA       -36.6050  139.7610 -167.1370 C.3    98  TYR98       0.1736
     68  C        -35.3250  139.0050 -166.8240 C.2    98  TYR98       0.2596
     69  O        -34.3050  139.1940 -167.4940 O.2    98  TYR98      -0.2718
     70  CB       -37.3050  139.1260 -168.3430 C.3    98  TYR98       0.0548
     71  CG       -38.6300  139.7690 -168.6780 C.ar   98  TYR98      -0.0200
     72  CD1      -39.8010  139.3510 -168.0610 C.ar   98  TYR98      -0.0009
     73  CD2      -38.7070  140.8010 -169.6030 C.ar   98  TYR98      -0.0009
     74  CE1      -41.0140  139.9410 -168.3620 C.ar   98  TYR98       0.0417
     75  CE2      -39.9150  141.3970 -169.9100 C.ar   98  TYR98       0.0417
     76  CZ       -41.0660  140.9620 -169.2860 C.ar   98  TYR98       0.1957
     77  OH       -42.2740  141.5490 -169.5860 O.3    98  TYR98      -0.2866
     78  N        -35.3800  138.1460 -165.8100 N.am   99  THR99      -0.1939
     79  CA       -34.2380  137.3180 -165.4560 C.3    99  THR99       0.2028
     80  C        -34.7320  136.0680 -164.7420 C.2    99  THR99       0.2642
     81  O        -35.9360  135.8470 -164.5850 O.2    99  THR99      -0.2714
     82  CB       -33.2310  138.0880 -164.5930 C.3    99  THR99       0.1808
     83  OG1      -31.9870  137.3750 -164.5570 O.3    99  THR99      -0.2208
     84  CG2      -33.7630  138.2700 -163.1770 C.3    99  THR99       0.0379
     85  N        -33.7790  135.2420 -164.3130 N.am  100  LYS100     -0.1963
     86  CA       -34.0750  133.9570 -163.6930 C.3   100  LYS100      0.1728
     87  C        -34.0250  134.0420 -162.1700 C.2   100  LYS100      0.2616
     88  O        -35.0350  133.8110 -161.5000 O.2   100  LYS100     -0.2715
     89  CB       -33.1030  132.9040 -164.2380 C.3   100  LYS100      0.0311
     90  CG       -33.3160  131.4920 -163.7320 C.3   100  LYS100      0.0038
     91  CD       -32.5820  130.5170 -164.6400 C.3   100  LYS100      0.0206
     92  CE       -32.8110  129.0690 -164.2510 C.3   100  LYS100      0.1093
     93  NZ       -32.2880  128.1500 -165.3040 N.3   100  LYS100     -0.1314
     94  N        -32.8630  134.3710 -161.6090 N.am  101  GLY101     -0.1955
     95  CA       -32.7450  134.4260 -160.1610 C.3   101  GLY101      0.1869
     96  C        -32.8080  133.0410 -159.5470 C.2   101  GLY101      0.2309
     97  O        -32.2920  132.0620 -160.0970 O.2   101  GLY101     -0.2863
     98  N        -27.9400  132.1510 -158.4400 N.3   105  HIS105     -0.1226
     99  CA       -27.7020  133.2240 -159.3910 C.3   105  HIS105      0.1752
    100  C        -28.3710  134.5210 -158.9420 C.2   105  HIS105      0.2595
    101  O        -29.2410  134.5370 -158.0670 O.2   105  HIS105     -0.2718
    102  CB       -28.1810  132.8210 -160.7840 C.3   105  HIS105      0.0759
    103  CG       -27.1520  132.0750 -161.5770 C.ar  105  HIS105      0.0818
    104  ND1      -26.0290  132.6820 -162.1000 N.ar  105  HIS105     -0.2268
    105  CD2      -27.0660  130.7680 -161.9200 C.ar  105  HIS105      0.1154
    106  CE1      -25.3040  131.7840 -162.7420 C.ar  105  HIS105      0.1986
    107  NE2      -25.9100  130.6140 -162.6480 N.ar  105  HIS105     -0.2212
    108  N        -27.9460  135.6180 -159.5660 N.am  106  GLU106     -0.1979
    109  CA       -28.2790  136.9530 -159.0870 C.3   106  GLU106      0.1602
    110  C        -29.7670  137.2560 -159.2030 C.2   106  GLU106      0.2287
    111  O        -30.4160  136.9230 -160.1990 O.2   106  GLU106     -0.2864
    112  CB       -27.4770  138.0060 -159.8530 C.3   106  GLU106      0.0415
    113  CG       -25.9920  137.9960 -159.5370 C.3   106  GLU106      0.1163
    114  CD       -25.6870  138.6260 -158.1890 C.2   106  GLU106      0.3649
    115  OE1      -25.0460  137.9590 -157.3500 O.co2 106  GLU106     -0.2457
    116  OE2      -26.1070  139.7810 -157.9610 O.co2 106  GLU106     -0.2457
    117  N        -37.8200  133.5100 -164.7420 N.3   125  VAL125     -0.1231
    118  CA       -38.2220  133.4740 -166.1440 C.3   125  VAL125      0.1692
    119  C        -37.0940  132.8440 -166.9500 C.2   125  VAL125      0.2592
    120  O        -36.0420  133.4680 -167.1450 O.2   125  VAL125     -0.2718
    121  CB       -38.5550  134.8720 -166.6860 C.3   125  VAL125      0.0266
    122  CG1      -38.9810  134.7880 -168.1430 C.3   125  VAL125      0.0020
    123  CG2      -39.6370  135.5340 -165.8430 C.3   125  VAL125      0.0020
    124  N        -37.3040  131.6120 -167.4120 N.am  126  ASP126     -0.1960
    125  CA       -36.4380  130.9990 -168.4180 C.3   126  ASP126      0.1840
    126  C        -36.9280  131.4980 -169.7720 C.2   126  ASP126      0.2622
    127  O        -37.8030  130.9020 -170.4030 O.2   126  ASP126     -0.2715
    128  CB       -36.4670  129.4770 -168.3210 C.3   126  ASP126      0.1450
    129  CG       -35.1770  128.8330 -168.8050 C.2   126  ASP126      0.3671
    130  OD1      -34.2650  129.5750 -169.2280 O.co2 126  ASP126     -0.2456
    131  OD2      -35.0710  127.5890 -168.7580 O.co2 126  ASP126     -0.2456
    132  N        -36.3530  132.6180 -170.2170 N.am  127  VAL127     -0.1963
    133  CA       -36.8290  133.3860 -171.3660 C.3   127  VAL127      0.1727
    134  C        -37.0180  132.5250 -172.6130 C.2   127  VAL127      0.2616
    135  O        -37.7110  132.9310 -173.5530 O.2   127  VAL127     -0.2715
    136  CB       -35.8770  134.5570 -171.6650 C.3   127  VAL127      0.0290
    137  CG1      -35.9690  135.6130 -170.5730 C.3   127  VAL127      0.0023
    138  CG2      -34.4530  134.0530 -171.8080 C.3   127  VAL127      0.0023
    139  N        -36.4040  131.3390 -172.6370 N.am  128  PHE128     -0.1974
    140  CA       -36.5970  130.4320 -173.7650 C.3   128  PHE128      0.1639
    141  C        -38.0570  130.0200 -173.9020 C.2   128  PHE128      0.2290
    142  O        -38.5660  129.8700 -175.0200 O.2   128  PHE128     -0.2864
    143  CB       -35.7030  129.2040 -173.6120 C.3   128  PHE128      0.0560
    144  CG       -34.2410  129.5230 -173.6280 C.ar  128  PHE128     -0.0200
    145  CD1      -33.6110  129.8780 -174.8090 C.ar  128  PHE128     -0.0042
    146  CD2      -33.4970  129.4770 -172.4630 C.ar  128  PHE128     -0.0042
    147  CE1      -32.2650  130.1780 -174.8270 C.ar  128  PHE128     -0.0003
    148  CE2      -32.1510  129.7740 -172.4750 C.ar  128  PHE128     -0.0003
    149  CZ       -31.5330  130.1250 -173.6580 C.ar  128  PHE128     -0.0000
    150  N        -28.1060  140.5160 -172.2140 N.3   141  ASP141     -0.1225
    151  CA       -26.7760  140.3090 -171.6510 C.3   141  ASP141      0.1805
    152  C        -26.5960  138.8680 -171.1810 C.2   141  ASP141      0.2598
    153  O        -25.9490  138.6000 -170.1660 O.2   141  ASP141     -0.2718
    154  CB       -26.5170  141.2820 -170.5040 C.3   141  ASP141      0.1424
    155  CG       -25.0390  141.4940 -170.2430 C.2   141  ASP141      0.3668
    156  OD1      -24.2170  140.8220 -170.8980 O.co2 141  ASP141     -0.2456
    157  OD2      -24.6990  142.3380 -169.3880 O.co2 141  ASP141     -0.2456
    158  N        -27.1720  137.9210 -171.9180 N.am  142  ILE142     -0.1966
    159  CA       -27.2140  136.5270 -171.4930 C.3   142  ILE142      0.1727
    160  C        -26.0090  135.8120 -172.0980 C.2   142  ILE142      0.2617
    161  O        -26.0210  135.4140 -173.2640 O.2   142  ILE142     -0.2715
    162  CB       -28.5340  135.8590 -171.8830 C.3   142  ILE142      0.0290
    163  CG1      -29.7070  136.5640 -171.1970 C.3   142  ILE142      0.0022
    164  CG2      -28.5200  134.3920 -171.5010 C.3   142  ILE142      0.0023
    165  CD1      -31.0710  136.0610 -171.6300 C.3   142  ILE142      0.0001
    166  N        -24.9560  135.6570 -171.2890 N.am  143  GLY143     -0.1940
    167  CA       -23.8530  134.7870 -171.6250 C.3   143  GLY143      0.2014
    168  C        -23.4800  133.9410 -170.4210 C.2   143  GLY143      0.2638
    169  O        -23.9310  134.1890 -169.2990 O.2   143  GLY143     -0.2714
    170  N        -22.6440  132.9340 -170.6680 N.am  144  GLU144     -0.1977
    171  CA       -22.2510  132.0150 -169.5960 C.3   144  GLU144      0.1602
    172  C        -20.8460  131.4970 -169.9100 C.2   144  GLU144      0.2287
    173  O        -20.6830  130.4940 -170.6080 O.2   144  GLU144     -0.2864
    174  CB       -23.2490  130.8770 -169.4350 C.3   144  GLU144      0.0415
    175  CG       -23.0870  130.1100 -168.1310 C.3   144  GLU144      0.1163
    176  CD       -24.2810  129.2330 -167.8150 C.2   144  GLU144      0.3649
    177  OE1      -25.1900  129.1400 -168.6660 O.co2 144  GLU144     -0.2457
    178  OE2      -24.3120  128.6390 -166.7150 O.co2 144  GLU144     -0.2457
    179  N        -25.3960  140.0470 -176.2410 N.3   177  LYS177     -0.1245
    180  CA       -24.0890  139.4890 -175.9330 C.3   177  LYS177      0.1561
    181  C        -23.8250  138.2650 -176.7990 C.2   177  LYS177      0.2260
    182  O        -24.6910  137.3990 -176.9550 O.2   177  LYS177     -0.2867
    183  CB       -23.9850  139.1210 -174.4530 C.3   177  LYS177      0.0271
    184  CG       -22.6110  138.5840 -174.0680 C.3   177  LYS177      0.0035
    185  CD       -22.0940  139.1770 -172.7620 C.3   177  LYS177      0.0206
    186  CE       -22.4120  138.2840 -171.5720 C.3   177  LYS177      0.1093
    187  NZ       -21.6950  138.7260 -170.3420 N.3   177  LYS177     -0.1314
@<TRIPOS>BOND
     1   182   181    2
     2   181   180    1
     3   179   180    1
     4   180   183    1
     5   142   141    2
     6   147   145   ar
     7   147   149   ar
     8   145   144   ar
     9   183   184    1
    10   184   185    1
    11   141   140    1
    12   140   143    1
    13   140   139    1
    14   149   148   ar
    15   144   143    1
    16   144   146   ar
    17   135   134    2
    18   161   160    2
    19    65    64   ar
    20    65    63   ar
    21    64    62   ar
    22   185   186    1
    23   139   134   am
    24   134   133    1
    25   148   146   ar
    26   150   151    1
    27   160   159    1
    28   160   166   am
    29   158   159    1
    30   158   152   am
    31   162   164    1
    32   162   159    1
    33   162   163    1
    34   138   136    1
    35    63    61   ar
    36    62    59   ar
    37   136   133    1
    38   136   137    1
    39   151   152    1
    40   151   154    1
    41   165   163    1
    42   167   166    1
    43   167   168    1
    44   186   187    1
    45   133   132    1
    46    11    12    1
    47   152   153    2
    48   156   155   ar
    49    12    13    1
    50    12    15    1
    51    61    59   ar
    52    61    60   ar
    53   170   168   am
    54   170   171    1
    55    59    57   ar
    56    13    14    2
    57   173   172    2
    58   154   155    1
    59   168   169    2
    60   127   126    2
    61   155   157   ar
    62   132   126   am
    63    17    16   ar
    64   172   171    1
    65    75    73   ar
    66    75    76   ar
    67   126   125    1
    68    73    71   ar
    69   171   174    1
    70    15    16    1
    71    77    76    1
    72    60    58   ar
    73   174   175    1
    74    57    56    1
    75    57    58   ar
    76    19    20    1
    77    76    74   ar
    78    16    18   ar
    79   130   129   ar
    80    56    53    1
    81   129   131   ar
    82   129   128    1
    83    71    70    1
    84    71    72   ar
    85   177   176   ar
    86    10     9    2
    87    55    54    2
    88   125   128    1
    89   125   124    1
    90    20    21    1
    91    74    72   ar
    92    70    67    1
    93   122   121    1
    94   175   176    1
    95    54    53    1
    96    53    52    1
    97   176   178   ar
    98    22    21    2
    99    21    23   am
   100    69    68    2
   101     9     8    1
   102   124   119   am
   103    66    67    1
   104   120   119    2
   105    67    68    1
   106     8     7    1
   107    23    24    1
   108   119   118    1
   109    68    78   am
   110   121   118    1
   111   121   123    1
   112    52    50   am
   113    24    27    1
   114    24    25    1
   115   118   117    1
   116    51    50    2
   117    27    28    1
   118    78    79    1
   119    50    49    1
   120    79    80    1
   121    79    82    1
   122    93    92    1
   123    25    26    2
   124    25    29   am
   125    80    81    2
   126    80    85   am
   127    91    92    1
   128    91    90    1
   129    82    83    1
   130    82    84    1
   131    29    30    1
   132    47    46    2
   133    49    48    1
   134    85    86    1
   135    89    90    1
   136    89    86    1
   137    46    48   am
   138    46    45    1
   139     6     5    1
   140    86    87    1
   141    45    44    1
   142    30    31    1
   143    44    35   am
   144   106   107   ar
   145   106   104   ar
   146   107   105   ar
   147     4     3    2
   148     5     2    1
   149     3     2    1
   150    31    33   am
   151    31    32    2
   152    87    94   am
   153    87    88    2
   154   104   103   ar
   155   105   103   ar
   156    33    34    1
   157     2     1    1
   158    94    95    1
   159    35    34    1
   160    35    36    2
   161   103   102    1
   162    34    37    1
   163   102    99    1
   164    37    38    1
   165   111   110    2
   166    95    96    1
   167    97    96    2
   168   112   113    1
   169   112   109    1
   170    38    39    1
   171   108   109    1
   172   108   100   am
   173   113   114    1
   174    99   100    1
   175    99    98    1
   176    39    40    1
   177   110   109    1
   178   100   101    2
   179    42    41    1
   180    40    41    2
   181   114   116   ar
   182   114   115   ar
   183    41    43    1
