@<TRIPOS>MOLECULE
tmp/5m32Y00.pdb
 121 113 0 0 0
SMALL
GASTEIGER

@<TRIPOS>ATOM
      1  N        186.7810  190.1480  285.7650 N.3     1  THR1       -0.1218
      2  CA       185.7430  189.7220  286.7430 C.3     1  THR1        0.1862
      3  C        184.3660  189.9260  286.2000 C.2     1  THR1        0.2287
      4  O        184.0580  190.9880  285.6270 O.2     1  THR1       -0.2866
      5  CB       185.8670  190.4650  288.0660 C.3     1  THR1        0.1770
      6  OG1      187.1980  190.2820  288.5150 O.3     1  THR1       -0.2211
      7  CG2      184.9210  189.9810  289.1520 C.3     1  THR1        0.0375
      8  N        189.1740  184.6950  286.8800 N.3    19  ARG19      -0.1231
      9  CA       190.3880  185.3230  286.3770 C.3    19  ARG19       0.1694
     10  C        190.6150  186.6670  287.0450 C.2    19  ARG19       0.2592
     11  O        189.6820  187.3000  287.5390 O.2    19  ARG19      -0.2718
     12  CB       190.3530  185.4820  284.8560 C.3    19  ARG19       0.0321
     13  CG       190.4680  184.1430  284.1640 C.3    19  ARG19       0.0489
     14  CD       190.3770  184.1640  282.6480 C.3    19  ARG19       0.2205
     15  NE       191.4990  184.7440  281.9290 N.pl3  19  ARG19      -0.0865
     16  CZ       191.4150  185.8550  281.2130 C.cat  19  ARG19       0.5346
     17  NH1      190.2670  186.5030  281.1260 N.pl3  19  ARG19       0.1354
     18  NH2      192.4720  186.3030  280.5630 N.pl3  19  ARG19       0.1354
     19  N        191.8770  187.0850  287.0740 N.am   20  ALA20      -0.1966
     20  CA       192.2860  188.3140  287.7500 C.3    20  ALA20       0.1728
     21  C        193.3610  188.9750  286.8980 C.2    20  ALA20       0.2617
     22  O        194.5210  188.5570  286.9210 O.2    20  ALA20      -0.2715
     23  CB       192.7940  188.0310  289.1540 C.3    20  ALA20       0.0334
     24  N        192.9760  190.0080  286.1600 N.am   21  THR21      -0.1937
     25  CA       193.8810  190.6400  285.2200 C.3    21  THR21       0.2028
     26  C        194.8730  191.5410  285.9460 C.2    21  THR21       0.2642
     27  O        194.7900  191.7660  287.1530 O.2    21  THR21      -0.2714
     28  CB       193.1060  191.4690  284.2030 C.3    21  THR21       0.1808
     29  OG1      192.4940  192.5740  284.8730 O.3    21  THR21      -0.2208
     30  CG2      192.0160  190.6370  283.5660 C.3    21  THR21       0.0379
     31  N        195.8270  192.0540  285.1800 N.am   22  ALA22      -0.1963
     32  CA       196.7480  193.1060  285.5930 C.3    22  ALA22       0.1728
     33  C        196.8690  194.1300  284.4780 C.2    22  ALA22       0.2616
     34  O        197.9590  194.4860  284.0290 O.2    22  ALA22      -0.2715
     35  CB       198.1120  192.5400  285.9650 C.3    22  ALA22       0.0334
     36  N        195.7210  194.6000  284.0030 N.am   23  GLY23      -0.1955
     37  CA       195.6590  195.4560  282.8380 C.3    23  GLY23       0.1869
     38  C        195.4920  194.6760  281.5510 C.2    23  GLY23       0.2309
     39  O        194.4210  194.7090  280.9410 O.2    23  GLY23      -0.2863
     40  N        196.8900  187.3310  285.8720 N.3    27  ALA27      -0.1245
     41  CA       197.6590  186.7410  286.9560 C.3    27  ALA27       0.1562
     42  C        197.2590  185.2950  287.2080 C.2    27  ALA27       0.2260
     43  O        198.0890  184.3880  287.1040 O.2    27  ALA27      -0.2867
     44  CB       197.4880  187.5780  288.2250 C.3    27  ALA27       0.0290
     45  N        190.7380  182.1840  291.0540 N.3    31  VAL31      -0.1245
     46  CA       190.6600  183.1700  292.1210 C.3    31  VAL31       0.1561
     47  C        189.3420  182.9740  292.8440 C.2    31  VAL31       0.2260
     48  O        188.2780  182.9610  292.2140 O.2    31  VAL31      -0.2867
     49  CB       190.7580  184.6030  291.5880 C.3    31  VAL31       0.0252
     50  CG1      190.6950  185.5760  292.7260 C.3    31  VAL31       0.0019
     51  CG2      192.0190  184.7860  290.8200 C.3    31  VAL31       0.0019
     52  N        186.7160  184.4630  294.1120 N.3    33  LYS33      -0.1245
     53  CA       186.0700  185.7700  294.1030 C.3    33  LYS33       0.1561
     54  C        184.7140  185.7730  294.7900 C.2    33  LYS33       0.2260
     55  O        183.8570  186.5960  294.4600 O.2    33  LYS33      -0.2867
     56  CB       185.9470  186.3090  292.6820 C.3    33  LYS33       0.0271
     57  CG       187.2520  186.8450  292.1770 C.3    33  LYS33       0.0035
     58  CD       187.1270  187.5080  290.8410 C.3    33  LYS33       0.0206
     59  CE       187.0490  186.4710  289.7720 C.3    33  LYS33       0.1093
     60  NZ       187.0440  187.0510  288.4140 N.3    33  LYS33      -0.1314
     61  N        183.4010  190.2320  294.9050 N.3    45  MET45      -0.1230
     62  CA       184.4710  191.1830  294.6470 C.3    45  MET45       0.1702
     63  C        184.4620  191.5230  293.1650 C.2    45  MET45       0.2592
     64  O        184.3000  190.6300  292.3320 O.2    45  MET45      -0.2718
     65  CB       185.8350  190.6010  295.0470 C.3    45  MET45       0.0401
     66  CG       186.0580  190.4150  296.5460 C.3    45  MET45       0.0596
     67  SD       187.6910  189.8150  296.9760 S.3    45  MET45      -0.1393
     68  CE       187.5510  188.1010  296.5410 C.3    45  MET45       0.0692
     69  N        184.6120  192.8030  292.8260 N.am   46  ALA46      -0.1966
     70  CA       184.5010  193.2000  291.4240 C.3    46  ALA46       0.1728
     71  C        185.5210  194.2610  291.0390 C.2    46  ALA46       0.2617
     72  O        185.1880  195.2410  290.3670 O.2    46  ALA46      -0.2715
     73  CB       183.0970  193.6940  291.1010 C.3    46  ALA46       0.0334
     74  N        186.7720  194.0950  291.4430 N.am   47  GLY47      -0.1940
     75  CA       187.8040  194.9870  290.9480 C.3    47  GLY47       0.2014
     76  C        188.5920  195.6780  292.0340 C.2    47  GLY47       0.2639
     77  O        188.0580  195.9520  293.1100 O.2    47  GLY47      -0.2714
     78  N        189.8560  195.9850  291.7600 N.am   48  GLY48      -0.1939
     79  CA       190.7290  196.4780  292.8010 C.3    48  GLY48       0.2014
     80  C        191.0250  195.3680  293.7830 C.2    48  GLY48       0.2639
     81  O        190.5500  195.4080  294.9180 O.2    48  GLY48      -0.2714
     82  N        191.8060  194.3760  293.3460 N.am   49  ALA49      -0.1963
     83  CA       191.9200  193.0670  293.9840 C.3    49  ALA49       0.1728
     84  C        192.3800  193.1030  295.4330 C.2    49  ALA49       0.2616
     85  O        192.1300  192.1360  296.1540 O.2    49  ALA49      -0.2715
     86  CB       192.8780  192.1900  293.1870 C.3    49  ALA49       0.0334
     87  N        193.0490  194.1590  295.8790 N.am   50  ALA50      -0.1977
     88  CA       193.3380  194.2890  297.3000 C.3    50  ALA50       0.1597
     89  C        192.3160  195.1250  298.0330 C.2    50  ALA50       0.2287
     90  O        192.1260  194.9320  299.2370 O.2    50  ALA50      -0.2864
     91  CB       194.7070  194.9170  297.5240 C.3    50  ALA50       0.0319
     92  N        188.8720  195.2590  297.3550 N.3    52  CYS52      -0.1221
     93  CA       187.7120  194.4130  297.6220 C.3    52  CYS52       0.1808
     94  C        188.0410  193.2850  298.5940 C.2    52  CYS52       0.2601
     95  O        187.2480  192.9880  299.4900 O.2    52  CYS52      -0.2717
     96  CB       187.1900  193.8720  296.3040 C.3    52  CYS52       0.0970
     97  SG       188.4630  193.0040  295.3950 S.3    52  CYS52      -0.0800
     98  N        189.2350  192.6990  298.4860 N.am   53  SER53      -0.1952
     99  CA       189.6210  191.6370  299.4130 C.3    53  SER53       0.1924
    100  C        189.8010  192.1690  300.8270 C.2    53  SER53       0.2314
    101  O        189.4130  191.5060  301.7990 O.2    53  SER53      -0.2863
    102  CB       190.9010  190.9520  298.9330 C.3    53  SER53       0.2116
    103  OG       191.2880  189.9210  299.8190 O.3    53  SER53      -0.2180
    104  N        183.5740  193.6130  285.2910 N.3   130  SER130     -0.1217
    105  CA       184.1720  194.4350  284.2460 C.3   130  SER130      0.1889
    106  C        183.2760  194.4980  283.0220 C.2   130  SER130      0.2288
    107  O        182.7500  195.5630  282.6780 O.2   130  SER130     -0.2866
    108  CB       185.5340  193.8870  283.8480 C.3   130  SER130      0.2089
    109  OG       185.3810  192.6530  283.1750 O.3   130  SER130     -0.2183
    110  N        188.1270  190.2650  279.5820 N.3   169  TYR169     -0.1241
    111  CA       188.6660  190.3030  280.9370 C.3   169  TYR169      0.1605
    112  C        187.8970  189.4000  281.8910 C.2   169  TYR169      0.2264
    113  O        187.5200  189.8330  282.9830 O.2   169  TYR169     -0.2867
    114  CB       188.6350  191.7300  281.4840 C.3   169  TYR169      0.0534
    115  CG       189.5590  192.7040  280.8000 C.ar  169  TYR169     -0.0201
    116  CD1      190.6280  192.2640  280.0430 C.ar  169  TYR169     -0.0009
    117  CD2      189.3470  194.0700  280.9040 C.ar  169  TYR169     -0.0009
    118  CE1      191.4700  193.1550  279.4130 C.ar  169  TYR169      0.0417
    119  CE2      190.1820  194.9690  280.2760 C.ar  169  TYR169      0.0417
    120  CZ       191.2420  194.5040  279.5320 C.ar  169  TYR169      0.1957
    121  OH       192.0820  195.3880  278.9010 O.3   169  TYR169     -0.2866
@<TRIPOS>BOND
     1   121   120    1
     2   118   120   ar
     3   118   116   ar
     4   120   119   ar
     5   110   111    1
     6   116   115   ar
     7   119   117   ar
     8    18    16    1
     9   115   117   ar
    10   115   114    1
    11   111   114    1
    12   111   112    1
    13    39    38    2
    14    17    16    1
    15    16    15    2
    16    38    37    1
    17   112   113    2
    18    15    14    1
    19    14    13    1
    20   107   106    2
    21    37    36    1
    22   106   105    1
    23   109   108    1
    24    30    28    1
    25   108   105    1
    26    36    33   am
    27    34    33    2
    28    13    12    1
    29    28    29    1
    30    28    25    1
    31   105   104    1
    32    33    32    1
    33    12     9    1
    34    31    32    1
    35    31    26   am
    36    25    26    1
    37    25    24    1
    38    32    35    1
    39     4     3    2
    40     1     2    1
    41    40    41    1
    42    26    27    2
    43    24    21   am
    44     3     2    1
    45     9     8    1
    46     9    10    1
    47     2     5    1
    48    21    22    2
    49    21    20    1
    50    41    42    1
    51    41    44    1
    52    10    19   am
    53    10    11    2
    54    19    20    1
    55    43    42    2
    56    20    23    1
    57     5     6    1
    58     5     7    1
    59    60    59    1
    60    59    58    1
    61    72    71    2
    62    51    49    1
    63    58    57    1
    64    75    74    1
    65    75    76    1
    66    71    70    1
    67    71    74   am
    68    45    46    1
    69    73    70    1
    70    70    69    1
    71    49    46    1
    72    49    50    1
    73    78    76   am
    74    78    79    1
    75    76    77    2
    76    46    47    1
    77    57    56    1
    78    48    47    2
    79    64    63    2
    80    56    53    1
    81    79    80    1
    82    69    63   am
    83    63    62    1
    84    86    83    1
    85    82    80   am
    86    82    83    1
    87    80    81    2
    88    83    84    1
    89    53    52    1
    90    53    54    1
    91    55    54    2
    92    62    61    1
    93    62    65    1
    94    65    66    1
    95    97    96    1
    96    84    87   am
    97    84    85    2
    98    87    88    1
    99    96    93    1
   100    68    67    1
   101    66    67    1
   102    88    91    1
   103    88    89    1
   104    92    93    1
   105    93    94    1
   106    89    90    2
   107    98    94   am
   108    98    99    1
   109    94    95    2
   110   102    99    1
   111   102   103    1
   112    99   100    1
   113   100   101    2
