@<TRIPOS>MOLECULE
tmp/5m39B00.pdb
 127 123 0 0 0
SMALL
GASTEIGER

@<TRIPOS>ATOM
      1  N         -0.0060   18.7340  -51.0390 N.3    40  TRP40      -0.1228
      2  CA        -0.3070   17.3110  -50.8990 C.3    40  TRP40       0.1722
      3  C          0.6900   16.5000  -50.0490 C.2    40  TRP40       0.2437
      4  O          0.1880   15.6790  -49.2790 O.2    40  TRP40      -0.2733
      5  CB        -0.5700   16.6220  -52.2380 C.3    40  TRP40       0.0563
      6  CG         0.5760   16.6010  -53.1770 C.ar   40  TRP40       0.0003
      7  CD1        0.8820   17.5370  -54.1150 C.ar   40  TRP40       0.0946
      8  CD2        1.5510   15.5700  -53.2970 C.ar   40  TRP40       0.0152
      9  NE1        2.0310   17.1830  -54.7700 N.ar   40  TRP40      -0.2442
     10  CE2        2.4650   15.9760  -54.2900 C.ar   40  TRP40       0.0810
     11  CE3        1.7650   14.3460  -52.6360 C.ar   40  TRP40       0.0012
     12  CZ2        3.5680   15.2020  -54.6530 C.ar   40  TRP40       0.0191
     13  CZ3        2.8500   13.5680  -53.0100 C.ar   40  TRP40       0.0001
     14  CH2        3.7320   13.9920  -54.0110 C.ar   40  TRP40       0.0015
     15  N          2.0370   16.6950  -50.0470 N.am   41  PRO41      -0.2718
     16  CA         2.8640   15.8620  -49.1580 C.3    41  PRO41       0.1535
     17  C          2.6590   16.1650  -47.6760 C.2    41  PRO41       0.2598
     18  O          3.0690   15.3690  -46.8360 O.2    41  PRO41      -0.2715
     19  CB         4.3090   16.2080  -49.5640 C.3    41  PRO41       0.0310
     20  CG         4.1870   16.8520  -50.9200 C.3    41  PRO41       0.0237
     21  CD         2.8810   17.5710  -50.8850 C.3    41  PRO41       0.0939
     22  N          2.0470   17.3130  -47.3640 N.am   42  PHE42      -0.1974
     23  CA         1.8870   17.8200  -46.0010 C.3    42  PHE42       0.1639
     24  C          0.4550   17.6990  -45.4710 C.2    42  PHE42       0.2290
     25  O          0.1900   18.1610  -44.3680 O.2    42  PHE42      -0.2864
     26  CB         2.3460   19.3020  -45.9830 C.3    42  PHE42       0.0560
     27  CG         3.7300   19.4830  -46.5710 C.ar   42  PHE42      -0.0200
     28  CD1        4.8710   19.2870  -45.7900 C.ar   42  PHE42      -0.0042
     29  CD2        3.8960   19.8550  -47.9010 C.ar   42  PHE42      -0.0042
     30  CE1        6.1560   19.4470  -46.3410 C.ar   42  PHE42      -0.0003
     31  CE2        5.1840   19.9980  -48.4500 C.ar   42  PHE42      -0.0003
     32  CZ         6.2990   19.7930  -47.6680 C.ar   42  PHE42      -0.0000
     33  N         -1.2420   15.0040  -44.5770 N.3    44  GLN44      -0.1245
     34  CA        -1.4180   13.8790  -43.6770 C.3    44  GLN44       0.1566
     35  C         -0.0630   13.5240  -43.0730 C.2    44  GLN44       0.2260
     36  O          0.9730   13.9110  -43.6290 O.2    44  GLN44      -0.2867
     37  CB        -2.0150   12.6730  -44.4410 C.3    44  GLN44       0.0367
     38  CG        -1.1580   12.1510  -45.6040 C.3    44  GLN44       0.0905
     39  CD        -1.2310   13.0420  -46.8310 C.2    44  GLN44       0.2608
     40  OE1       -2.3240   13.4080  -47.2960 O.2    44  GLN44      -0.2717
     41  NE2       -0.0710   13.4810  -47.3330 N.am   44  GLN44      -0.0878
     42  N          3.4540   11.7810  -42.3640 N.3    46  VAL46      -0.1245
     43  CA         4.3890   11.0810  -43.2400 C.3    46  VAL46       0.1561
     44  C          4.2650    9.5680  -42.9780 C.2    46  VAL46       0.2260
     45  O          4.4700    9.1160  -41.8540 O.2    46  VAL46      -0.2867
     46  CB         5.8460   11.5830  -43.0490 C.3    46  VAL46       0.0252
     47  CG1        6.8530   10.7170  -43.8110 C.3    46  VAL46       0.0019
     48  CG2        5.9730   13.0440  -43.4600 C.3    46  VAL46       0.0019
     49  N          5.0500    3.1810  -46.0360 N.3    50  LYS50      -0.1231
     50  CA         4.6280    3.2170  -47.4410 C.3    50  LYS50       0.1693
     51  C          5.6680    3.8940  -48.3340 C.2    50  LYS50       0.2591
     52  O          5.9060    3.4230  -49.4500 O.2    50  LYS50      -0.2718
     53  CB         3.2760    3.9330  -47.5690 C.3    50  LYS50       0.0285
     54  CG         2.5490    3.7070  -48.8890 C.3    50  LYS50       0.0035
     55  CD         1.3970    4.6940  -49.0580 C.3    50  LYS50       0.0206
     56  CE         0.7170    4.5530  -50.3940 C.3    50  LYS50       0.1093
     57  NZ        -0.2140    5.6820  -50.6610 N.3    50  LYS50      -0.1314
     58  N          6.2990    4.9790  -47.8370 N.am   51  LEU51      -0.1980
     59  CA         7.2870    5.7400  -48.5950 C.3    51  LEU51       0.1596
     60  C          8.6980    5.1950  -48.5110 C.2    51  LEU51       0.2287
     61  O          9.5900    5.7420  -49.1550 O.2    51  LEU51      -0.2864
     62  CB         7.2570    7.2210  -48.1780 C.3    51  LEU51       0.0297
     63  CG         5.9490    7.9490  -48.4280 C.3    51  LEU51       0.0022
     64  CD1        5.9390    9.2770  -47.7140 C.3    51  LEU51       0.0001
     65  CD2        5.6770    8.1270  -49.9190 C.3    51  LEU51       0.0001
     66  N         10.9400    5.1380  -45.9280 N.3    53  LEU53      -0.1245
     67  CA        11.8190    6.1030  -45.2680 C.3    53  LEU53       0.1561
     68  C         12.0160    5.5620  -43.8340 C.2    53  LEU53       0.2260
     69  O         11.4400    6.1050  -42.8980 O.2    53  LEU53      -0.2867
     70  CB        11.1970    7.5220  -45.2750 C.3    53  LEU53       0.0270
     71  CG        10.8120    8.1220  -46.6420 C.3    53  LEU53       0.0019
     72  CD1        9.9330    9.3310  -46.4730 C.3    53  LEU53       0.0001
     73  CD2       12.0380    8.4940  -47.4680 C.3    53  LEU53       0.0001
     74  N         12.9050    8.0530  -40.9540 N.3    56  TYR56      -0.1241
     75  CA        12.0850    9.2560  -40.7490 C.3    56  TYR56       0.1605
     76  C         11.7530    9.5170  -39.2850 C.2    56  TYR56       0.2264
     77  O         12.0480   10.6090  -38.7880 O.2    56  TYR56      -0.2867
     78  CB        10.8120    9.2790  -41.6160 C.3    56  TYR56       0.0534
     79  CG        10.1230   10.6260  -41.5400 C.ar   56  TYR56      -0.0201
     80  CD1       10.4960   11.6720  -42.3830 C.ar   56  TYR56      -0.0009
     81  CD2        9.1810   10.8900  -40.5540 C.ar   56  TYR56      -0.0009
     82  CE1        9.9410   12.9420  -42.2520 C.ar   56  TYR56       0.0417
     83  CE2        8.5870   12.1440  -40.4400 C.ar   56  TYR56       0.0417
     84  CZ         8.9610   13.1620  -41.3040 C.ar   56  TYR56       0.1957
     85  OH         8.4180   14.4180  -41.1660 O.3    56  TYR56      -0.2866
     86  N          5.8980   21.6640  -38.6210 N.3    91  MET91      -0.1245
     87  CA         5.7360   20.9670  -39.8900 C.3    91  MET91       0.1570
     88  C          6.8060   21.4130  -40.8970 C.2    91  MET91       0.2261
     89  O          7.4550   20.5650  -41.5240 O.2    91  MET91      -0.2867
     90  CB         4.3310   21.2060  -40.4320 C.3    91  MET91       0.0387
     91  CG         4.0910   20.5550  -41.7680 C.3    91  MET91       0.0595
     92  SD         2.4440   20.9240  -42.4110 S.3    91  MET91      -0.1393
     93  CE         2.7210   22.5820  -43.0520 C.3    91  MET91       0.0692
     94  N         10.5120   19.1630  -42.2260 N.3    95  CYS95      -0.1235
     95  CA        10.9120   18.9350  -43.6050 C.3    95  CYS95       0.1677
     96  C         12.3590   19.3890  -43.8220 C.2    95  CYS95       0.2270
     97  O         13.1440   18.6940  -44.4660 O.2    95  CYS95      -0.2867
     98  CB         9.9580   19.6750  -44.5250 C.3    95  CYS95       0.0956
     99  SG        10.2230   19.3240  -46.2710 S.3    95  CYS95      -0.0801
    100  N         14.6680   16.6890  -41.8870 N.3    98  TYR98      -0.1227
    101  CA        14.8300   15.3900  -42.5040 C.3    98  TYR98       0.1736
    102  C         15.5920   15.4500  -43.8050 C.2    98  TYR98       0.2595
    103  O         16.4140   14.5700  -44.0920 O.2    98  TYR98      -0.2718
    104  CB        13.4590   14.7150  -42.7050 C.3    98  TYR98       0.0548
    105  CG        13.5930   13.3210  -43.2730 C.ar   98  TYR98      -0.0200
    106  CD1       14.1200   12.2830  -42.5070 C.ar   98  TYR98      -0.0009
    107  CD2       13.2930   13.0590  -44.6100 C.ar   98  TYR98      -0.0009
    108  CE1       14.3340   11.0180  -43.0520 C.ar   98  TYR98       0.0417
    109  CE2       13.4890   11.7940  -45.1590 C.ar   98  TYR98       0.0417
    110  CZ        14.0100   10.7780  -44.3760 C.ar   98  TYR98       0.1957
    111  OH        14.2390    9.5240  -44.9090 O.3    98  TYR98      -0.2866
    112  N         15.3190   16.4910  -44.5860 N.am   99  ASN99      -0.1974
    113  CA        15.9230   16.6760  -45.8840 C.3    99  ASN99       0.1688
    114  C         17.1470   17.6140  -45.8160 C.2    99  ASN99       0.2292
    115  O         17.6630   17.8810  -44.7230 O.2    99  ASN99      -0.2864
    116  CB        14.8380   17.1150  -46.8600 C.3    99  ASN99       0.1181
    117  CG        13.6930   16.1190  -46.8970 C.2    99  ASN99       0.2629
    118  OD1       13.8000   15.0370  -47.4990 O.2    99  ASN99      -0.2716
    119  ND2       12.6010   16.4240  -46.1980 N.am   99  ASN99      -0.0877
    120  N         11.6590   18.7790  -52.0760 N.3   105  ILE105     -0.1245
    121  CA        10.6140   18.7600  -51.0530 C.3   105  ILE105      0.1561
    122  C         10.7940   19.9620  -50.1080 C.2   105  ILE105      0.2260
    123  O          9.8060   20.5190  -49.6130 O.2   105  ILE105     -0.2867
    124  CB        10.5260   17.4120  -50.3040 C.3   105  ILE105      0.0252
    125  CG1        9.2550   17.3250  -49.4140 C.3   105  ILE105      0.0019
    126  CG2       11.8150   17.1070  -49.5190 C.3   105  ILE105      0.0019
    127  CD1        7.9400   17.0600  -50.1630 C.3   105  ILE105      0.0001
@<TRIPOS>BOND
     1     9    10   ar
     2     9     7   ar
     3    12    10   ar
     4    12    14   ar
     5    10     8   ar
     6     7     6   ar
     7    14    13   ar
     8     8     6   ar
     9     8    11   ar
    10     6     5    1
    11    13    11   ar
    12     5     2    1
    13   120   121    1
    14   121   124    1
    15   121   122    1
    16     1     2    1
    17    20    21    1
    18    20    19    1
    19     2     3    1
    20    21    15    1
    21    57    56    1
    22    56    55    1
    23   124   126    1
    24   124   125    1
    25   127   125    1
    26   122   123    2
    27     3    15   am
    28     3     4    2
    29    15    16    1
    30    65    63    1
    31    19    16    1
    32    52    51    2
    33    16    17    1
    34    61    60    2
    35    55    54    1
    36    54    53    1
    37    59    60    1
    38    59    62    1
    39    59    58    1
    40    31    29   ar
    41    31    32   ar
    42    63    62    1
    43    63    64    1
    44    51    58   am
    45    51    50    1
    46    29    27   ar
    47    17    22   am
    48    17    18    2
    49    32    30   ar
    50    53    50    1
    51   118   117    2
    52    73    71    1
    53    50    49    1
    54    22    23    1
    55    41    39   am
    56    40    39    2
    57   117   116    1
    58   117   119   am
    59   116   113    1
    60    39    38    1
    61    71    72    1
    62    71    70    1
    63    27    26    1
    64    27    28   ar
    65    30    28   ar
    66    99    98    1
    67    23    26    1
    68    23    24    1
    69    66    67    1
    70   113   114    1
    71   113   112    1
    72   114   115    2
    73    38    37    1
    74    24    25    2
    75    70    67    1
    76    67    68    1
    77   109   107   ar
    78   109   110   ar
    79   111   110    1
    80   107   105   ar
    81   112   102   am
    82    33    34    1
    83    98    95    1
    84    97    96    2
    85    37    34    1
    86   110   108   ar
    87   103   102    2
    88    68    69    2
    89    96    95    1
    90    47    46    1
    91   102   101    1
    92    34    35    1
    93    36    35    2
    94    95    94    1
    95    48    46    1
    96   105   104    1
    97   105   106   ar
    98    43    46    1
    99    43    44    1
   100    43    42    1
   101    93    92    1
   102   108   106   ar
   103    44    45    2
   104   104   101    1
   105   101   100    1
   106    92    91    1
   107    80    82   ar
   108    80    79   ar
   109    82    84   ar
   110    91    90    1
   111    78    79    1
   112    78    75    1
   113    79    81   ar
   114    89    88    2
   115    84    85    1
   116    84    83   ar
   117    74    75    1
   118    88    87    1
   119    75    76    1
   120    81    83   ar
   121    90    87    1
   122    87    86    1
   123    76    77    2
