@<TRIPOS>MOLECULE
tmp/5m3aA00.pdb
 126 122 0 0 0
SMALL
GASTEIGER

@<TRIPOS>ATOM
      1  N         33.6040   44.4160    1.1700 N.3    40  TRP40      -0.1228
      2  CA        33.7690   45.8050    1.6080 C.3    40  TRP40       0.1722
      3  C         32.5410   46.7020    1.8760 C.2    40  TRP40       0.2437
      4  O         32.5530   47.4300    2.8360 O.2    40  TRP40      -0.2733
      5  CB        34.8420   46.5450    0.7930 C.3    40  TRP40       0.0563
      6  CG        34.4910   46.7750   -0.6160 C.ar   40  TRP40       0.0003
      7  CD1       34.7960   45.9730   -1.6620 C.ar   40  TRP40       0.0946
      8  CD2       33.7810   47.8910   -1.1580 C.ar   40  TRP40       0.0152
      9  NE1       34.3300   46.5080   -2.8230 N.ar   40  TRP40      -0.2442
     10  CE2       33.6890   47.6850   -2.5450 C.ar   40  TRP40       0.0810
     11  CE3       33.2090   49.0390   -0.6080 C.ar   40  TRP40       0.0012
     12  CZ2       33.0570   48.5750   -3.3790 C.ar   40  TRP40       0.0191
     13  CZ3       32.5750   49.9140   -1.4400 C.ar   40  TRP40       0.0001
     14  CH2       32.5060   49.6850   -2.8120 C.ar   40  TRP40       0.0015
     15  N         31.5310   46.6410    1.0230 N.am   41  PRO41      -0.2718
     16  CA        30.3690   47.4960    1.2610 C.3    41  PRO41       0.1535
     17  C         29.6100   47.0780    2.5010 C.2    41  PRO41       0.2598
     18  O         28.9970   47.9290    3.0150 O.2    41  PRO41      -0.2715
     19  CB        29.4840   47.2650    0.0430 C.3    41  PRO41       0.0310
     20  CG        30.3820   46.6830   -0.9850 C.3    41  PRO41       0.0237
     21  CD        31.3890   45.8810   -0.2240 C.3    41  PRO41       0.0939
     22  N         29.7040   45.8190    2.9200 N.am   42  PHE42      -0.1974
     23  CA        28.9730   45.2100    4.0250 C.3    42  PHE42       0.1639
     24  C         29.7730   45.0930    5.3310 C.2    42  PHE42       0.2290
     25  O         29.2430   44.5790    6.3120 O.2    42  PHE42      -0.2864
     26  CB        28.4230   43.8390    3.5790 C.3    42  PHE42       0.0560
     27  CG        27.5870   43.9150    2.3190 C.ar   42  PHE42      -0.0200
     28  CD1       26.2610   44.3340    2.3670 C.ar   42  PHE42      -0.0042
     29  CD2       28.1380   43.6080    1.0800 C.ar   42  PHE42      -0.0042
     30  CE1       25.4970   44.4280    1.2000 C.ar   42  PHE42      -0.0003
     31  CE2       27.3700   43.6910   -0.0850 C.ar   42  PHE42      -0.0003
     32  CZ        26.0560   44.1050   -0.0180 C.ar   42  PHE42      -0.0000
     33  N         30.6310   47.4680    7.4180 N.3    44  GLN44      -0.1245
     34  CA        30.2660   48.5300    8.3620 C.3    44  GLN44       0.1566
     35  C         28.8330   49.0080    8.0910 C.2    44  GLN44       0.2260
     36  O         28.3550   48.8270    6.9650 O.2    44  GLN44      -0.2867
     37  CB        31.2610   49.7250    8.2780 C.3    44  GLN44       0.0367
     38  CG        31.3620   50.4160    6.9020 C.3    44  GLN44       0.0905
     39  CD        32.1350   49.6030    5.8870 C.2    44  GLN44       0.2608
     40  OE1       33.2690   49.1790    6.1270 O.2    44  GLN44      -0.2717
     41  NE2       31.5140   49.3290    4.7480 N.am   44  GLN44      -0.0878
     42  N         25.6460   51.1880    6.9040 N.3    46  VAL46      -0.1245
     43  CA        25.4970   52.1080    5.7900 C.3    46  VAL46       0.1561
     44  C         25.5160   53.5600    6.2580 C.2    46  VAL46       0.2260
     45  O         24.7050   53.9440    7.0630 O.2    46  VAL46      -0.2867
     46  CB        24.1900   51.8540    5.0390 C.3    46  VAL46       0.0252
     47  CG1       23.8820   52.9620    4.0490 C.3    46  VAL46       0.0019
     48  CG2       24.2050   50.4870    4.4060 C.3    46  VAL46       0.0019
     49  N         27.2790   58.3440    1.6060 N.3    51  LEU51      -0.1245
     50  CA        26.8420   57.6550    0.4150 C.3    51  LEU51       0.1561
     51  C         25.7140   58.3460   -0.2870 C.2    51  LEU51       0.2260
     52  O         25.3130   58.0020   -1.2860 O.2    51  LEU51      -0.2867
     53  CB        26.4110   56.2350    0.7340 C.3    51  LEU51       0.0270
     54  CG        27.4590   55.3360    1.3800 C.3    51  LEU51       0.0019
     55  CD1       26.8110   54.0140    1.7280 C.3    51  LEU51       0.0001
     56  CD2       28.6490   55.1280    0.4690 C.3    51  LEU51       0.0001
     57  N         22.4710   58.7320    0.3580 N.3    53  LEU53      -0.1245
     58  CA        21.2720   57.8920    0.3360 C.3    53  LEU53       0.1561
     59  C         20.3570   58.4070    1.4710 C.2    53  LEU53       0.2260
     60  O         20.2110   57.7300    2.4930 O.2    53  LEU53      -0.2867
     61  CB        21.6260   56.3940    0.5350 C.3    53  LEU53       0.0270
     62  CG        22.7340   55.7770   -0.3300 C.3    53  LEU53       0.0019
     63  CD1       23.0710   54.3710    0.1490 C.3    53  LEU53       0.0001
     64  CD2       22.3540   55.7470   -1.8100 C.3    53  LEU53       0.0001
     65  N         17.5690   55.9950    2.6360 N.3    56  TYR56      -0.1241
     66  CA        17.9040   54.6840    3.1550 C.3    56  TYR56       0.1605
     67  C         17.2250   54.2740    4.4570 C.2    56  TYR56       0.2264
     68  O         16.5410   53.2720    4.5080 O.2    56  TYR56      -0.2867
     69  CB        19.4230   54.4810    3.2740 C.3    56  TYR56       0.0534
     70  CG        19.7810   53.0190    3.5240 C.ar   56  TYR56      -0.0201
     71  CD1       19.9210   52.1210    2.4810 C.ar   56  TYR56      -0.0009
     72  CD2       19.9620   52.5400    4.8110 C.ar   56  TYR56      -0.0009
     73  CE1       20.2250   50.7890    2.7130 C.ar   56  TYR56       0.0417
     74  CE2       20.2690   51.2220    5.0460 C.ar   56  TYR56       0.0417
     75  CZ        20.4000   50.3420    4.0000 C.ar   56  TYR56       0.1957
     76  OH        20.6980   49.0230    4.2540 O.3    56  TYR56      -0.2866
     77  N         19.4710   44.8200    1.4890 N.3    95  CYS95      -0.1235
     78  CA        20.1070   45.1410    0.2180 C.3    95  CYS95       0.1677
     79  C         19.1500   44.9220   -0.9590 C.2    95  CYS95       0.2270
     80  O         19.0680   45.7740   -1.8450 O.2    95  CYS95      -0.2867
     81  CB        21.3980   44.3480    0.0510 C.3    95  CYS95       0.0956
     82  SG        22.3830   44.8470   -1.3810 S.3    95  CYS95      -0.0801
     83  N         16.1210   47.6690   -0.7360 N.3    98  TYR98      -0.1227
     84  CA        16.5340   49.0140   -1.1130 C.3    98  TYR98       0.1736
     85  C         16.9220   49.1680   -2.5880 C.2    98  TYR98       0.2595
     86  O         16.6220   50.2010   -3.1790 O.2    98  TYR98      -0.2718
     87  CB        17.6650   49.5230   -0.1930 C.3    98  TYR98       0.0548
     88  CG        18.0660   50.9510   -0.4910 C.ar   98  TYR98      -0.0200
     89  CD1       17.2310   52.0160   -0.1590 C.ar   98  TYR98      -0.0009
     90  CD2       19.2590   51.2380   -1.1460 C.ar   98  TYR98      -0.0009
     91  CE1       17.5780   53.3300   -0.4690 C.ar   98  TYR98       0.0417
     92  CE2       19.6140   52.5460   -1.4650 C.ar   98  TYR98       0.0417
     93  CZ        18.7740   53.5900   -1.1170 C.ar   98  TYR98       0.1957
     94  OH        19.1280   54.8780   -1.4320 O.3    98  TYR98      -0.2866
     95  N         17.5700   48.1690   -3.1580 N.am   99  ASN99      -0.1974
     96  CA        18.0810   48.2530   -4.5200 C.3    99  ASN99       0.1688
     97  C         17.2450   47.5090   -5.5860 C.2    99  ASN99       0.2292
     98  O         16.2860   46.9100   -5.2580 O.2    99  ASN99      -0.2864
     99  CB        19.5200   47.7430   -4.4900 C.3    99  ASN99       0.1181
    100  CG        20.3850   48.4940   -3.4870 C.2    99  ASN99       0.2629
    101  OD1       20.8010   49.5820   -3.7470 O.2    99  ASN99      -0.2716
    102  ND2       20.6290   47.9110   -2.3480 N.am   99  ASN99      -0.0877
    103  N         25.0210   46.4520   -9.0080 N.3   104  ASP104     -0.1225
    104  CA        26.3210   45.9990   -8.5080 C.3   104  ASP104      0.1805
    105  C         26.2450   45.5390   -7.0600 C.2   104  ASP104      0.2597
    106  O         26.6770   44.4300   -6.7610 O.2   104  ASP104     -0.2718
    107  CB        27.3950   47.0860   -8.6770 C.3   104  ASP104      0.1424
    108  CG        27.9280   47.2210  -10.0920 C.2   104  ASP104      0.3668
    109  OD1       27.7870   46.2580  -10.8760 O.co2 104  ASP104     -0.2456
    110  OD2       28.5160   48.2750  -10.4030 O.co2 104  ASP104     -0.2456
    111  N         25.6430   46.3580   -6.1790 N.am  105  ILE105     -0.1980
    112  CA        25.4940   46.0310   -4.7560 C.3   105  ILE105      0.1595
    113  C         24.6760   44.7320   -4.5480 C.2   105  ILE105      0.2287
    114  O         25.0130   43.9450   -3.6630 O.2   105  ILE105     -0.2864
    115  CB        24.9510   47.2470   -3.9460 C.3   105  ILE105      0.0276
    116  CG1       25.1330   47.0650   -2.4250 C.3   105  ILE105      0.0022
    117  CG2       23.5070   47.5980   -4.3020 C.3   105  ILE105      0.0022
    118  CD1       26.5090   47.2860   -1.9230 C.3   105  ILE105      0.0001
    119  N         26.8550   41.7890   -5.5240 N.3   108  MET108     -0.1245
    120  CA        27.8060   41.6240   -4.4240 C.3   108  MET108      0.1570
    121  C         27.1700   40.8690   -3.2630 C.2   108  MET108      0.2261
    122  O         27.7530   39.8960   -2.7770 O.2   108  MET108     -0.2867
    123  CB        28.3540   42.9830   -3.9780 C.3   108  MET108      0.0387
    124  CG        29.2780   43.5840   -5.0000 C.3   108  MET108      0.0595
    125  SD        29.6840   45.3040   -4.6750 S.3   108  MET108     -0.1393
    126  CE        31.3730   45.1220   -4.1780 C.3   108  MET108      0.0692
@<TRIPOS>BOND
     1   109   108   ar
     2   110   108   ar
     3   108   107    1
     4   103   104    1
     5   107   104    1
     6   104   105    1
     7   105   106    2
     8   105   111   am
     9   111   112    1
    10    97    98    2
    11    97    96    1
    12   119   120    1
    13   124   125    1
    14   124   123    1
    15   112   113    1
    16   112   115    1
    17   125   126    1
    18   113   114    2
    19    96    99    1
    20    96    95    1
    21    99   100    1
    22   120   123    1
    23   120   121    1
    24   117   115    1
    25   115   116    1
    26   101   100    2
    27   100   102   am
    28    12    14   ar
    29    12    10   ar
    30   121   122    2
    31    86    85    2
    32    95    85   am
    33     9    10   ar
    34     9     7   ar
    35    14    13   ar
    36    85    84    1
    37    10     8   ar
    38   116   118    1
    39    80    79    2
    40    64    62    1
    41     7     6   ar
    42    92    90   ar
    43    92    93   ar
    44    13    11   ar
    45    94    93    1
    46    82    81    1
    47    52    51    2
    48     8     6   ar
    49     8    11   ar
    50    90    88   ar
    51    93    91   ar
    52    84    83    1
    53    84    87    1
    54    20    21    1
    55    20    19    1
    56    79    78    1
    57     6     5    1
    58    88    87    1
    59    88    89   ar
    60    91    89   ar
    61    62    63    1
    62    62    61    1
    63    51    50    1
    64    21    15    1
    65    31    32   ar
    66    31    29   ar
    67    32    30   ar
    68    19    16    1
    69    81    78    1
    70    78    77    1
    71    58    57    1
    72    58    61    1
    73    58    59    1
    74    50    53    1
    75    50    49    1
    76    56    54    1
    77    53    54    1
    78     5     2    1
    79    15    16    1
    80    15     3   am
    81    29    27   ar
    82     1     2    1
    83    30    28   ar
    84    16    17    1
    85    54    55    1
    86    59    60    2
    87     2     3    1
    88     3     4    2
    89    27    28   ar
    90    27    26    1
    91    71    73   ar
    92    71    70   ar
    93    17    22   am
    94    17    18    2
    95    65    66    1
    96    73    75   ar
    97    22    23    1
    98    66    69    1
    99    66    67    1
   100    69    70    1
   101    70    72   ar
   102    26    23    1
   103    75    76    1
   104    75    74   ar
   105    23    24    1
   106    47    46    1
   107    48    46    1
   108    67    68    2
   109    41    39   am
   110    72    74   ar
   111    46    43    1
   112    24    25    2
   113    43    44    1
   114    43    42    1
   115    39    40    2
   116    39    38    1
   117    44    45    2
   118    38    37    1
   119    36    35    2
   120    33    34    1
   121    35    34    1
   122    37    34    1
