@<TRIPOS>MOLECULE
tmp/5m3cB00.pdb
 136 127 0 0 0
SMALL
GASTEIGER

@<TRIPOS>ATOM
      1  N         13.9210   45.3250   64.2330 N.3     5  LEU5       -0.1245
      2  CA        14.8460   44.2800   63.8060 C.3     5  LEU5        0.1561
      3  C         16.1400   44.8340   63.1990 C.2     5  LEU5        0.2260
      4  O         17.2330   44.4340   63.5980 O.2     5  LEU5       -0.2867
      5  CB        14.1400   43.3400   62.8200 C.3     5  LEU5        0.0270
      6  CG        14.9010   42.1440   62.2320 C.3     5  LEU5        0.0019
      7  CD1       15.4400   42.4690   60.8480 C.3     5  LEU5        0.0001
      8  CD2       16.0180   41.6620   63.1500 C.3     5  LEU5        0.0001
      9  N         14.5760   46.4180   46.3450 N.3    38  ASP38      -0.1225
     10  CA        13.8090   45.2350   46.7180 C.3    38  ASP38       0.1805
     11  C         14.6680   43.9860   46.5440 C.2    38  ASP38       0.2597
     12  O         15.1180   43.6860   45.4390 O.2    38  ASP38      -0.2718
     13  CB        12.5520   45.1440   45.8500 C.3    38  ASP38       0.1424
     14  CG        11.5950   44.0570   46.3080 C.2    38  ASP38       0.3668
     15  OD1       12.0670   42.9970   46.7670 O.co2  38  ASP38      -0.2456
     16  OD2       10.3660   44.2580   46.2000 O.co2  38  ASP38      -0.2456
     17  N         14.8990   43.2620   47.6350 N.am   39  LEU39      -0.1979
     18  CA        15.7440   42.0720   47.5920 C.3    39  LEU39       0.1596
     19  C         15.2520   41.1010   46.5250 C.2    39  LEU39       0.2287
     20  O         14.0490   40.9780   46.2980 O.2    39  LEU39      -0.2864
     21  CB        15.7830   41.3800   48.9590 C.3    39  LEU39       0.0297
     22  CG        16.4600   42.1560   50.0960 C.3    39  LEU39       0.0022
     23  CD1       16.6390   41.2770   51.3250 C.3    39  LEU39       0.0001
     24  CD2       17.8030   42.7240   49.6570 C.3    39  LEU39       0.0001
     25  N         14.4900   37.4890   44.9180 N.3    41  ARG41      -0.1231
     26  CA        14.1600   36.1050   45.2500 C.3    41  ARG41       0.1694
     27  C         14.5510   35.7540   46.6830 C.2    41  ARG41       0.2592
     28  O         15.2540   34.7740   46.9270 O.2    41  ARG41      -0.2718
     29  CB        14.8380   35.1510   44.2630 C.3    41  ARG41       0.0321
     30  CG        14.3070   35.2910   42.8380 C.3    41  ARG41       0.0489
     31  CD        15.2260   34.6330   41.8170 C.3    41  ARG41       0.2205
     32  NE        16.4560   35.3900   41.5830 N.pl3  41  ARG41      -0.0865
     33  CZ        17.6640   34.8460   41.4710 C.cat  41  ARG41       0.5346
     34  NH1       17.8150   33.5290   41.5790 N.pl3  41  ARG41       0.1354
     35  NH2       18.7230   35.6110   41.2440 N.pl3  41  ARG41       0.1354
     36  N         14.0800   36.5620   47.6270 N.am   42  PHE42      -0.1962
     37  CA        14.3810   36.3620   49.0400 C.3    42  PHE42       0.1771
     38  C         13.4830   35.2840   49.6500 C.2    42  PHE42       0.2619
     39  O         13.8060   34.7210   50.6980 O.2    42  PHE42      -0.2715
     40  CB        14.2170   37.6800   49.8020 C.3    42  PHE42       0.0574
     41  CG        14.8880   37.6960   51.1480 C.ar   42  PHE42      -0.0200
     42  CD1       16.2640   37.8330   51.2510 C.ar   42  PHE42      -0.0042
     43  CD2       14.1430   37.5900   52.3100 C.ar   42  PHE42      -0.0042
     44  CE1       16.8840   37.8530   52.4880 C.ar   42  PHE42      -0.0003
     45  CE2       14.7560   37.6120   53.5500 C.ar   42  PHE42      -0.0003
     46  CZ        16.1290   37.7430   53.6400 C.ar   42  PHE42      -0.0000
     47  N         12.3560   35.0000   48.9980 N.am   43  LYS43      -0.1977
     48  CA        11.4440   33.9530   49.4610 C.3    43  LYS43       0.1596
     49  C         12.1620   32.6080   49.4950 C.2    43  LYS43       0.2287
     50  O         12.0300   31.8420   50.4550 O.2    43  LYS43      -0.2864
     51  CB        10.2090   33.8660   48.5600 C.3    43  LYS43       0.0298
     52  CG         9.1510   32.8740   48.9530 C.3    43  LYS43       0.0038
     53  CD         8.4270   33.3760   50.1610 C.3    43  LYS43       0.0206
     54  CE         7.1630   32.5500   50.4190 C.3    43  LYS43       0.1093
     55  NZ         7.4720   31.2320   50.9420 N.3    43  LYS43      -0.1314
     56  N         14.3620   32.2810   52.6070 N.3    46  ASN46      -0.1240
     57  CA        13.5830   31.8780   53.7750 C.3    46  ASN46       0.1653
     58  C         13.1580   30.4180   53.6660 C.2    46  ASN46       0.2266
     59  O         13.1830   29.6800   54.6540 O.2    46  ASN46      -0.2867
     60  CB        12.3460   32.7610   53.9350 C.3    46  ASN46       0.1155
     61  CG        12.6490   34.0720   54.6310 C.2    46  ASN46       0.2627
     62  OD1       13.6940   34.2310   55.2630 O.2    46  ASN46      -0.2716
     63  ND2       11.7260   35.0190   54.5250 N.am   46  ASN46      -0.0877
     64  N         13.5070   31.6690   58.6980 N.3    51  HIS51      -0.1241
     65  CA        13.4550   33.0490   59.1780 C.3    51  HIS51       0.1621
     66  C         14.6640   33.4430   60.0160 C.2    51  HIS51       0.2264
     67  O         15.3200   34.4360   59.7190 O.2    51  HIS51      -0.2867
     68  CB        12.1810   33.2960   59.9870 C.3    51  HIS51       0.0745
     69  CG        11.1930   34.1800   59.2960 C.ar   51  HIS51       0.0817
     70  ND1       10.5400   33.8070   58.1410 N.ar   51  HIS51      -0.2268
     71  CD2       10.7450   35.4210   59.5980 C.ar   51  HIS51       0.1154
     72  CE1        9.7330   34.7810   57.7610 C.ar   51  HIS51       0.1986
     73  NE2        9.8380   35.7720   58.6280 N.ar   51  HIS51      -0.2212
     74  N         17.2790   34.3590   57.7220 N.3    54  GLY54      -0.1210
     75  CA        16.8210   35.4720   56.8920 C.3    54  GLY54       0.1956
     76  C         16.8180   36.8090   57.6130 C.2    54  GLY54       0.2611
     77  O         17.1670   37.8320   57.0290 O.2    54  GLY54      -0.2717
     78  N         16.4140   36.8020   58.8800 N.am   55  ASP55      -0.1973
     79  CA        16.4270   38.0080   59.7060 C.3    55  ASP55       0.1709
     80  C         17.8450   38.5370   59.8390 C.2    55  ASP55       0.2293
     81  O         18.1030   39.7230   59.6230 O.2    55  ASP55      -0.2864
     82  CB        15.8610   37.7220   61.1020 C.3    55  ASP55       0.1436
     83  CG        14.3470   37.8110   61.1530 C.2    55  ASP55       0.3671
     84  OD1       13.7040   37.7050   60.0870 O.co2  55  ASP55      -0.2456
     85  OD2       13.8010   37.9860   62.2660 O.co2  55  ASP55      -0.2456
     86  N         18.8120   40.0660   56.6520 N.3    58  LEU58      -0.1245
     87  CA        18.2390   41.4010   56.4890 C.3    58  LEU58       0.1561
     88  C         19.0130   42.4130   57.3230 C.2    58  LEU58       0.2260
     89  O         19.3970   43.4780   56.8310 O.2    58  LEU58      -0.2867
     90  CB        16.7650   41.4150   56.8970 C.3    58  LEU58       0.0270
     91  CG        15.8020   40.6750   55.9670 C.3    58  LEU58       0.0019
     92  CD1       14.4190   40.5790   56.5940 C.3    58  LEU58       0.0001
     93  CD2       15.7340   41.3600   54.6130 C.3    58  LEU58       0.0001
     94  N         14.0620   51.1890   56.0740 N.3    77  ARG77      -0.1245
     95  CA        13.2800   50.0230   55.6970 C.3    77  ARG77       0.1563
     96  C         11.8360   50.4600   55.4670 C.2    77  ARG77       0.2260
     97  O         11.1470   50.8810   56.3950 O.2    77  ARG77      -0.2867
     98  CB        13.3520   48.9170   56.7590 C.3    77  ARG77       0.0307
     99  CG        12.2530   47.8730   56.6100 C.3    77  ARG77       0.0489
    100  CD        12.7610   46.4400   56.6700 C.3    77  ARG77       0.2205
    101  NE        12.4810   45.7870   57.9470 N.pl3  77  ARG77      -0.0865
    102  CZ        12.1170   44.5110   58.0780 C.cat  77  ARG77       0.5346
    103  NH1       11.8870   44.0050   59.2840 N.pl3  77  ARG77       0.1354
    104  NH2       11.9700   43.7370   57.0100 N.pl3  77  ARG77       0.1354
    105  N          9.0280   44.8670   54.8240 N.3    80  GLY80      -0.1210
    106  CA         9.3340   43.5860   54.1980 C.3    80  GLY80       0.1956
    107  C         10.7910   43.5290   53.7830 C.2    80  GLY80       0.2611
    108  O         11.6750   43.9420   54.5320 O.2    80  GLY80      -0.2717
    109  N         11.0440   43.0220   52.5820 N.am   81  ASP81      -0.1973
    110  CA        12.4020   42.9690   52.0590 C.3    81  ASP81       0.1709
    111  C         12.6760   44.1890   51.1900 C.2    81  ASP81       0.2293
    112  O         13.5200   44.1470   50.2950 O.2    81  ASP81      -0.2864
    113  CB        12.6130   41.6950   51.2420 C.3    81  ASP81       0.1436
    114  CG        11.8720   41.7200   49.9200 C.2    81  ASP81       0.3671
    115  OD1       10.7880   42.3380   49.8570 O.co2  81  ASP81      -0.2456
    116  OD2       12.3710   41.1210   48.9430 O.co2  81  ASP81      -0.2456
    117  N         13.0640   44.8130   37.9950 N.3   151  LYS151     -0.1245
    118  CA        12.6300   43.4640   38.3320 C.3   151  LYS151      0.1561
    119  C         12.2640   42.6850   37.0710 C.2   151  LYS151      0.2260
    120  O         12.5240   41.4890   36.9900 O.2   151  LYS151     -0.2867
    121  CB        11.4270   43.5160   39.2840 C.3   151  LYS151      0.0271
    122  CG        11.4760   42.5190   40.4310 C.3   151  LYS151      0.0035
    123  CD        12.6370   42.7980   41.3740 C.3   151  LYS151      0.0206
    124  CE        12.3670   42.2440   42.7620 C.3   151  LYS151      0.1093
    125  NZ        13.5970   42.1680   43.5970 N.3   151  LYS151     -0.1314
    126  N         17.4260   41.1330   36.7570 N.3   155  ARG155     -0.1245
    127  CA        17.5760   41.3520   38.1890 C.3   155  ARG155      0.1563
    128  C         18.9960   41.7920   38.4930 C.2   155  ARG155      0.2260
    129  O         19.8070   41.9530   37.5830 O.2   155  ARG155     -0.2867
    130  CB        17.2120   40.0890   38.9730 C.3   155  ARG155      0.0307
    131  CG        15.7600   40.0490   39.4300 C.3   155  ARG155      0.0489
    132  CD        15.3940   38.6980   40.0230 C.3   155  ARG155      0.2205
    133  NE        14.0340   38.6710   40.5620 N.pl3 155  ARG155     -0.0865
    134  CZ        12.9310   38.5390   39.8280 C.cat 155  ARG155      0.5346
    135  NH1       13.0070   38.4320   38.5090 N.pl3 155  ARG155      0.1354
    136  NH2       11.7450   38.5210   40.4150 N.pl3 155  ARG155      0.1354
@<TRIPOS>BOND
     1   126   127    1
     2   120   119    2
     3   119   118    1
     4   129   128    2
     5   117   118    1
     6   127   128    1
     7   127   130    1
     8   118   121    1
     9   135   134    1
    10   130   131    1
    11   121   122    1
    12   131   132    1
    13   134   136    1
    14   134   133    2
    15   132   133    1
    16   122   123    1
    17    35    33    1
    18   123   124    1
    19    33    34    1
    20    33    32    2
    21    32    31    1
    22    31    30    1
    23   124   125    1
    24    30    29    1
    25    29    26    1
    26    25    26    1
    27    26    27    1
    28    12    11    2
    29    13    14    1
    30    13    10    1
    31    16    14   ar
    32    20    19    2
    33    14    15   ar
    34     9    10    1
    35    19    18    1
    36    11    10    1
    37    11    17   am
    38    27    28    2
    39    27    36   am
    40    18    17    1
    41    18    21    1
    42    36    37    1
    43    51    52    1
    44    51    48    1
    45   116   114   ar
    46    52    53    1
    47    21    22    1
    48    47    48    1
    49    47    38   am
    50    37    38    1
    51    37    40    1
    52    48    49    1
    53    49    50    2
    54    38    39    2
    55    24    22    1
    56    40    41    1
    57   115   114   ar
    58   114   113    1
    59    22    23    1
    60    53    54    1
    61   112   111    2
    62    54    55    1
    63    41    42   ar
    64    41    43   ar
    65   111   110    1
    66   113   110    1
    67    42    44   ar
    68   110   109    1
    69    43    45   ar
    70    44    46   ar
    71   109   107   am
    72    56    57    1
    73    45    46   ar
    74    58    57    1
    75    58    59    2
    76    57    60    1
    77   107   106    1
    78   107   108    2
    79    60    61    1
    80   106   105    1
    81    63    61   am
    82    93    91    1
    83    61    62    2
    84    96    95    1
    85    96    97    2
    86    95    94    1
    87    95    98    1
    88    91    92    1
    89    91    90    1
    90    87    86    1
    91    87    90    1
    92    87    88    1
    93    99   100    1
    94    99    98    1
    95   100   101    1
    96    89    88    2
    97    75    76    1
    98    75    74    1
    99   104   102    1
   100    77    76    2
   101    76    78   am
   102    72    70   ar
   103    72    73   ar
   104   101   102    2
   105   102   103    1
   106    70    69   ar
   107    73    71   ar
   108    64    65    1
   109    78    79    1
   110    65    68    1
   111    65    66    1
   112    69    71   ar
   113    69    68    1
   114    81    80    2
   115    79    80    1
   116    79    82    1
   117    67    66    2
   118    84    83   ar
   119     7     6    1
   120    82    83    1
   121    83    85   ar
   122     6     5    1
   123     6     8    1
   124     5     2    1
   125     3     4    2
   126     3     2    1
   127     2     1    1
