@<TRIPOS>MOLECULE
tmp/5m3eA00.pdb
 207 204 0 0 0
SMALL
GASTEIGER

@<TRIPOS>ATOM
      1  N         -1.9580   -8.2970   26.8690 N.3     9  GLY9       -0.1210
      2  CA        -1.3260   -7.0490   26.5270 C.3     9  GLY9        0.1956
      3  C         -2.2460   -6.2260   25.6660 C.2     9  GLY9        0.2612
      4  O         -3.4670   -6.3920   25.6870 O.2     9  GLY9       -0.2717
      5  N         -1.6330   -5.3330   24.9050 N.am   10  ASN10      -0.1960
      6  CA        -2.3390   -4.3740   24.0920 C.3    10  ASN10       0.1819
      7  C         -2.1020   -4.7690   22.6400 C.2    10  ASN10       0.2621
      8  O         -0.9620   -4.7980   22.1840 O.2    10  ASN10      -0.2715
      9  CB        -1.8340   -2.9550   24.4000 C.3    10  ASN10       0.1195
     10  CG        -2.1790   -1.9550   23.3110 C.2    10  ASN10       0.2630
     11  OD1       -3.1670   -2.1050   22.5960 O.2    10  ASN10      -0.2716
     12  ND2       -1.3660   -0.9270   23.1860 N.am   10  ASN10      -0.0877
     13  N         -3.2050   -5.0710   21.9400 N.am   11  LEU11      -0.1963
     14  CA        -3.2090   -5.5090   20.5440 C.3    11  LEU11       0.1728
     15  C         -2.4500   -4.5710   19.6030 C.2    11  LEU11       0.2616
     16  O         -1.7810   -5.0210   18.6720 O.2    11  LEU11      -0.2715
     17  CB        -4.6730   -5.6190   20.0560 C.3    11  LEU11       0.0311
     18  CG        -4.9530   -5.7900   18.5690 C.3    11  LEU11       0.0022
     19  CD1       -4.4580   -7.1460   18.1290 C.3    11  LEU11       0.0001
     20  CD2       -6.4420   -5.7060   18.3210 C.3    11  LEU11       0.0001
     21  N         -2.5980   -3.2720   19.8230 N.am   12  LEU12      -0.1977
     22  CA        -2.1660   -2.2410   18.8380 C.3    12  LEU12       0.1596
     23  C         -0.6450   -2.0730   18.7150 C.2    12  LEU12       0.2287
     24  O         -0.1710   -1.4190   17.7740 O.2    12  LEU12      -0.2864
     25  CB        -2.8060   -0.8640   19.1570 C.3    12  LEU12       0.0297
     26  CG        -4.2830   -0.6960   18.7710 C.3    12  LEU12       0.0022
     27  CD1       -5.2330   -1.2270   19.8430 C.3    12  LEU12       0.0001
     28  CD2       -4.5580    0.7700   18.5050 C.3    12  LEU12       0.0001
     29  N        -12.3480   -4.5510   15.4580 N.3    22  THR22      -0.1203
     30  CA       -13.7620   -4.9310   15.6170 C.3    22  THR22       0.1994
     31  C        -14.6390   -3.7190   15.3140 C.2    22  THR22       0.2618
     32  O        -14.6220   -2.7260   16.0640 O.2    22  THR22      -0.2717
     33  CB       -14.0660   -5.3610   17.0610 C.3    22  THR22       0.1784
     34  OG1      -13.8520   -4.2580   17.9630 O.3    22  THR22      -0.2211
     35  CG2      -13.1730   -6.4670   17.4700 C.3    22  THR22       0.0376
     36  N        -15.4400   -3.8150   14.2550 N.am   23  VAL23      -0.1965
     37  CA       -16.2830   -2.7060   13.8540 C.3    23  VAL23       0.1727
     38  C        -17.7490   -3.0750   13.7420 C.2    23  VAL23       0.2616
     39  O        -18.1050   -4.2470   13.6720 O.2    23  VAL23      -0.2715
     40  CB       -15.8040   -2.0610   12.5150 C.3    23  VAL23       0.0290
     41  CG1      -14.3840   -1.5610   12.6530 C.3    23  VAL23       0.0023
     42  CG2      -15.9220   -3.0100   11.3210 C.3    23  VAL23       0.0023
     43  N        -18.5720   -2.0330   13.7030 N.am   24  ASN24      -0.1972
     44  CA       -19.9660   -2.1370   13.3080 C.3    24  ASN24       0.1688
     45  C        -20.1510   -1.6490   11.8600 C.2    24  ASN24       0.2292
     46  O        -19.2100   -1.1820   11.2210 O.2    24  ASN24      -0.2864
     47  CB       -20.8740   -1.3820   14.2860 C.3    24  ASN24       0.1181
     48  CG       -20.5950    0.1050   14.3110 C.2    24  ASN24       0.2629
     49  OD1      -20.8550    0.8010   13.3310 O.2    24  ASN24      -0.2716
     50  ND2      -20.0130    0.5930   15.4350 N.am   24  ASN24      -0.0877
     51  N        -19.4630    4.4190   12.8400 N.3    28  VAL28      -0.1231
     52  CA       -18.8820    5.0160   14.0270 C.3    28  VAL28       0.1692
     53  C        -17.9980    3.9690   14.7180 C.2    28  VAL28       0.2592
     54  O        -18.2820    2.7530   14.7060 O.2    28  VAL28      -0.2718
     55  CB       -19.9450    5.5820   15.0110 C.3    28  VAL28       0.0266
     56  CG1      -20.8290    6.6240   14.3320 C.3    28  VAL28       0.0020
     57  CG2      -20.8220    4.5020   15.6210 C.3    28  VAL28       0.0020
     58  N        -16.9010    4.4680   15.2730 N.am   29  MET29      -0.1965
     59  CA       -15.9940    3.7190   16.0880 C.3    29  MET29       0.1736
     60  C        -16.0080    4.4830   17.4230 C.2    29  MET29       0.2617
     61  O        -15.0850    5.2230   17.7260 O.2    29  MET29      -0.2715
     62  CB       -14.5790    3.7590   15.4740 C.3    29  MET29       0.0427
     63  CG       -14.3930    3.0610   14.1490 C.3    29  MET29       0.0599
     64  SD       -12.6760    2.5750   13.8490 S.3    29  MET29      -0.1393
     65  CE       -12.7770    2.2760   12.1020 C.3    29  MET29       0.0692
     66  N        -17.0600    4.2960   18.2080 N.am   30  GLY30      -0.1940
     67  CA       -17.3010    5.0940   19.4290 C.3    30  GLY30       0.2014
     68  C        -16.8370    4.5440   20.7660 C.2    30  GLY30       0.2639
     69  O        -16.9410    5.2350   21.8140 O.2    30  GLY30      -0.2714
     70  N        -16.3750    3.3000   20.7760 N.am   31  LYS31      -0.1963
     71  CA       -15.8620    2.7170   22.0130 C.3    31  LYS31       0.1728
     72  C        -15.0870    1.4120   21.8290 C.2    31  LYS31       0.2617
     73  O        -14.9900    0.9030   20.7220 O.2    31  LYS31      -0.2715
     74  CB       -17.0050    2.5360   23.0350 C.3    31  LYS31       0.0311
     75  CG       -18.3500    2.1890   22.4380 C.3    31  LYS31       0.0038
     76  CD       -19.1880    1.4900   23.4790 C.3    31  LYS31       0.0206
     77  CE       -20.6510    1.6300   23.1870 C.3    31  LYS31       0.1093
     78  NZ       -21.3350    1.9530   24.4650 N.3    31  LYS31      -0.1314
     79  N        -14.5050    0.9220   22.9320 N.am   32  GLY32      -0.1940
     80  CA       -13.7870   -0.3500   22.9750 C.3    32  GLY32       0.2014
     81  C        -12.5300   -0.3050   22.1370 C.2    32  GLY32       0.2639
     82  O        -11.8250    0.7130   22.1070 O.2    32  GLY32      -0.2714
     83  N        -12.2900   -1.3920   21.4140 N.am   33  VAL33      -0.1963
     84  CA       -11.1400   -1.5430   20.5080 C.3    33  VAL33       0.1727
     85  C        -11.2230   -0.5500   19.3500 C.2    33  VAL33       0.2616
     86  O        -10.2050   -0.0480   18.8740 O.2    33  VAL33      -0.2715
     87  CB       -11.1080   -2.9830   19.9260 C.3    33  VAL33       0.0290
     88  CG1      -10.1430   -3.1330   18.7560 C.3    33  VAL33       0.0023
     89  CG2      -10.8050   -3.9900   21.0290 C.3    33  VAL33       0.0023
     90  N        -12.4320   -0.2960   18.8720 N.am   34  ALA34      -0.1977
     91  CA       -12.6050    0.4670   17.6670 C.3    34  ALA34       0.1597
     92  C        -12.2440    1.9200   17.9600 C.2    34  ALA34       0.2287
     93  O        -11.6930    2.5770   17.1000 O.2    34  ALA34      -0.2864
     94  CB       -14.0120    0.3400   17.1230 C.3    34  ALA34       0.0319
     95  N         -9.9290    2.9650   20.1070 N.3    36  GLN36      -0.1245
     96  CA        -8.4510    2.9680   20.1290 C.3    36  GLN36       0.1566
     97  C         -7.8790    2.9500   18.7300 C.2    36  GLN36       0.2260
     98  O         -6.9230    3.6860   18.4690 O.2    36  GLN36      -0.2867
     99  CB        -7.8800    1.7820   20.9220 C.3    36  GLN36       0.0367
    100  CG        -8.3020    1.7340   22.3900 C.3    36  GLN36       0.0905
    101  CD        -8.1180    0.3530   23.0190 C.2    36  GLN36       0.2608
    102  OE1       -6.9980   -0.0850   23.1800 O.2    36  GLN36      -0.2717
    103  NE2       -9.2230   -0.3170   23.3980 N.am   36  GLN36      -0.0878
    104  N        -18.1000   -7.2500   13.6590 N.3    81  THR81      -0.1203
    105  CA       -18.7140   -8.0140   14.7360 C.3    81  THR81       0.1994
    106  C        -20.0900   -7.4920   15.1690 C.2    81  THR81       0.2617
    107  O        -20.7260   -8.0950   16.0320 O.2    81  THR81      -0.2717
    108  CB       -17.8100   -8.0530   15.9570 C.3    81  THR81       0.1784
    109  OG1      -17.8090   -6.7790   16.5610 O.3    81  THR81      -0.2211
    110  CG2      -16.3850   -8.4290   15.5480 C.3    81  THR81       0.0376
    111  N        -20.5400   -6.3810   14.5850 N.am   82  LYS82      -0.1979
    112  CA       -21.9010   -5.8860   14.7910 C.3    82  LYS82       0.1596
    113  C        -22.4860   -5.3380   13.5110 C.2    82  LYS82       0.2287
    114  O        -21.7480   -4.9390   12.6190 O.2    82  LYS82      -0.2864
    115  CB       -21.9190   -4.7820   15.8480 C.3    82  LYS82       0.0298
    116  CG       -21.8540   -5.2940   17.2670 C.3    82  LYS82       0.0038
    117  CD       -22.0790   -4.1750   18.2550 C.3    82  LYS82       0.0206
    118  CE       -22.0900   -4.7160   19.6810 C.3    82  LYS82       0.1093
    119  NZ       -22.7480   -3.7380   20.5950 N.3    82  LYS82      -0.1314
    120  N        -24.6190   -0.6460   16.3140 N.3    85  TRP85      -0.1241
    121  CA       -23.9580   -0.6060   17.6330 C.3    85  TRP85       0.1605
    122  C        -24.8900   -0.8550   18.8460 C.2    85  TRP85       0.2264
    123  O        -24.4330   -1.2190   19.9230 O.2    85  TRP85      -0.2867
    124  CB       -23.2120    0.7330   17.8110 C.3    85  TRP85       0.0550
    125  CG       -24.0980    1.9580   17.6600 C.ar   85  TRP85       0.0003
    126  CD1      -24.2000    2.7470   16.5590 C.ar   85  TRP85       0.0946
    127  CD2      -25.0050    2.5050   18.6320 C.ar   85  TRP85       0.0152
    128  NE1      -25.1120    3.7500   16.7730 N.ar   85  TRP85      -0.2442
    129  CE2      -25.6210    3.6240   18.0400 C.ar   85  TRP85       0.0810
    130  CE3      -25.3580    2.1590   19.9490 C.ar   85  TRP85       0.0012
    131  CZ2      -26.5770    4.3990   18.7190 C.ar   85  TRP85       0.0191
    132  CZ3      -26.3150    2.9100   20.6120 C.ar   85  TRP85       0.0001
    133  CH2      -26.9080    4.0210   20.0050 C.ar   85  TRP85       0.0015
    134  N         -8.1780   -9.3040   18.6280 N.3   116  PRO116     -0.2103
    135  CA        -8.7760   -9.2580   19.9420 C.3   116  PRO116      0.1489
    136  C         -9.8730  -10.3410   20.0780 C.2   116  PRO116      0.2417
    137  O        -10.0680  -11.1080   19.1170 O.2   116  PRO116     -0.2734
    138  CB        -9.3890   -7.8710   19.9720 C.3   116  PRO116      0.0282
    139  CG        -9.8730   -7.6850   18.5660 C.3   116  PRO116      0.0208
    140  CD        -8.9150   -8.4370   17.6860 C.3   116  PRO116      0.0893
    141  N        -10.5790  -10.3940   21.2560 N.am  117  PRO117     -0.2729
    142  CA       -11.7510  -11.2460   21.4460 C.3   117  PRO117      0.1401
    143  C        -12.9760  -10.6920   20.7250 C.2   117  PRO117      0.2269
    144  O        -13.7310   -9.8640   21.2720 O.2   117  PRO117     -0.2865
    145  CB       -11.9370  -11.2770   22.9920 C.3   117  PRO117      0.0296
    146  CG       -10.6060  -10.8830   23.5420 C.3   117  PRO117      0.0237
    147  CD       -10.1630   -9.8250   22.5570 C.3   117  PRO117      0.0939
    148  N        -16.3470   -9.9380   19.2830 N.3   119  GLY119     -0.1210
    149  CA       -17.7190  -10.0070   19.7780 C.3   119  GLY119      0.1956
    150  C        -17.9140  -10.1380   21.2780 C.2   119  GLY119      0.2612
    151  O        -19.0620  -10.0860   21.7520 O.2   119  GLY119     -0.2717
    152  N        -16.8260  -10.2760   22.0380 N.am  120  ALA120     -0.1965
    153  CA       -16.9150  -10.6650   23.4550 C.3   120  ALA120      0.1728
    154  C        -16.8640   -9.5140   24.4790 C.2   120  ALA120      0.2617
    155  O        -16.9000   -9.7600   25.6830 O.2   120  ALA120     -0.2715
    156  CB       -15.8710  -11.7430   23.7730 C.3   120  ALA120      0.0334
    157  N        -16.8150   -8.2680   24.0070 N.am  121  GLY121     -0.1940
    158  CA       -16.9090   -7.1060   24.8630 C.3   121  GLY121      0.2014
    159  C        -18.2770   -6.5010   24.7110 C.2   121  GLY121      0.2639
    160  O        -19.2700   -7.0270   25.2270 O.2   121  GLY121     -0.2714
    161  N        -18.3530   -5.4090   23.9680 N.am  122  ASN122     -0.1958
    162  CA       -19.6440   -4.7680   23.7050 C.3   122  ASN122      0.1819
    163  C        -20.6340   -5.6440   22.9050 C.2   122  ASN122      0.2621
    164  O        -21.8220   -5.3730   22.9020 O.2   122  ASN122     -0.2715
    165  CB       -19.4120   -3.4290   22.9960 C.3   122  ASN122      0.1195
    166  CG       -18.5870   -2.4610   23.8420 C.2   122  ASN122      0.2630
    167  OD1      -18.8280   -2.3100   25.0630 O.2   122  ASN122     -0.2716
    168  ND2      -17.6000   -1.8200   23.2110 N.am  122  ASN122     -0.0877
    169  N        -20.1230   -6.6800   22.2320 N.am  123  GLY123     -0.1954
    170  CA       -20.9370   -7.6750   21.5700 C.3   123  GLY123      0.1869
    171  C        -21.6250   -8.7210   22.4500 C.2   123  GLY123      0.2309
    172  O        -22.5910   -9.3320   21.9900 O.2   123  GLY123     -0.2863
    173  N         -5.3530  -11.9500   21.4850 N.3   149  TYR149     -0.1227
    174  CA        -5.2910  -11.2770   22.7740 C.3   149  TYR149      0.1736
    175  C         -6.4760  -11.6890   23.6150 C.2   149  TYR149      0.2595
    176  O         -7.5670  -11.1780   23.4030 O.2   149  TYR149     -0.2718
    177  CB        -5.2090   -9.7540   22.5950 C.3   149  TYR149      0.0548
    178  CG        -3.8300   -9.3400   22.1680 C.ar  149  TYR149     -0.0200
    179  CD1       -3.3900   -9.5870   20.8710 C.ar  149  TYR149     -0.0009
    180  CD2       -2.9300   -8.7670   23.0760 C.ar  149  TYR149     -0.0009
    181  CE1       -2.1100   -9.2540   20.4780 C.ar  149  TYR149      0.0417
    182  CE2       -1.6440   -8.4270   22.6910 C.ar  149  TYR149      0.0417
    183  CZ        -1.2410   -8.6730   21.3880 C.ar  149  TYR149      0.1957
    184  OH         0.0290   -8.3490   20.9630 O.3   149  TYR149     -0.2866
    185  N         -6.2680  -12.6590   24.5180 N.am  150  GLU150     -0.1966
    186  CA        -7.3280  -13.1080   25.4520 C.3   150  GLU150      0.1718
    187  C         -7.7050  -11.9660   26.4060 C.2   150  GLU150      0.2458
    188  O         -6.8450  -11.1700   26.7950 O.2   150  GLU150     -0.2730
    189  CB        -6.9120  -14.3520   26.2790 C.3   150  GLU150      0.0428
    190  CG        -6.6740  -15.6350   25.4870 C.3   150  GLU150      0.1163
    191  CD        -6.7930  -16.9240   26.3140 C.2   150  GLU150      0.3649
    192  OE1       -5.7600  -17.5860   26.5550 O.co2 150  GLU150     -0.2457
    193  OE2       -7.9210  -17.3020   26.7140 O.co2 150  GLU150     -0.2457
    194  N         -8.9980  -11.8800   26.8060 N.am  151  PRO151     -0.2716
    195  CA        -9.3760  -10.8090   27.7360 C.3   151  PRO151      0.1536
    196  C         -9.0290  -11.1210   29.2180 C.2   151  PRO151      0.2598
    197  O         -8.3370  -12.1120   29.5040 O.2   151  PRO151     -0.2715
    198  CB       -10.8920  -10.7240   27.5360 C.3   151  PRO151      0.0310
    199  CG       -11.3040  -12.1070   27.2030 C.3   151  PRO151      0.0237
    200  CD       -10.1380  -12.7800   26.5390 C.3   151  PRO151      0.0939
    201  N         -9.4680  -10.2500   30.1350 N.am  152  VAL152     -0.1978
    202  CA        -9.6750  -10.6200   31.5620 C.3   152  VAL152      0.1596
    203  C        -10.6150   -9.6390   32.2850 C.2   152  VAL152      0.2287
    204  O        -11.1450   -8.6950   31.6850 O.2   152  VAL152     -0.2864
    205  CB        -8.3520  -10.7870   32.3700 C.3   152  VAL152      0.0276
    206  CG1       -7.6790   -9.4390   32.6370 C.3   152  VAL152      0.0022
    207  CG2       -8.6090  -11.5420   33.6750 C.3   152  VAL152      0.0022
@<TRIPOS>BOND
     1    46    45    2
     2    42    40    1
     3    45    44    1
     4    65    64    1
     5    40    41    1
     6    40    37    1
     7   114   113    2
     8    51    52    1
     9    44    43    1
    10    44    47    1
    11    49    48    2
    12   113   112    1
    13   104   105    1
    14    39    38    2
    15    43    38   am
    16    38    37    1
    17    64    63    1
    18    37    36    1
    19    52    53    1
    20    52    55    1
    21    63    62    1
    22    36    31   am
    23    47    48    1
    24    48    50   am
    25    56    55    1
    26   111   112    1
    27   111   106   am
    28    54    53    2
    29    53    58   am
    30   105   106    1
    31   105   108    1
    32   112   115    1
    33    55    57    1
    34   106   107    2
    35    58    59    1
    36    31    30    1
    37    31    32    2
    38    29    30    1
    39    62    59    1
    40   110   108    1
    41    30    33    1
    42   115   116    1
    43   108   109    1
    44    59    60    1
    45   120   121    1
    46   126   128   ar
    47   126   125   ar
    48   128   129   ar
    49    33    35    1
    50    33    34    1
    51    93    92    2
    52    94    91    1
    53   116   117    1
    54    60    61    2
    55    60    66   am
    56   121   124    1
    57   121   122    1
    58   125   124    1
    59   125   127   ar
    60    91    92    1
    61    91    90    1
    62   140   139    1
    63   140   134    1
    64    24    23    2
    65   129   127   ar
    66   129   131   ar
    67    19    18    1
    68    66    67    1
    69   117   118    1
    70    20    18    1
    71    98    97    2
    72    28    26    1
    73   139   138    1
    74    18    17    1
    75   134   135    1
    76   127   130   ar
    77    16    15    2
    78    23    22    1
    79   131   133   ar
    80    97    96    1
    81    88    87    1
    82    26    25    1
    83    26    27    1
    84    22    25    1
    85    22    21    1
    86   122   123    2
    87    90    85   am
    88    86    85    2
    89   137   136    2
    90   148   149    1
    91    85    84    1
    92    67    68    1
    93    15    21   am
    94    15    14    1
    95   118   119    1
    96   149   150    1
    97    87    84    1
    98    87    89    1
    99   135   138    1
   100   135   136    1
   101   130   132   ar
   102   133   132   ar
   103    17    14    1
   104   136   141   am
   105    95    96    1
   106    96    99    1
   107   181   179   ar
   108   181   183   ar
   109    84    83    1
   110    14    13    1
   111    73    72    2
   112   143   144    2
   113   143   142    1
   114    68    70   am
   115    68    69    2
   116    70    71    1
   117   179   178   ar
   118    99   100    1
   119   184   183    1
   120   141   142    1
   121   141   147    1
   122   150   151    2
   123   150   152   am
   124   183   182   ar
   125    83    81   am
   126   142   145    1
   127   173   174    1
   128   170   169    1
   129   170   171    1
   130    72    71    1
   131    72    79   am
   132    13     7   am
   133   172   171    2
   134    71    74    1
   135   152   153    1
   136    82    81    2
   137    81    80    1
   138   178   177    1
   139   178   180   ar
   140     8     7    2
   141   169   163   am
   142   100   101    1
   143    75    74    1
   144    75    76    1
   145   147   146    1
   146   177   174    1
   147    11    10    2
   148     7     6    1
   149   182   180   ar
   150   174   175    1
   151   164   163    2
   152   163   162    1
   153    79    80    1
   154   145   146    1
   155   165   162    1
   156   165   166    1
   157   101   102    2
   158   101   103   am
   159    12    10   am
   160    77    76    1
   161    77    78    1
   162   168   166   am
   163    10     9    1
   164   176   175    2
   165   153   156    1
   166   153   154    1
   167   175   185   am
   168   162   161    1
   169   166   167    2
   170   161   159   am
   171   157   154   am
   172   157   158    1
   173     6     9    1
   174     6     5    1
   175   154   155    2
   176   185   186    1
   177   159   158    1
   178   159   160    2
   179     5     3   am
   180   186   189    1
   181   186   187    1
   182   190   189    1
   183   190   191    1
   184     3     4    2
   185     3     2    1
   186   191   192   ar
   187   191   193   ar
   188   187   188    2
   189   187   194   am
   190     2     1    1
   191   200   194    1
   192   200   199    1
   193   194   195    1
   194   199   198    1
   195   198   195    1
   196   195   196    1
   197   196   197    2
   198   196   201   am
   199   201   202    1
   200   202   203    1
   201   202   205    1
   202   204   203    2
   203   205   206    1
   204   205   207    1
