@<TRIPOS>MOLECULE
tmp/5m3gA00.pdb
 84 77 0 0 0
SMALL
GASTEIGER

@<TRIPOS>ATOM
      1  N         18.0650   28.2440    0.0910 N.3    11  ALA11      -0.1231
      2  CA        18.2210   28.6910    1.4730 C.3    11  ALA11       0.1694
      3  C         17.3220   29.8720    1.8980 C.2    11  ALA11       0.2592
      4  O         17.4250   30.9670    1.3550 O.2    11  ALA11      -0.2718
      5  CB        19.6800   28.9970    1.7430 C.3    11  ALA11       0.0304
      6  N         16.4190   29.5960    2.8350 N.am   12  GLY12      -0.1957
      7  CA        15.4740   30.5470    3.4100 C.3    12  GLY12       0.1869
      8  C         14.2250   30.8510    2.6120 C.2    12  GLY12       0.2309
      9  O         13.4310   31.6990    3.0240 O.2    12  GLY12      -0.2863
     10  N         13.6280   21.1570    5.8390 N.3    45  THR45      -0.1203
     11  CA        14.5640   22.2850    5.8560 C.3    45  THR45       0.1994
     12  C         15.9770   21.7190    6.1070 C.2    45  THR45       0.2617
     13  O         16.1090   20.5330    6.4250 O.2    45  THR45      -0.2717
     14  CB        14.1180   23.3060    6.9500 C.3    45  THR45       0.1784
     15  OG1       12.7240   23.1760    7.2290 O.3    45  THR45      -0.2211
     16  CG2       14.3270   24.7190    6.5430 C.3    45  THR45       0.0376
     17  N         17.0280   22.5340    5.9190 N.am   46  ASP46      -0.1973
     18  CA        18.4080   22.1230    6.2220 C.3    46  ASP46       0.1709
     19  C         18.7530   22.5270    7.6890 C.2    46  ASP46       0.2293
     20  O         17.9670   23.2520    8.3040 O.2    46  ASP46      -0.2864
     21  CB        19.4270   22.6380    5.1710 C.3    46  ASP46       0.1436
     22  CG        19.6310   24.1450    5.0890 C.2    46  ASP46       0.3671
     23  OD1       19.8330   24.7760    6.1440 O.co2  46  ASP46      -0.2456
     24  OD2       19.6270   24.6850    3.9640 O.co2  46  ASP46      -0.2456
     25  N         20.8680   24.6760    9.0200 N.3    48  THR48      -0.1203
     26  CA        21.2360   26.0740    9.2850 C.3    48  THR48       0.1994
     27  C         20.0320   26.8820    9.7810 C.2    48  THR48       0.2618
     28  O         18.9300   26.7250    9.2650 O.2    48  THR48      -0.2717
     29  CB        21.9130   26.7210    8.0660 C.3    48  THR48       0.1784
     30  OG1       20.9400   27.0090    7.0690 O.3    48  THR48      -0.2211
     31  CG2       23.0320   25.8670    7.4730 C.3    48  THR48       0.0376
     32  N         20.2520   27.7210   10.7830 N.am   49  GLY49      -0.1956
     33  CA        19.2060   28.5540   11.3660 C.3    49  GLY49       0.1869
     34  C         18.5950   27.9780   12.6240 C.2    49  GLY49       0.2309
     35  O         19.0780   26.9700   13.1500 O.2    49  GLY49      -0.2863
     36  N         12.1320   28.0570   13.6280 N.3    53  ARG53      -0.1231
     37  CA        11.9340   28.8120   12.3830 C.3    53  ARG53       0.1694
     38  C         11.9280   27.8450   11.2010 C.2    53  ARG53       0.2592
     39  O         11.1530   28.0270   10.2650 O.2    53  ARG53      -0.2718
     40  CB        13.0200   29.8920   12.2010 C.3    53  ARG53       0.0321
     41  CG        12.9400   31.0350   13.2120 C.3    53  ARG53       0.0489
     42  CD        13.9440   32.1420   12.9220 C.3    53  ARG53       0.2205
     43  NE        13.5810   32.9500   11.7520 N.pl3  53  ARG53      -0.0865
     44  CZ        13.1420   34.2060   11.8000 C.cat  53  ARG53       0.5346
     45  NH1       13.0250   34.8330   12.9640 N.pl3  53  ARG53       0.1354
     46  NH2       12.8320   34.8480   10.6820 N.pl3  53  ARG53       0.1354
     47  N         12.7870   26.8030   11.2650 N.am   54  ASN54      -0.1974
     48  CA        12.9040   25.7300   10.2680 C.3    54  ASN54       0.1688
     49  C         11.6260   24.8760   10.2110 C.2    54  ASN54       0.2292
     50  O         11.2300   24.4400    9.1300 O.2    54  ASN54      -0.2864
     51  CB        14.1280   24.8540   10.5520 C.3    54  ASN54       0.1181
     52  CG        15.4640   25.4580   10.1680 C.2    54  ASN54       0.2629
     53  OD1       16.5260   24.9080   10.4820 O.2    54  ASN54      -0.2716
     54  ND2       15.4580   26.5840    9.4690 N.am   54  ASN54      -0.0877
     55  N          9.1180   27.0910    8.3710 N.3    57  LEU57      -0.1245
     56  CA         9.5310   27.1690    6.9680 C.3    57  LEU57       0.1561
     57  C          9.1980   25.8820    6.2090 C.2    57  LEU57       0.2260
     58  O          8.7650   25.9600    5.0580 O.2    57  LEU57      -0.2867
     59  CB        11.0240   27.5830    6.8420 C.3    57  LEU57       0.0270
     60  CG        11.6310   27.7540    5.4220 C.3    57  LEU57       0.0019
     61  CD1       10.8930   28.7970    4.5950 C.3    57  LEU57       0.0001
     62  CD2       13.0770   28.1330    5.4930 C.3    57  LEU57       0.0001
     63  N          6.7300   25.4880    2.7670 N.3    61  ARG61      -0.1245
     64  CA         7.1900   24.7460    1.5820 C.3    61  ARG61       0.1563
     65  C          6.2080   23.6130    1.2130 C.2    61  ARG61       0.2260
     66  O          6.0000   23.3400    0.0280 O.2    61  ARG61      -0.2867
     67  CB         8.5970   24.1870    1.8090 C.3    61  ARG61       0.0307
     68  CG         9.6690   25.2730    1.8540 C.3    61  ARG61       0.0489
     69  CD        11.0120   24.7080    2.2550 C.3    61  ARG61       0.2205
     70  NE        12.1010   25.6460    1.9920 N.pl3  61  ARG61      -0.0865
     71  CZ        13.3440   25.4880    2.4330 C.cat  61  ARG61       0.5346
     72  NH1       13.6660   24.4340    3.1710 N.pl3  61  ARG61       0.1354
     73  NH2       14.2740   26.3890    2.1450 N.pl3  61  ARG61       0.1354
     74  N         16.4870   20.7060    1.6600 N.3   104  ARG104     -0.1245
     75  CA        15.4200   21.6870    1.4400 C.3   104  ARG104      0.1563
     76  C         14.5250   21.0500    0.3820 C.2   104  ARG104      0.2260
     77  O         14.7490   21.2340   -0.8090 O.2   104  ARG104     -0.2867
     78  CB        15.9840   23.0250    0.9610 C.3   104  ARG104      0.0307
     79  CG        17.0010   23.6460    1.8820 C.3   104  ARG104      0.0489
     80  CD        17.4380   25.0030    1.3620 C.3   104  ARG104      0.2205
     81  NE        18.1720   24.8950    0.0910 N.pl3 104  ARG104     -0.0865
     82  CZ        19.4790   25.0670   -0.0320 C.cat 104  ARG104      0.5346
     83  NH1       20.2130   25.3930    1.0130 N.pl3 104  ARG104      0.1354
     84  NH2       20.0610   24.9450   -1.2140 N.pl3 104  ARG104      0.1354
@<TRIPOS>BOND
     1    84    82    1
     2    77    76    2
     3    82    81    2
     4    82    83    1
     5    66    65    2
     6    81    80    1
     7     1     2    1
     8    76    75    1
     9    78    75    1
    10    78    79    1
    11    65    64    1
    12     4     3    2
    13    80    79    1
    14    75    74    1
    15     2     5    1
    16     2     3    1
    17    64    67    1
    18    64    63    1
    19    67    68    1
    20    68    69    1
    21     3     6   am
    22    70    69    1
    23    70    71    2
    24    73    71    1
    25    71    72    1
    26     8     9    2
    27     8     7    1
    28     6     7    1
    29    24    22   ar
    30    61    60    1
    31    58    57    2
    32    22    21    1
    33    22    23   ar
    34    21    18    1
    35    60    62    1
    36    60    59    1
    37    10    11    1
    38    11    12    1
    39    11    14    1
    40    17    12   am
    41    17    18    1
    42    12    13    2
    43    57    56    1
    44    18    19    1
    45    16    14    1
    46    59    56    1
    47    14    15    1
    48    56    55    1
    49    30    29    1
    50    31    29    1
    51    19    20    2
    52    29    26    1
    53    25    26    1
    54    50    49    2
    55    28    27    2
    56    26    27    1
    57    54    52   am
    58    27    32   am
    59    52    53    2
    60    52    51    1
    61    49    48    1
    62    39    38    2
    63    48    51    1
    64    48    47    1
    65    46    44    1
    66    32    33    1
    67    38    47   am
    68    38    37    1
    69    33    34    1
    70    43    44    2
    71    43    42    1
    72    44    45    1
    73    40    37    1
    74    40    41    1
    75    37    36    1
    76    34    35    2
    77    42    41    1
