@<TRIPOS>MOLECULE
tmp/5m3lA00.pdb
 233 223 0 0 0
SMALL
GASTEIGER

@<TRIPOS>ATOM
      1  N         19.2280  132.1890   20.3340 N.3    35  PHE35      -0.1241
      2  CA        19.2530  133.6480   20.2290 C.3    35  PHE35       0.1605
      3  C         20.0860  134.1330   19.0360 C.2    35  PHE35       0.2264
      4  O         19.6650  135.0370   18.3150 O.2    35  PHE35      -0.2867
      5  CB        19.7790  134.2700   21.5040 C.3    35  PHE35       0.0534
      6  CG        18.9120  134.0290   22.6910 C.ar   35  PHE35      -0.0203
      7  CD1       17.6990  134.6850   22.8260 C.ar   35  PHE35      -0.0042
      8  CD2       19.3130  133.1560   23.6800 C.ar   35  PHE35      -0.0042
      9  CE1       16.8960  134.4760   23.9390 C.ar   35  PHE35      -0.0003
     10  CE2       18.5220  132.9410   24.7980 C.ar   35  PHE35      -0.0003
     11  CZ        17.3120  133.6040   24.9310 C.ar   35  PHE35      -0.0000
     12  N         17.7600  134.0210   16.5980 N.3    38  LEU38      -0.1245
     13  CA        16.7710  135.0860   16.8390 C.3    38  LEU38       0.1561
     14  C         17.1950  136.4630   16.3130 C.2    38  LEU38       0.2260
     15  O         16.4460  137.1050   15.5620 O.2    38  LEU38      -0.2867
     16  CB        16.4520  135.2270   18.3320 C.3    38  LEU38       0.0270
     17  CG        15.5500  136.4130   18.6830 C.3    38  LEU38       0.0019
     18  CD1       14.1960  136.2690   17.9940 C.3    38  LEU38       0.0001
     19  CD2       15.4120  136.5510   20.1900 C.3    38  LEU38       0.0001
     20  N         15.9000  143.8890   18.8670 N.3    45  SER45      -0.1217
     21  CA        15.9980  143.2590   20.1920 C.3    45  SER45       0.1889
     22  C         17.4080  143.2770   20.7670 C.2    45  SER45       0.2288
     23  O         17.5770  143.4800   21.9720 O.2    45  SER45      -0.2866
     24  CB        15.5180  141.8100   20.1410 C.3    45  SER45       0.2089
     25  OG        16.3570  140.9790   19.4130 O.3    45  SER45      -0.2183
     26  N         18.4490  145.6370   23.3310 N.3    48  LEU48      -0.1231
     27  CA        18.2260  145.1750   24.7020 C.3    48  LEU48       0.1693
     28  C         19.2590  144.1000   25.0440 C.2    48  LEU48       0.2592
     29  O         19.9980  143.6690   24.1690 O.2    48  LEU48      -0.2718
     30  CB        16.8080  144.6320   24.8220 C.3    48  LEU48       0.0284
     31  CG        16.2410  144.4660   26.2310 C.3    48  LEU48       0.0019
     32  CD1       14.8160  144.9490   26.2910 C.3    48  LEU48       0.0001
     33  CD2       16.2800  143.0230   26.6840 C.3    48  LEU48       0.0001
     34  N         19.3300  143.7030   26.3160 N.am   49  PHE49      -0.1976
     35  CA        20.3140  142.7320   26.8270 C.3    49  PHE49       0.1639
     36  C         21.6760  143.4170   26.8980 C.2    49  PHE49       0.2290
     37  O         22.7150  142.7540   26.8330 O.2    49  PHE49      -0.2864
     38  CB        20.4490  141.4280   25.9880 C.3    49  PHE49       0.0560
     39  CG        19.2550  140.5200   26.0220 C.ar   49  PHE49      -0.0200
     40  CD1       19.0490  139.6690   27.0990 C.ar   49  PHE49      -0.0042
     41  CD2       18.3750  140.4640   24.9470 C.ar   49  PHE49      -0.0042
     42  CE1       17.9580  138.8150   27.1250 C.ar   49  PHE49      -0.0003
     43  CE2       17.2860  139.6110   24.9680 C.ar   49  PHE49      -0.0003
     44  CZ        17.0800  138.7850   26.0570 C.ar   49  PHE49      -0.0000
     45  N         22.6370  145.1360   29.5210 N.3    51  ARG51      -0.1231
     46  CA        23.0310  144.8700   30.9090 C.3    51  ARG51       0.1694
     47  C         24.0160  143.7070   31.0770 C.2    51  ARG51       0.2591
     48  O         24.8540  143.7340   31.9750 O.2    51  ARG51      -0.2718
     49  CB        21.7870  144.5730   31.7600 C.3    51  ARG51       0.0321
     50  CG        22.0520  144.3820   33.2520 C.3    51  ARG51       0.0489
     51  CD        22.5740  145.6400   33.9170 C.3    51  ARG51       0.2205
     52  NE        21.6240  146.7470   33.7670 N.pl3  51  ARG51      -0.0865
     53  CZ        21.8900  148.0360   33.9660 C.cat  51  ARG51       0.5346
     54  NH1       20.9230  148.9370   33.7800 N.pl3  51  ARG51       0.1354
     55  NH2       23.0940  148.4550   34.3680 N.pl3  51  ARG51       0.1354
     56  N         23.8940  142.6920   30.2200 N.am   52  VAL52      -0.1980
     57  CA        24.6910  141.4600   30.3130 C.3    52  VAL52       0.1595
     58  C         25.9590  141.4430   29.4430 C.2    52  VAL52       0.2287
     59  O         26.6000  140.3910   29.3280 O.2    52  VAL52      -0.2864
     60  CB        23.8310  140.2120   29.9900 C.3    52  VAL52       0.0276
     61  CG1       22.5880  140.1870   30.8750 C.3    52  VAL52       0.0022
     62  CG2       23.4460  140.1530   28.5160 C.3    52  VAL52       0.0022
     63  N         24.3450  134.3770   31.6690 N.3    65  HIS65      -0.1241
     64  CA        22.9680  134.6400   31.2540 C.3    65  HIS65       0.1621
     65  C         22.2590  133.4240   30.6930 C.2    65  HIS65       0.2264
     66  O         21.2950  132.9430   31.2950 O.2    65  HIS65      -0.2867
     67  CB        22.8930  135.7990   30.2740 C.3    65  HIS65       0.0745
     68  CG        21.5040  136.1200   29.8660 C.ar   65  HIS65       0.0817
     69  ND1       20.5400  136.5120   30.7720 N.ar   65  HIS65      -0.2268
     70  CD2       20.9010  136.0720   28.6580 C.ar   65  HIS65       0.1154
     71  CE1       19.4050  136.7150   30.1290 C.ar   65  HIS65       0.1986
     72  NE2       19.6010  136.4690   28.8440 N.ar   65  HIS65      -0.2212
     73  N         21.2130  130.4920   32.9390 N.3    68  ARG68      -0.1231
     74  CA        19.9620  130.6500   33.6900 C.3    68  ARG68       0.1694
     75  C         18.7060  130.6100   32.8370 C.2    68  ARG68       0.2591
     76  O         17.6340  130.3650   33.3710 O.2    68  ARG68      -0.2718
     77  CB        19.9300  131.9560   34.4460 C.3    68  ARG68       0.0321
     78  CG        20.9070  132.0430   35.5950 C.3    68  ARG68       0.0489
     79  CD        21.0370  133.4940   36.0090 C.3    68  ARG68       0.2205
     80  NE        21.6090  134.3220   34.9360 N.pl3  68  ARG68      -0.0865
     81  CZ        21.7340  135.6420   34.9930 C.cat  68  ARG68       0.5346
     82  NH1       21.3210  136.2830   36.0470 N.pl3  68  ARG68       0.1354
     83  NH2       22.2550  136.3360   34.0010 N.pl3  68  ARG68       0.1354
     84  N         18.8150  130.8870   31.5420 N.am   69  VAL69      -0.1980
     85  CA        17.6730  130.7300   30.6380 C.3    69  VAL69       0.1595
     86  C         17.3210  129.2450   30.5080 C.2    69  VAL69       0.2287
     87  O         16.1530  128.8750   30.6490 O.2    69  VAL69      -0.2864
     88  CB        17.9510  131.2670   29.2290 C.3    69  VAL69       0.0276
     89  CG1       16.7370  131.0920   28.3340 C.3    69  VAL69       0.0022
     90  CG2       18.3190  132.7240   29.2870 C.3    69  VAL69       0.0022
     91  N         16.0600  127.7390   33.7680 N.3    72  GLY72      -0.1210
     92  CA        14.6720  128.2130   33.8520 C.3    72  GLY72       0.1956
     93  C         13.7210  127.5020   32.8920 C.2    72  GLY72       0.2611
     94  O         12.6160  127.1020   33.2780 O.2    72  GLY72      -0.2717
     95  N         14.1490  127.3600   31.6390 N.am   73  LEU73      -0.1979
     96  CA        13.3890  126.6310   30.6370 C.3    73  LEU73       0.1596
     97  C         13.2020  125.1570   30.9750 C.2    73  LEU73       0.2287
     98  O         12.1010  124.6470   30.8780 O.2    73  LEU73      -0.2864
     99  CB        14.0760  126.7290   29.2880 C.3    73  LEU73       0.0297
    100  CG        13.3510  125.9970   28.1670 C.3    73  LEU73       0.0022
    101  CD1       11.9090  126.4780   28.0580 C.3    73  LEU73       0.0001
    102  CD2       14.0890  126.2080   26.8570 C.3    73  LEU73       0.0001
    103  N         10.6420  124.5280   33.5970 N.3    76  LEU76      -0.1245
    104  CA         9.2570  124.3920   33.1070 C.3    76  LEU76       0.1561
    105  C          8.9080  122.9460   32.8040 C.2    76  LEU76       0.2260
    106  O          7.9860  122.3800   33.4060 O.2    76  LEU76      -0.2867
    107  CB         9.0150  125.2240   31.8510 C.3    76  LEU76       0.0270
    108  CG         9.1030  126.7260   32.0600 C.3    76  LEU76       0.0019
    109  CD1        9.0170  127.4420   30.7290 C.3    76  LEU76       0.0001
    110  CD2        7.9960  127.2050   32.9910 C.3    76  LEU76       0.0001
    111  N          4.8550  133.6700   38.0180 N.3    92  HIS92      -0.1226
    112  CA         6.1270  134.2220   38.5050 C.3    92  HIS92       0.1752
    113  C          7.0960  134.5850   37.3670 C.2    92  HIS92       0.2595
    114  O          7.5480  135.7160   37.2560 O.2    92  HIS92      -0.2718
    115  CB         6.8190  133.2430   39.4570 C.3    92  HIS92       0.0759
    116  CG         8.2390  133.6050   39.7440 C.ar   92  HIS92       0.0818
    117  ND1        8.5700  134.6630   40.5560 N.ar   92  HIS92      -0.2268
    118  CD2        9.4100  133.0900   39.2920 C.ar   92  HIS92       0.1154
    119  CE1        9.8850  134.7820   40.6040 C.ar   92  HIS92       0.1986
    120  NE2       10.4190  133.8340   39.8510 N.ar   92  HIS92      -0.2212
    121  N          7.4070  133.6070   36.5330 N.am   93  LEU93      -0.1980
    122  CA         8.3060  133.8110   35.4020 C.3    93  LEU93       0.1596
    123  C          7.7980  134.8870   34.4240 C.2    93  LEU93       0.2287
    124  O          8.5980  135.5160   33.7340 O.2    93  LEU93      -0.2864
    125  CB         8.5320  132.4800   34.6780 C.3    93  LEU93       0.0297
    126  CG         9.6270  132.4660   33.6090 C.3    93  LEU93       0.0022
    127  CD1       10.4530  131.1940   33.7480 C.3    93  LEU93       0.0001
    128  CD2        9.0650  132.6170   32.1910 C.3    93  LEU93       0.0001
    129  N          8.6640  138.5820   36.0590 N.3    96  GLN96      -0.1231
    130  CA        10.0860  138.9050   35.8940 C.3    96  GLN96       0.1698
    131  C         10.4130  139.4920   34.5280 C.2    96  GLN96       0.2592
    132  O         11.4700  140.0810   34.3760 O.2    96  GLN96      -0.2718
    133  CB        10.9780  137.6870   36.1550 C.3    96  GLN96       0.0381
    134  CG        10.9480  137.2780   37.6160 C.3    96  GLN96       0.0905
    135  CD        11.6070  138.3010   38.5200 C.2    96  GLN96       0.2608
    136  OE1       12.5810  138.9600   38.1350 O.2    96  GLN96      -0.2717
    137  NE2       11.1170  138.4260   39.6960 N.am   96  GLN96      -0.0878
    138  N          9.5260  139.3310   33.5490 N.am   97  HIS97      -0.1976
    139  CA         9.6790  139.9600   32.2330 C.3    97  HIS97       0.1656
    140  C          8.9260  141.2730   32.0050 C.2    97  HIS97       0.2291
    141  O          9.1840  141.9340   31.0060 O.2    97  HIS97      -0.2864
    142  CB         9.3250  138.9650   31.1270 C.3    97  HIS97       0.0771
    143  CG        10.4500  138.0530   30.7840 C.ar   97  HIS97       0.0820
    144  ND1       10.8890  137.0650   31.6390 N.ar   97  HIS97      -0.2267
    145  CD2       11.2470  137.9980   29.6950 C.ar   97  HIS97       0.1154
    146  CE1       11.9050  136.4370   31.0860 C.ar   97  HIS97       0.1986
    147  NE2       12.1390  136.9820   29.9080 N.ar   97  HIS97      -0.2212
    148  N         10.9920  145.1950   33.2040 N.3   100  ARG100     -0.1245
    149  CA        11.9520  145.8890   32.3490 C.3   100  ARG100      0.1563
    150  C         11.2680  146.5030   31.1500 C.2   100  ARG100      0.2260
    151  O         10.0680  146.2990   30.9400 O.2   100  ARG100     -0.2867
    152  CB        13.0260  144.9090   31.9030 C.3   100  ARG100      0.0307
    153  CG        13.8160  144.4200   33.0890 C.3   100  ARG100      0.0489
    154  CD        14.7770  143.3190   32.7440 C.3   100  ARG100      0.2205
    155  NE        15.4780  142.9190   33.9590 N.pl3 100  ARG100     -0.0865
    156  CZ        14.9850  142.1260   34.9170 C.cat 100  ARG100      0.5346
    157  NH1       13.7620  141.5960   34.8280 N.pl3 100  ARG100      0.1354
    158  NH2       15.7420  141.8420   35.9750 N.pl3 100  ARG100      0.1354
    159  N         10.5590  144.7030   26.0300 N.3   103  VAL103     -0.1245
    160  CA        10.0870  143.3310   25.8070 C.3   103  VAL103      0.1561
    161  C          8.7120  143.3940   25.1360 C.2   103  VAL103      0.2260
    162  O          7.7010  143.7180   25.7530 O.2   103  VAL103     -0.2867
    163  CB        10.0570  142.4870   27.1020 C.3   103  VAL103      0.0252
    164  CG1       11.4710  142.2040   27.5720 C.3   103  VAL103      0.0019
    165  CG2        9.2740  143.1600   28.2180 C.3   103  VAL103      0.0019
    166  N          8.0930  139.6410   20.2070 N.3   107  TYR107     -0.1227
    167  CA         9.3550  138.8890   20.3490 C.3   107  TYR107      0.1736
    168  C          9.1540  137.4420   20.7400 C.2   107  TYR107      0.2595
    169  O          9.8330  136.5730   20.1960 O.2   107  TYR107     -0.2718
    170  CB        10.3280  139.5410   21.3390 C.3   107  TYR107      0.0548
    171  CG        10.8910  140.8680   20.8760 C.ar  107  TYR107     -0.0200
    172  CD1       11.2210  141.0960   19.5330 C.ar  107  TYR107     -0.0009
    173  CD2       11.1180  141.8930   21.7880 C.ar  107  TYR107     -0.0009
    174  CE1       11.7220  142.3130   19.1210 C.ar  107  TYR107      0.0417
    175  CE2       11.6280  143.1130   21.3890 C.ar  107  TYR107      0.0417
    176  CZ        11.9260  143.3200   20.0530 C.ar  107  TYR107      0.1957
    177  OH        12.4440  144.5270   19.6480 O.3   107  TYR107     -0.2866
    178  N          8.2420  137.1720   21.6660 N.am  108  PHE108     -0.1976
    179  CA         7.9540  135.7920   22.0360 C.3   108  PHE108      0.1639
    180  C          7.4940  134.9200   20.8830 C.2   108  PHE108      0.2290
    181  O          8.0930  133.8800   20.6230 O.2   108  PHE108     -0.2864
    182  CB         6.9330  135.7340   23.1540 C.3   108  PHE108      0.0560
    183  CG         7.4980  136.0440   24.5060 C.ar  108  PHE108     -0.0200
    184  CD1        8.8660  135.9060   24.8060 C.ar  108  PHE108     -0.0042
    185  CD2        6.6430  136.4370   25.5080 C.ar  108  PHE108     -0.0042
    186  CE1        9.3460  136.1840   26.0720 C.ar  108  PHE108     -0.0003
    187  CE2        7.1130  136.7150   26.7700 C.ar  108  PHE108     -0.0003
    188  CZ         8.4690  136.5860   27.0610 C.ar  108  PHE108     -0.0000
    189  N         10.5670  133.7160   18.8930 N.3   111  ILE111     -0.1245
    190  CA        11.4120  132.5950   19.3620 C.3   111  ILE111      0.1561
    191  C         10.7150  131.2330   19.3000 C.2   111  ILE111      0.2260
    192  O         11.3900  130.2040   19.2030 O.2   111  ILE111     -0.2867
    193  CB        12.0060  132.7880   20.7790 C.3   111  ILE111      0.0252
    194  CG1       10.9200  132.8060   21.8550 C.3   111  ILE111      0.0019
    195  CG2       12.8640  134.0380   20.8250 C.3   111  ILE111      0.0019
    196  CD1       10.7610  131.4940   22.5700 C.3   111  ILE111      0.0001
    197  N         13.3380  127.9840   18.0220 N.3   115  PHE115     -0.1241
    198  CA        13.5560  126.5580   18.2550 C.3   115  PHE115      0.1605
    199  C         13.2040  125.7480   17.0060 C.2   115  PHE115      0.2264
    200  O         14.0330  125.0280   16.4880 O.2   115  PHE115     -0.2867
    201  CB        12.7280  126.0590   19.4070 C.3   115  PHE115      0.0534
    202  CG        13.2170  126.5020   20.7410 C.ar  115  PHE115     -0.0203
    203  CD1       14.3390  125.9130   21.3090 C.ar  115  PHE115     -0.0042
    204  CD2       12.5360  127.4760   21.4580 C.ar  115  PHE115     -0.0042
    205  CE1       14.7860  126.2980   22.5700 C.ar  115  PHE115     -0.0003
    206  CE2       12.9760  127.8640   22.7190 C.ar  115  PHE115     -0.0003
    207  CZ        14.1070  127.2800   23.2740 C.ar  115  PHE115     -0.0000
    208  N          4.4890  124.3920   23.0210 N.3   135  PHE135     -0.1241
    209  CA         5.3460  125.5170   23.3550 C.3   135  PHE135      0.1605
    210  C          4.6060  126.8620   23.3830 C.2   135  PHE135      0.2264
    211  O          4.8930  127.6880   24.2540 O.2   135  PHE135     -0.2867
    212  CB         6.5230  125.5680   22.4030 C.3   135  PHE135      0.0534
    213  CG         7.6020  126.4880   22.8470 C.ar  135  PHE135     -0.0203
    214  CD1        8.4570  126.1260   23.8930 C.ar  135  PHE135     -0.0042
    215  CD2        7.7600  127.7220   22.2360 C.ar  135  PHE135     -0.0042
    216  CE1        9.4590  126.9830   24.3090 C.ar  135  PHE135     -0.0003
    217  CE2        8.7680  128.5810   22.6400 C.ar  135  PHE135     -0.0003
    218  CZ         9.6180  128.2110   23.6790 C.ar  135  PHE135     -0.0000
    219  N          4.3690  130.0500   26.0790 N.3   139  VAL139     -0.1245
    220  CA         4.7450  131.4400   25.7740 C.3   139  VAL139      0.1561
    221  C          3.5610  132.4200   25.6860 C.2   139  VAL139      0.2260
    222  O          3.6330  133.5290   26.2200 O.2   139  VAL139     -0.2867
    223  CB         5.6090  131.5350   24.5020 C.3   139  VAL139      0.0252
    224  CG1        6.8620  130.6820   24.6470 C.3   139  VAL139      0.0019
    225  CG2        4.8460  131.1870   23.2440 C.3   139  VAL139      0.0019
    226  N          2.9170  133.8970   28.8460 N.3   142  ILE142     -0.1245
    227  CA         3.8800  134.8950   29.3470 C.3   142  ILE142      0.1561
    228  C          3.5470  136.2950   28.8290 C.2   142  ILE142      0.2260
    229  O          3.6040  137.2570   29.5900 O.2   142  ILE142     -0.2867
    230  CB         5.3420  134.5460   28.9750 C.3   142  ILE142      0.0252
    231  CG1        5.6870  133.1140   29.3790 C.3   142  ILE142      0.0019
    232  CG2        6.3240  135.4820   29.6700 C.3   142  ILE142      0.0019
    233  CD1        5.4790  132.7950   30.8450 C.3   142  ILE142      0.0001
@<TRIPOS>BOND
     1    15    14    2
     2    14    13    1
     3   200   199    2
     4    12    13    1
     5    13    16    1
     6   199   198    1
     7    18    17    1
     8   197   198    1
     9   198   201    1
    10     4     3    2
    11    16    17    1
    12    17    19    1
    13    20    21    1
    14   189   190    1
    15     3     2    1
    16   174   172   ar
    17   174   176   ar
    18   192   191    2
    19   191   190    1
    20   190   193    1
    21   201   202    1
    22    25    24    1
    23   172   171   ar
    24   177   176    1
    25   176   175   ar
    26    24    21    1
    27    21    22    1
    28   169   168    2
    29   166   167    1
    30     2     1    1
    31     2     5    1
    32   167   168    1
    33   167   170    1
    34   181   180    2
    35   168   178   am
    36   202   203   ar
    37   202   204   ar
    38    22    23    2
    39   193   195    1
    40   193   194    1
    41   171   170    1
    42   171   173   ar
    43   180   179    1
    44   203   205   ar
    45   175   173   ar
    46   204   206   ar
    47     5     6    1
    48   178   179    1
    49   194   196    1
    50   179   182    1
    51   215   217   ar
    52   215   213   ar
    53   212   213    1
    54   212   209    1
    55   205   207   ar
    56   217   218   ar
    57     6     7   ar
    58     6     8   ar
    59   206   207   ar
    60     7     9   ar
    61   213   214   ar
    62   208   209    1
    63   182   183    1
    64   225   223    1
    65    26    27    1
    66   209   210    1
    67   210   211    2
    68   218   216   ar
    69     8    10   ar
    70   214   216   ar
    71     9    11   ar
    72    29    28    2
    73   223   224    1
    74   223   220    1
    75   183   184   ar
    76   183   185   ar
    77    27    30    1
    78    27    28    1
    79    10    11   ar
    80   184   186   ar
    81    30    31    1
    82    41    43   ar
    83    41    39   ar
    84    43    44   ar
    85    28    34   am
    86   161   162    2
    87   161   160    1
    88   185   187   ar
    89   221   220    1
    90   221   222    2
    91   220   219    1
    92   160   159    1
    93   160   163    1
    94    38    39    1
    95    38    35    1
    96    39    40   ar
    97    44    42   ar
    98   186   188   ar
    99    31    32    1
   100    31    33    1
   101    34    35    1
   102   187   188   ar
   103    35    36    1
   104    37    36    2
   105   102   100    1
   106    40    42   ar
   107   163   164    1
   108   163   165    1
   109   101   100    1
   110   100    99    1
   111    89    88    1
   112    62    60    1
   113    70    72   ar
   114    70    68   ar
   115   228   227    1
   116   228   229    2
   117    72    71   ar
   118   226   227    1
   119   230   227    1
   120   230   231    1
   121   230   232    1
   122    88    90    1
   123    88    85    1
   124    99    96    1
   125    59    58    2
   126   231   233    1
   127    58    57    1
   128    45    46    1
   129   145   147   ar
   130   145   143   ar
   131    68    67    1
   132    68    69   ar
   133   147   146   ar
   134    60    57    1
   135    60    61    1
   136    71    69   ar
   137    56    57    1
   138    56    47   am
   139    67    64    1
   140    86    85    1
   141    86    87    2
   142    96    97    1
   143    96    95    1
   144    85    84    1
   145    65    64    1
   146    65    66    2
   147   109   108    1
   148   143   142    1
   149   143   144   ar
   150    98    97    2
   151    46    47    1
   152    46    49    1
   153   151   150    2
   154   141   140    2
   155    47    48    2
   156   146   144   ar
   157   142   139    1
   158   150   149    1
   159    64    63    1
   160    84    75   am
   161    95    93   am
   162    49    50    1
   163   107   108    1
   164   107   104    1
   165   152   149    1
   166   152   153    1
   167   140   139    1
   168   108   110    1
   169   128   126    1
   170   139   138    1
   171   149   148    1
   172   154   153    1
   173   154   155    1
   174   105   104    1
   175   105   106    2
   176    75    76    2
   177    75    74    1
   178    93    94    2
   179    93    92    1
   180    73    74    1
   181   104   103    1
   182    50    51    1
   183   138   131   am
   184   126   127    1
   185   126   125    1
   186    74    77    1
   187   124   123    2
   188    52    51    1
   189    52    53    2
   190    91    92    1
   191    54    53    1
   192   155   156    2
   193    53    55    1
   194    83    81    1
   195   132   131    2
   196   123   122    1
   197    77    78    1
   198   131   130    1
   199   125   122    1
   200   157   156    1
   201   156   158    1
   202    80    81    2
   203    80    79    1
   204    81    82    1
   205   122   121    1
   206    78    79    1
   207   130   129    1
   208   130   133    1
   209   133   134    1
   210   121   113   am
   211   114   113    2
   212   113   112    1
   213   134   135    1
   214   111   112    1
   215   136   135    2
   216   112   115    1
   217   135   137   am
   218   118   116   ar
   219   118   120   ar
   220   115   116    1
   221   116   117   ar
   222   120   119   ar
   223   117   119   ar
