@<TRIPOS>MOLECULE
tmp/5m3lD00.pdb
 216 208 0 0 0
SMALL
GASTEIGER

@<TRIPOS>ATOM
      1  N         12.7440  120.9830   52.8750 N.3    32  TRP32      -0.1241
      2  CA        12.3090  122.1000   53.7460 C.3    32  TRP32       0.1605
      3  C         11.5840  121.6030   54.9750 C.2    32  TRP32       0.2264
      4  O         11.8290  122.0900   56.0730 O.2    32  TRP32      -0.2867
      5  CB        11.4070  123.0870   53.0090 C.3    32  TRP32       0.0550
      6  CG        12.1190  123.7480   51.9260 C.ar   32  TRP32       0.0003
      7  CD1       12.0980  123.4080   50.6140 C.ar   32  TRP32       0.0946
      8  CD2       13.0290  124.8310   52.0460 C.ar   32  TRP32       0.0152
      9  NE1       12.9210  124.2360   49.8940 N.ar   32  TRP32      -0.2442
     10  CE2       13.5050  125.1230   50.7530 C.ar   32  TRP32       0.0810
     11  CE3       13.4820  125.5930   53.1150 C.ar   32  TRP32       0.0012
     12  CZ2       14.4100  126.1480   50.5020 C.ar   32  TRP32       0.0191
     13  CZ3       14.3960  126.6050   52.8710 C.ar   32  TRP32       0.0001
     14  CH2       14.8420  126.8800   51.5720 C.ar   32  TRP32       0.0015
     15  N         13.9590  121.2110   57.8720 N.3    35  ILE35      -0.1245
     16  CA        14.4850  122.3740   58.5960 C.3    35  ILE35       0.1561
     17  C         13.4250  123.1620   59.3740 C.2    35  ILE35       0.2260
     18  O         13.6890  123.5970   60.4910 O.2    35  ILE35      -0.2867
     19  CB        15.2990  123.3250   57.6900 C.3    35  ILE35       0.0252
     20  CG1       14.4180  124.0490   56.6650 C.3    35  ILE35       0.0019
     21  CG2       16.4360  122.5680   57.0120 C.3    35  ILE35       0.0019
     22  CD1       15.1690  125.1330   55.9500 C.3    35  ILE35       0.0001
     23  N         12.3110  130.1470   60.9690 N.3    42  ILE42      -0.1245
     24  CA        12.7270  130.2610   59.5610 C.3    42  ILE42       0.1561
     25  C         11.5750  130.6050   58.6110 C.2    42  ILE42       0.2260
     26  O         11.8230  131.1490   57.5430 O.2    42  ILE42      -0.2867
     27  CB        13.4530  128.9740   59.0530 C.3    42  ILE42       0.0252
     28  CG1       14.6830  128.6280   59.9120 C.3    42  ILE42       0.0019
     29  CG2       13.9110  129.1050   57.6000 C.3    42  ILE42       0.0019
     30  CD1       15.7720  129.6670   59.9230 C.3    42  ILE42       0.0001
     31  N         10.3500  134.8750   56.8390 N.3    45  PRO45      -0.2102
     32  CA        10.5690  135.5450   55.5370 C.3    45  PRO45       0.1504
     33  C          9.6990  135.0790   54.3700 C.2    45  PRO45       0.2575
     34  O          9.5830  135.7930   53.3670 O.2    45  PRO45      -0.2718
     35  CB        12.0360  135.2240   55.2190 C.3    45  PRO45       0.0282
     36  CG        12.2870  133.9490   55.9210 C.3    45  PRO45       0.0208
     37  CD        11.5510  134.1100   57.2210 C.3    45  PRO45       0.0893
     38  N          9.0940  133.9030   54.4900 N.am   46  PHE46      -0.1977
     39  CA         8.3380  133.3360   53.3870 C.3    46  PHE46       0.1639
     40  C          6.8940  133.8250   53.2650 C.2    46  PHE46       0.2290
     41  O          6.1620  133.3230   52.4120 O.2    46  PHE46      -0.2864
     42  CB         8.3570  131.8170   53.4800 C.3    46  PHE46       0.0560
     43  CG         9.7260  131.2270   53.3520 C.ar   46  PHE46      -0.0200
     44  CD1       10.3840  131.2200   52.1230 C.ar   46  PHE46      -0.0042
     45  CD2       10.3580  130.6650   54.4510 C.ar   46  PHE46      -0.0042
     46  CE1       11.6490  130.6640   52.0030 C.ar   46  PHE46      -0.0003
     47  CE2       11.6150  130.1010   54.3360 C.ar   46  PHE46      -0.0003
     48  CZ        12.2620  130.1050   53.1120 C.ar   46  PHE46      -0.0000
     49  N          5.8150  136.1520   51.7050 N.3    48  ARG48      -0.1231
     50  CA         5.6190  136.4960   50.2870 C.3    48  ARG48       0.1694
     51  C          5.1210  135.3620   49.4070 C.2    48  ARG48       0.2591
     52  O          4.2900  135.5790   48.5220 O.2    48  ARG48      -0.2718
     53  CB         6.9170  137.0390   49.7000 C.3    48  ARG48       0.0321
     54  CG         7.3990  138.3160   50.3850 C.3    48  ARG48       0.0489
     55  CD         6.4050  139.4620   50.2540 C.3    48  ARG48       0.2205
     56  NE         6.2100  139.7730   48.8430 N.pl3  48  ARG48      -0.0865
     57  CZ         7.0390  140.5100   48.1060 C.cat  48  ARG48       0.5346
     58  NH1        6.7610  140.7100   46.8210 N.pl3  48  ARG48       0.1354
     59  NH2        8.1400  141.0560   48.6310 N.pl3  48  ARG48       0.1354
     60  N          5.6500  134.1660   49.6450 N.am   49  VAL49      -0.1980
     61  CA         5.2840  132.9440   48.8910 C.3    49  VAL49       0.1595
     62  C          4.1920  132.1000   49.5780 C.2    49  VAL49       0.2287
     63  O          3.9560  130.9580   49.1860 O.2    49  VAL49      -0.2864
     64  CB         6.5310  132.0620   48.6220 C.3    49  VAL49       0.0276
     65  CG1        7.5620  132.8460   47.8200 C.3    49  VAL49       0.0022
     66  CG2        7.1460  131.5180   49.9160 C.3    49  VAL49       0.0022
     67  N          8.1330  127.5310   44.4440 N.3    62  HIS62      -0.1241
     68  CA         9.3240  128.1850   44.9620 C.3    62  HIS62       0.1621
     69  C         10.4650  127.2120   45.1770 C.2    62  HIS62       0.2264
     70  O         11.5060  127.3170   44.5300 O.2    62  HIS62      -0.2867
     71  CB         9.0120  128.9310   46.2550 C.3    62  HIS62       0.0745
     72  CG        10.2170  129.5230   46.8920 C.ar   62  HIS62       0.0817
     73  ND1       10.9600  130.5010   46.2750 N.ar   62  HIS62      -0.2268
     74  CD2       10.8410  129.2460   48.0610 C.ar   62  HIS62       0.1154
     75  CE1       11.9770  130.8220   47.0510 C.ar   62  HIS62       0.1986
     76  NE2       11.9320  130.0720   48.1390 N.ar   62  HIS62      -0.2212
     77  N         12.3510  126.1920   42.2170 N.3    65  ARG65      -0.1231
     78  CA        13.2650  127.2640   41.7660 C.3    65  ARG65       0.1694
     79  C         14.5480  127.2710   42.5790 C.2    65  ARG65       0.2591
     80  O         15.6150  127.5530   42.0460 O.2    65  ARG65      -0.2718
     81  CB        12.6380  128.6540   41.8640 C.3    65  ARG65       0.0321
     82  CG        11.7710  129.0390   40.6930 C.3    65  ARG65       0.0489
     83  CD        11.0050  130.3080   41.0070 C.3    65  ARG65       0.2205
     84  NE         9.8650  130.0640   41.9040 N.pl3  65  ARG65      -0.0865
     85  CZ         9.1610  131.0260   42.5080 C.cat  65  ARG65       0.5346
     86  NH1        9.4990  132.3020   42.3690 N.pl3  65  ARG65       0.1354
     87  NH2        8.1350  130.7130   43.3010 N.pl3  65  ARG65       0.1354
     88  N         14.4310  126.9620   43.8660 N.am   66  VAL66      -0.1980
     89  CA        15.5900  126.8660   44.7470 C.3    66  VAL66       0.1595
     90  C         16.5570  125.8270   44.2170 C.2    66  VAL66       0.2287
     91  O         17.6650  126.1550   43.8210 O.2    66  VAL66      -0.2864
     92  CB        15.1950  126.4750   46.1870 C.3    66  VAL66       0.0276
     93  CG1       16.4340  126.2230   47.0470 C.3    66  VAL66       0.0022
     94  CG2       14.3210  127.5510   46.8140 C.3    66  VAL66       0.0022
     95  N         18.4890  126.2720   41.1890 N.3    69  GLY69      -0.1210
     96  CA        19.6910  127.0870   41.4000 C.3    69  GLY69       0.1956
     97  C         20.9620  126.2880   41.6490 C.2    69  GLY69       0.2611
     98  O         21.9910  126.5370   41.0090 O.2    69  GLY69      -0.2717
     99  N         20.8880  125.3240   42.5660 N.am   70  LEU70      -0.1979
    100  CA        22.0140  124.4250   42.8390 C.3    70  LEU70       0.1596
    101  C         22.4900  123.7130   41.5870 C.2    70  LEU70       0.2287
    102  O         23.6900  123.4770   41.4420 O.2    70  LEU70      -0.2864
    103  CB        21.6650  123.3680   43.8770 C.3    70  LEU70       0.0297
    104  CG        21.9010  123.7750   45.3230 C.3    70  LEU70       0.0022
    105  CD1       20.9170  124.8530   45.7170 C.3    70  LEU70       0.0001
    106  CD2       21.7740  122.5750   46.2500 C.3    70  LEU70       0.0001
    107  N         24.6750  126.1870   39.7960 N.3    73  THR73      -0.1218
    108  CA        25.9040  126.2030   40.5880 C.3    73  THR73       0.1862
    109  C         26.7600  124.9440   40.3470 C.2    73  THR73       0.2287
    110  O         27.8320  125.0150   39.7260 O.2    73  THR73      -0.2866
    111  CB        25.5910  126.3380   42.0950 C.3    73  THR73       0.1770
    112  OG1       24.7240  127.4310   42.2980 O.3    73  THR73      -0.2211
    113  CG2       26.8250  126.4760   42.9260 C.3    73  THR73       0.0375
    114  N         23.7760  135.5820   42.0760 N.3    90  LEU90      -0.1245
    115  CA        22.9150  134.9180   43.0410 C.3    90  LEU90       0.1561
    116  C         22.7800  135.7420   44.3110 C.2    90  LEU90       0.2260
    117  O         21.6590  136.0450   44.7200 O.2    90  LEU90      -0.2867
    118  CB        23.4280  133.5160   43.3650 C.3    90  LEU90       0.0270
    119  CG        22.3320  132.5280   43.7490 C.3    90  LEU90       0.0019
    120  CD1       22.7670  131.1260   43.3630 C.3    90  LEU90       0.0001
    121  CD2       21.9880  132.5770   45.2280 C.3    90  LEU90       0.0001
    122  N         20.2450  138.6040   44.5880 N.3    93  GLN93      -0.1231
    123  CA        18.8620  138.2650   44.9010 C.3    93  GLN93       0.1698
    124  C         18.5890  138.1790   46.4170 C.2    93  GLN93       0.2592
    125  O         17.4750  138.4620   46.8590 O.2    93  GLN93      -0.2718
    126  CB        18.4660  136.9570   44.2070 C.3    93  GLN93       0.0381
    127  CG        18.9330  137.0350   42.7480 C.3    93  GLN93       0.0905
    128  CD        18.1830  136.0650   41.8650 C.2    93  GLN93       0.2608
    129  OE1       16.9950  136.2670   41.6070 O.2    93  GLN93      -0.2717
    130  NE2       18.8660  135.0560   41.4180 N.am   93  GLN93      -0.0878
    131  N         19.6040  137.8030   47.1970 N.am   94  HIS94      -0.1976
    132  CA        19.4900  137.6860   48.6590 C.3    94  HIS94       0.1656
    133  C         19.8980  138.9020   49.4840 C.2    94  HIS94       0.2291
    134  O         19.8120  138.8540   50.7190 O.2    94  HIS94      -0.2864
    135  CB        20.3070  136.4930   49.1320 C.3    94  HIS94       0.0771
    136  CG        19.7240  135.1950   48.7120 C.ar   94  HIS94       0.0820
    137  ND1       19.8830  134.6880   47.4440 N.ar   94  HIS94      -0.2267
    138  CD2       18.9430  134.3200   49.3790 C.ar   94  HIS94       0.1154
    139  CE1       19.2340  133.5460   47.3520 C.ar   94  HIS94       0.1986
    140  NE2       18.6570  133.3030   48.5130 N.ar   94  HIS94      -0.2212
    141  N         16.6810  141.0690   51.4730 N.3    97  ARG97      -0.1245
    142  CA        15.8260  140.4240   52.4620 C.3    97  ARG97       0.1563
    143  C         16.5540  140.1440   53.7670 C.2    97  ARG97       0.2260
    144  O         17.7730  139.9960   53.8020 O.2    97  ARG97      -0.2867
    145  CB        15.2460  139.1440   51.8740 C.3    97  ARG97       0.0307
    146  CG        14.3190  139.4790   50.7170 C.3    97  ARG97       0.0489
    147  CD        13.7170  138.3120   49.9880 C.3    97  ARG97       0.2205
    148  NE        12.9280  138.8360   48.8700 N.pl3  97  ARG97      -0.0865
    149  CZ        13.4180  139.2640   47.7010 C.cat  97  ARG97       0.5346
    150  NH1       12.5820  139.7230   46.7720 N.pl3  97  ARG97       0.1354
    151  NH2       14.7260  139.2330   47.4390 N.pl3  97  ARG97       0.1354
    152  N         18.0210  138.2170   56.5850 N.3    99  LEU99      -0.1245
    153  CA        18.5990  136.9000   56.8120 C.3    99  LEU99       0.1561
    154  C         19.4790  136.9550   58.0410 C.2    99  LEU99       0.2260
    155  O         19.7410  138.0270   58.5850 O.2    99  LEU99      -0.2867
    156  CB        19.4330  136.4760   55.6010 C.3    99  LEU99       0.0270
    157  CG        18.7150  135.8190   54.4180 C.3    99  LEU99       0.0019
    158  CD1       17.8710  136.7940   53.6160 C.3    99  LEU99       0.0001
    159  CD2       19.7360  135.1740   53.4960 C.3    99  LEU99       0.0001
    160  N         21.7980  130.8680   59.2440 N.3   103  PHE103     -0.1227
    161  CA        20.8280  130.0170   58.5090 C.3   103  PHE103      0.1736
    162  C         21.4680  129.2720   57.3550 C.2   103  PHE103      0.2595
    163  O         21.1680  128.1020   57.1380 O.2   103  PHE103     -0.2718
    164  CB        19.6310  130.8140   57.9620 C.3   103  PHE103      0.0547
    165  CG        18.7510  131.4190   59.0230 C.ar  103  PHE103     -0.0202
    166  CD1       18.7920  130.9830   60.3600 C.ar  103  PHE103     -0.0042
    167  CD2       17.8500  132.4240   58.6780 C.ar  103  PHE103     -0.0042
    168  CE1       17.9720  131.5580   61.3160 C.ar  103  PHE103     -0.0003
    169  CE2       17.0250  132.9970   59.6370 C.ar  103  PHE103     -0.0003
    170  CZ        17.0860  132.5640   60.9570 C.ar  103  PHE103     -0.0000
    171  N         22.3370  129.9520   56.6150 N.am  104  PHE104     -0.1976
    172  CA        23.1390  129.3060   55.5850 C.3   104  PHE104      0.1639
    173  C         23.9000  128.1090   56.1460 C.2   104  PHE104      0.2290
    174  O         23.6820  126.9890   55.7090 O.2   104  PHE104     -0.2864
    175  CB        24.1120  130.3040   54.9700 C.3   104  PHE104      0.0560
    176  CG        23.4750  131.3750   54.1280 C.ar  104  PHE104     -0.0200
    177  CD1       22.1740  131.2780   53.6450 C.ar  104  PHE104     -0.0042
    178  CD2       24.2260  132.4970   53.7860 C.ar  104  PHE104     -0.0042
    179  CE1       21.6360  132.2920   52.8620 C.ar  104  PHE104     -0.0003
    180  CE2       23.7020  133.5070   53.0030 C.ar  104  PHE104     -0.0003
    181  CZ        22.4050  133.4040   52.5350 C.ar  104  PHE104     -0.0000
    182  N         21.5670  125.3620   56.6900 N.3   107  PHE107     -0.1241
    183  CA        21.0450  124.7530   55.4540 C.3   107  PHE107      0.1605
    184  C         21.8200  123.5250   55.0050 C.2   107  PHE107      0.2264
    185  O         21.2480  122.4480   54.9500 O.2   107  PHE107     -0.2867
    186  CB        21.0580  125.7920   54.3400 C.3   107  PHE107      0.0534
    187  CG        20.6210  125.2850   53.0090 C.ar  107  PHE107     -0.0203
    188  CD1       19.2760  125.2870   52.6720 C.ar  107  PHE107     -0.0042
    189  CD2       21.5580  124.8670   52.0700 C.ar  107  PHE107     -0.0042
    190  CE1       18.8600  124.8530   51.4270 C.ar  107  PHE107     -0.0003
    191  CE2       21.1520  124.4300   50.8210 C.ar  107  PHE107     -0.0003
    192  CZ        19.7990  124.4230   50.4990 C.ar  107  PHE107     -0.0000
    193  N         29.9970  127.0470   47.5440 N.3   135  ILE135     -0.1231
    194  CA        28.7300  127.6020   47.0660 C.3   135  ILE135      0.1692
    195  C         28.1410  128.5880   48.0720 C.2   135  ILE135      0.2591
    196  O         27.6490  129.6470   47.6890 O.2   135  ILE135     -0.2718
    197  CB        27.6940  126.4890   46.7970 C.3   135  ILE135      0.0266
    198  CG1       28.2480  125.4910   45.7750 C.3   135  ILE135      0.0019
    199  CG2       26.3780  127.0880   46.3000 C.3   135  ILE135      0.0020
    200  CD1       27.4830  124.1860   45.7040 C.3   135  ILE135      0.0001
    201  N         28.1770  128.2280   49.3510 N.am  136  ILE136     -0.1980
    202  CA        27.5280  129.0130   50.4000 C.3   136  ILE136      0.1595
    203  C         28.2130  130.3560   50.7080 C.2   136  ILE136      0.2287
    204  O         27.5340  131.3380   51.0100 O.2   136  ILE136     -0.2864
    205  CB        27.3870  128.1690   51.6880 C.3   136  ILE136      0.0276
    206  CG1       26.2530  128.6760   52.5580 C.3   136  ILE136      0.0022
    207  CG2       28.6660  128.1440   52.5250 C.3   136  ILE136      0.0022
    208  CD1       25.9490  127.6900   53.6600 C.3   136  ILE136      0.0001
    209  N         27.4940  133.5510   48.7090 N.3   139  ILE139     -0.1245
    210  CA        26.2210  134.2140   49.0340 C.3   139  ILE139      0.1561
    211  C         26.3970  135.2950   50.1100 C.2   139  ILE139      0.2260
    212  O         25.6950  136.3070   50.0770 O.2   139  ILE139     -0.2867
    213  CB        25.1360  133.1960   49.4730 C.3   139  ILE139      0.0252
    214  CG1       25.0860  131.9910   48.5150 C.3   139  ILE139      0.0019
    215  CG2       23.7630  133.8550   49.5270 C.3   139  ILE139      0.0019
    216  CD1       24.9950  132.3530   47.0450 C.3   139  ILE139      0.0001
@<TRIPOS>BOND
     1   110   109    2
     2   107   108    1
     3   109   108    1
     4   108   111    1
     5    82    83    1
     6    82    81    1
     7    83    84    1
     8    98    97    2
     9    95    96    1
    10    96    97    1
    11   130   128   am
    12   102   101    2
    13   101   100    1
    14   129   128    2
    15    97    99   am
    16    78    81    1
    17    78    77    1
    18    78    79    1
    19   128   127    1
    20    84    85    2
    21    80    79    2
    22   114   115    1
    23   111   112    1
    24   111   113    1
    25    86    85    1
    26    85    87    1
    27    99   100    1
    28    79    88   am
    29   127   126    1
    30   100   103    1
    31   115   118    1
    32   115   116    1
    33   120   119    1
    34   118   119    1
    35   119   121    1
    36    91    90    2
    37    88    89    1
    38   103   104    1
    39   126   123    1
    40    90    89    1
    41   116   117    2
    42    67    68    1
    43    70    69    2
    44   122   123    1
    45    89    92    1
    46   123   124    1
    47    68    69    1
    48    68    71    1
    49   104   105    1
    50   104   106    1
    51   200   198    1
    52   198   197    1
    53    92    94    1
    54    92    93    1
    55    71    72    1
    56    73    72   ar
    57    73    75   ar
    58   199   197    1
    59   124   125    2
    60   124   131   am
    61   150   149    1
    62   197   194    1
    63    58    57    1
    64    72    74   ar
    65   216   214    1
    66    75    76   ar
    67   194   193    1
    68   194   195    1
    69   131   132    1
    70   139   137   ar
    71   139   140   ar
    72   151   149    1
    73   137   136   ar
    74   196   195    2
    75   149   148    2
    76    65    64    1
    77    74    76   ar
    78   195   201   am
    79    57    59    1
    80    57    56    2
    81   140   138   ar
    82   214   213    1
    83    52    51    2
    84    64    61    1
    85    64    66    1
    86   132   135    1
    87   132   133    1
    88   209   210    1
    89   136   135    1
    90   136   138   ar
    91    56    55    1
    92   148   147    1
    93    61    62    1
    94    61    60    1
    95   210   213    1
    96   210   211    1
    97    63    62    2
    98   201   202    1
    99    51    60   am
   100    51    50    1
   101   213   215    1
   102   133   134    2
   103    53    50    1
   104    53    54    1
   105     9     7   ar
   106     9    10   ar
   107   147   146    1
   108   212   211    2
   109    55    54    1
   110    50    49    1
   111   202   203    1
   112   202   205    1
   113   192   191   ar
   114   192   190   ar
   115    12    10   ar
   116    12    14   ar
   117     7     6   ar
   118   203   204    2
   119   146   145    1
   120    10     8   ar
   121   191   189   ar
   122   190   188   ar
   123   141   142    1
   124    14    13   ar
   125   205   207    1
   126   205   206    1
   127   145   142    1
   128     6     8   ar
   129     6     5    1
   130    46    44   ar
   131    46    48   ar
   132     8    11   ar
   133   189   187   ar
   134    44    43   ar
   135    41    40    2
   136   142   143    1
   137   181   179   ar
   138   181   180   ar
   139   206   208    1
   140   188   187   ar
   141   179   177   ar
   142    13    11   ar
   143     1     2    1
   144   180   178   ar
   145     5     2    1
   146   187   186    1
   147    48    47   ar
   148    40    39    1
   149    43    42    1
   150    43    45   ar
   151    34    33    2
   152    39    42    1
   153    39    38    1
   154   159   157    1
   155   158   157    1
   156   177   176   ar
   157     2     3    1
   158   143   144    2
   159   178   176   ar
   160   176   175    1
   161    47    45   ar
   162   186   183    1
   163    33    38   am
   164    33    32    1
   165   157   156    1
   166   185   184    2
   167   175   172    1
   168     3     4    2
   169   184   183    1
   170    35    32    1
   171    35    36    1
   172   183   182    1
   173    32    31    1
   174   172   173    1
   175   172   171    1
   176   156   153    1
   177   174   173    2
   178    36    37    1
   179    22    20    1
   180   152   153    1
   181   171   162   am
   182    20    19    1
   183   153   154    1
   184    31    37    1
   185    21    19    1
   186   163   162    2
   187   162   161    1
   188    26    25    2
   189    29    27    1
   190    19    16    1
   191    15    16    1
   192   164   161    1
   193   164   165    1
   194   154   155    2
   195   161   160    1
   196    16    17    1
   197    25    24    1
   198   167   165   ar
   199   167   169   ar
   200   165   166   ar
   201    27    24    1
   202    27    28    1
   203    17    18    2
   204    24    23    1
   205   169   170   ar
   206    28    30    1
   207   166   168   ar
   208   170   168   ar
