@<TRIPOS>MOLECULE
tmp/5m3lB00.pdb
 209 201 0 0 0
SMALL
GASTEIGER

@<TRIPOS>ATOM
      1  N         35.0980   95.8940    9.5220 N.3    34  TRP34      -0.1241
      2  CA        36.1160   95.3080    8.6730 C.3    34  TRP34       0.1605
      3  C         35.5620   94.2840    7.6900 C.2    34  TRP34       0.2264
      4  O         35.8460   94.3790    6.4900 O.2    34  TRP34      -0.2867
      5  CB        37.2740   94.7690    9.5000 C.3    34  TRP34       0.0550
      6  CG        37.9550   95.9020   10.1430 C.ar   34  TRP34       0.0003
      7  CD1       37.8560   96.2840   11.4390 C.ar   34  TRP34       0.0946
      8  CD2       38.7580   96.8780    9.4970 C.ar   34  TRP34       0.0152
      9  NE1       38.5930   97.4200   11.6590 N.ar   34  TRP34      -0.2442
     10  CE2       39.1500   97.8080   10.4740 C.ar   34  TRP34       0.0810
     11  CE3       39.1860   97.0550    8.1850 C.ar   34  TRP34       0.0012
     12  CZ2       39.9330   98.8940   10.1850 C.ar   34  TRP34       0.0191
     13  CZ3       39.9690   98.1320    7.8950 C.ar   34  TRP34       0.0001
     14  CH2       40.3470   99.0410    8.8970 C.ar   34  TRP34       0.0015
     15  N         34.3010   96.2450    4.9410 N.3    37  THR37      -0.1218
     16  CA        35.3200   96.8680    4.1100 C.3    37  THR37       0.1862
     17  C         35.9690   95.9020    3.1360 C.2    37  THR37       0.2287
     18  O         35.9420   96.1340    1.9330 O.2    37  THR37      -0.2866
     19  CB        36.3990   97.5300    4.9580 C.3    37  THR37       0.1770
     20  OG1       35.8120   98.6390    5.6300 O.3    37  THR37      -0.2211
     21  CG2       37.5410   98.0550    4.0980 C.3    37  THR37       0.0375
     22  N         42.9490   95.1060   -0.4140 N.3    44  SER44      -0.1217
     23  CA        43.3710   95.9240    0.7430 C.3    44  SER44       0.1889
     24  C         43.9440   95.1230    1.9250 C.2    44  SER44       0.2288
     25  O         44.6040   95.7000    2.7980 O.2    44  SER44      -0.2866
     26  CB        42.2130   96.7680    1.2720 C.3    44  SER44       0.2089
     27  OG        42.0530   97.9420    0.5420 O.3    44  SER44      -0.2183
     28  N         47.9010   95.2420    3.0470 N.3    47  LEU47      -0.1231
     29  CA        48.4590   96.2450    3.9700 C.3    47  LEU47       0.1693
     30  C         48.5630   95.7970    5.4040 C.2    47  LEU47       0.2592
     31  O         49.2720   96.4250    6.1890 O.2    47  LEU47      -0.2718
     32  CB        47.6380   97.5270    3.9600 C.3    47  LEU47       0.0284
     33  CG        48.0060   98.4830    2.8330 C.3    47  LEU47       0.0019
     34  CD1       47.7170   97.8760    1.4640 C.3    47  LEU47       0.0001
     35  CD2       47.2530   99.7890    3.0320 C.3    47  LEU47       0.0001
     36  N         47.8480   94.7340    5.7500 N.am   48  PHE48      -0.1976
     37  CA        47.8100   94.2290    7.1120 C.3    48  PHE48       0.1639
     38  C         48.6440   92.9770    7.3730 C.2    48  PHE48       0.2290
     39  O         48.5580   92.3990    8.4510 O.2    48  PHE48      -0.2864
     40  CB        46.3520   93.9940    7.4800 C.3    48  PHE48       0.0560
     41  CG        45.5050   95.2390    7.4200 C.ar   48  PHE48      -0.0200
     42  CD1       46.0280   96.5000    7.6740 C.ar   48  PHE48      -0.0042
     43  CD2       44.1650   95.1440    7.1300 C.ar   48  PHE48      -0.0042
     44  CE1       45.2270   97.6230    7.6250 C.ar   48  PHE48      -0.0003
     45  CE2       43.3650   96.2690    7.0770 C.ar   48  PHE48      -0.0003
     46  CZ        43.8990   97.5100    7.3260 C.ar   48  PHE48      -0.0000
     47  N         51.4120   92.6250    8.5110 N.3    50  ARG50      -0.1231
     48  CA        52.0560   92.7620    9.8160 C.3    50  ARG50       0.1694
     49  C         51.1880   92.3930   11.0360 C.2    50  ARG50       0.2591
     50  O         51.7140   91.9890   12.0690 O.2    50  ARG50      -0.2718
     51  CB        52.5680   94.2010    9.9780 C.3    50  ARG50       0.0321
     52  CG        53.3400   94.5060   11.2570 C.3    50  ARG50       0.0489
     53  CD        54.5570   93.6020   11.3880 C.3    50  ARG50       0.2205
     54  NE        55.2760   93.7800   12.6440 N.pl3  50  ARG50      -0.0865
     55  CZ        56.1910   92.9340   13.1300 C.cat  50  ARG50       0.5346
     56  NH1       56.7810   93.2070   14.2900 N.pl3  50  ARG50       0.1354
     57  NH2       56.5300   91.8140   12.4790 N.pl3  50  ARG50       0.1354
     58  N         49.8750   92.5360   10.9200 N.am   51  VAL51      -0.1980
     59  CA        48.9490   92.3230   12.0480 C.3    51  VAL51       0.1595
     60  C         48.2100   90.9640   12.0140 C.2    51  VAL51       0.2287
     61  O         47.2800   90.7360   12.7950 O.2    51  VAL51      -0.2864
     62  CB        47.9500   93.5080   12.1170 C.3    51  VAL51       0.0276
     63  CG1       46.8560   93.3900   11.0720 C.3    51  VAL51       0.0022
     64  CG2       47.3760   93.6660   13.5100 C.3    51  VAL51       0.0022
     65  N         43.8030   94.9690   17.1380 N.3    64  HIS64      -0.1241
     66  CA        44.0120   96.0190   16.1570 C.3    64  HIS64       0.1621
     67  C         42.7830   96.8780   15.9080 C.2    64  HIS64       0.2264
     68  O         42.9020   98.0860   15.8420 O.2    64  HIS64      -0.2867
     69  CB        44.4430   95.4390   14.8310 C.3    64  HIS64       0.0745
     70  CG        44.5200   96.4540   13.7490 C.ar   64  HIS64       0.0817
     71  ND1       45.4410   97.4760   13.7750 N.ar   64  HIS64      -0.2268
     72  CD2       43.7680   96.6420   12.6390 C.ar   64  HIS64       0.1154
     73  CE1       45.2760   98.2340   12.7080 C.ar   64  HIS64       0.1986
     74  NE2       44.2710   97.7470   11.9990 N.ar   64  HIS64      -0.2212
     75  N         41.7150   99.5000   18.8510 N.3    67  ARG67      -0.1231
     76  CA        42.5140  100.7140   18.7500 C.3    67  ARG67       0.1694
     77  C         41.9820  101.6430   17.6690 C.2    67  ARG67       0.2591
     78  O         41.9260  102.8420   17.8810 O.2    67  ARG67      -0.2718
     79  CB        43.9780  100.3970   18.4810 C.3    67  ARG67       0.0321
     80  CG        44.6800   99.7450   19.6640 C.3    67  ARG67       0.0489
     81  CD        46.1900   99.8990   19.5540 C.3    67  ARG67       0.2205
     82  NE        46.6970   99.2910   18.3200 N.pl3  67  ARG67      -0.0865
     83  CZ        46.9850   97.9960   18.1490 C.cat  67  ARG67       0.5346
     84  NH1       46.8410   97.1050   19.1300 N.pl3  67  ARG67       0.1354
     85  NH2       47.4280   97.5780   16.9700 N.pl3  67  ARG67       0.1354
     86  N         41.5570  101.0860   16.5400 N.am   68  VAL68      -0.1980
     87  CA        41.0040  101.8740   15.4390 C.3    68  VAL68       0.1595
     88  C         39.7630  102.6200   15.8670 C.2    68  VAL68       0.2287
     89  O         39.6700  103.8130   15.6340 O.2    68  VAL68      -0.2864
     90  CB        40.6440  101.0000   14.2360 C.3    68  VAL68       0.0276
     91  CG1       39.8450  101.7910   13.2070 C.3    68  VAL68       0.0022
     92  CG2       41.9100  100.4390   13.6090 C.3    68  VAL68       0.0022
     93  N         40.6980  104.9140   18.6370 N.3    71  GLY71      -0.1210
     94  CA        41.2720  106.1260   18.0500 C.3    71  GLY71       0.1956
     95  C         40.2080  107.0630   17.5100 C.2    71  GLY71       0.2611
     96  O         40.1820  108.2490   17.8360 O.2    71  GLY71      -0.2717
     97  N         39.3120  106.5150   16.7020 N.am   72  LEU72      -0.1979
     98  CA        38.2100  107.2810   16.1200 C.3    72  LEU72       0.1596
     99  C         37.2400  107.8490   17.1550 C.2    72  LEU72       0.2287
    100  O         36.6410  108.8800   16.9090 O.2    72  LEU72      -0.2864
    101  CB        37.4450  106.4020   15.1330 C.3    72  LEU72       0.0297
    102  CG        36.4060  107.1110   14.2800 C.3    72  LEU72       0.0022
    103  CD1       36.4430  106.5770   12.8640 C.3    72  LEU72       0.0001
    104  CD2       35.0160  106.9460   14.8500 C.3    72  LEU72       0.0001
    105  N         47.5230  111.4000   13.9850 N.3    92  LEU92      -0.1245
    106  CA        47.1640  110.2840   13.0950 C.3    92  LEU92       0.1561
    107  C         47.8440  110.3730   11.7210 C.2    92  LEU92       0.2260
    108  O         48.1340  109.3440   11.1160 O.2    92  LEU92      -0.2867
    109  CB        45.6440  110.1620   12.9170 C.3    92  LEU92       0.0270
    110  CG        44.8320  109.4580   14.0090 C.3    92  LEU92       0.0019
    111  CD1       44.9390  110.1440   15.3580 C.3    92  LEU92       0.0001
    112  CD2       43.3740  109.3990   13.5860 C.3    92  LEU92       0.0001
    113  N         51.0470  108.5960   11.6160 N.3    95  GLN95      -0.1231
    114  CA        50.7880  107.1650   11.7320 C.3    95  GLN95       0.1698
    115  C         50.6560  106.4850   10.3850 C.2    95  GLN95       0.2592
    116  O         51.3500  105.5060   10.1110 O.2    95  GLN95      -0.2718
    117  CB        49.5380  106.9050   12.5670 C.3    95  GLN95       0.0381
    118  CG        49.7230  107.2400   14.0370 C.3    95  GLN95       0.0905
    119  CD        50.7960  106.3810   14.6810 C.2    95  GLN95       0.2608
    120  OE1       50.9050  105.1890   14.3810 O.2    95  GLN95      -0.2717
    121  NE2       51.6130  106.9830   15.5480 N.am   95  GLN95      -0.0878
    122  N         49.7720  107.0030    9.5420 N.am   96  HIS96      -0.1976
    123  CA        49.5430  106.4000    8.2340 C.3    96  HIS96       0.1656
    124  C         50.5570  106.7920    7.1760 C.2    96  HIS96       0.2291
    125  O         50.7840  106.0230    6.2370 O.2    96  HIS96      -0.2864
    126  CB        48.1480  106.7240    7.7380 C.3    96  HIS96       0.0771
    127  CG        47.0710  106.1060    8.5680 C.ar   96  HIS96       0.0820
    128  ND1       46.5360  106.7310    9.6750 N.ar   96  HIS96      -0.2267
    129  CD2       46.4460  104.9090    8.4670 C.ar   96  HIS96       0.1154
    130  CE1       45.6150  105.9530   10.2080 C.ar   96  HIS96       0.1986
    131  NE2       45.5490  104.8430    9.4980 N.ar   96  HIS96      -0.2212
    132  N         53.3090  104.6670    4.9670 N.3    99  ARG99      -0.1245
    133  CA        52.9550  103.6220    4.0050 C.3    99  ARG99       0.1563
    134  C         51.9310  104.1340    2.9970 C.2    99  ARG99       0.2260
    135  O         51.3430  105.2060    3.1780 O.2    99  ARG99      -0.2867
    136  CB        52.4400  102.3820    4.7360 C.3    99  ARG99       0.0307
    137  CG        51.2920  102.6590    5.6830 C.3    99  ARG99       0.0489
    138  CD        50.8800  101.4000    6.4140 C.3    99  ARG99       0.2205
    139  NE        51.8720  101.0150    7.4140 N.pl3  99  ARG99      -0.0865
    140  CZ        52.0220  101.5810    8.6150 C.cat  99  ARG99       0.5346
    141  NH1       51.2410  102.5880    9.0190 N.pl3  99  ARG99       0.1354
    142  NH2       52.9750  101.1270    9.4290 N.pl3  99  ARG99       0.1354
    143  N         48.6810  104.4930    1.1590 N.3   101  ILE101     -0.1245
    144  CA        47.2330  104.3220    1.2290 C.3   101  ILE101      0.1561
    145  C         46.6000  105.1300    0.1160 C.2   101  ILE101      0.2260
    146  O         46.5990  106.3590    0.1860 O.2   101  ILE101     -0.2867
    147  CB        46.6600  104.7930    2.5770 C.3   101  ILE101      0.0252
    148  CG1       47.1450  103.8800    3.7020 C.3   101  ILE101      0.0019
    149  CG2       45.1400  104.8020    2.5580 C.3   101  ILE101      0.0019
    150  CD1       48.4110  104.3650    4.3610 C.3   101  ILE101      0.0001
    151  N         40.6850  103.7140   -0.9830 N.3   105  TYR105     -0.1227
    152  CA        40.3200  102.8940    0.1780 C.3   105  TYR105      0.1736
    153  C         39.5250  103.6600    1.1950 C.2   105  TYR105      0.2595
    154  O         38.3370  103.4110    1.3210 O.2   105  TYR105     -0.2718
    155  CB        41.5190  102.2620    0.8690 C.3   105  TYR105      0.0548
    156  CG        42.2750  101.2670    0.0450 C.ar  105  TYR105     -0.0200
    157  CD1       41.8150  100.8290   -1.2110 C.ar  105  TYR105     -0.0009
    158  CD2       43.4610  100.7340    0.5320 C.ar  105  TYR105     -0.0009
    159  CE1       42.5360   99.9100   -1.9490 C.ar  105  TYR105      0.0417
    160  CE2       44.1850   99.8020   -0.1970 C.ar  105  TYR105      0.0417
    161  CZ        43.7160   99.3830   -1.4310 C.ar  105  TYR105      0.1957
    162  OH        44.4390   98.4520   -2.1430 O.3   105  TYR105     -0.2866
    163  N         40.1190  104.6130    1.9040 N.am  106  PHE106     -0.1976
    164  CA        39.3590  105.2340    2.9940 C.3   106  PHE106      0.1639
    165  C         38.1700  106.0820    2.5240 C.2   106  PHE106      0.2290
    166  O         37.4760  106.6750    3.3450 O.2   106  PHE106     -0.2864
    167  CB        40.2320  105.9630    4.0280 C.3   106  PHE106      0.0560
    168  CG        41.0150  107.0910    3.4780 C.ar  106  PHE106     -0.0200
    169  CD1       40.3910  108.2750    3.0940 C.ar  106  PHE106     -0.0042
    170  CD2       42.3920  106.9830    3.3560 C.ar  106  PHE106     -0.0042
    171  CE1       41.1290  109.3220    2.5830 C.ar  106  PHE106     -0.0003
    172  CE2       43.1370  108.0280    2.8500 C.ar  106  PHE106     -0.0003
    173  CZ        42.5060  109.1970    2.4650 C.ar  106  PHE106     -0.0000
    174  N         36.0420  102.6460    3.3350 N.3   109  PHE109     -0.1241
    175  CA        35.9040  102.6110    4.7950 C.3   109  PHE109      0.1605
    176  C         34.9460  103.6860    5.3440 C.2   109  PHE109      0.2264
    177  O         34.3730  103.5250    6.4130 O.2   109  PHE109     -0.2867
    178  CB        37.2620  102.7990    5.4360 C.3   109  PHE109      0.0534
    179  CG        37.2380  102.8400    6.9360 C.ar  109  PHE109     -0.0203
    180  CD1       37.0020  104.0360    7.6140 C.ar  109  PHE109     -0.0042
    181  CD2       37.4900  101.6850    7.6760 C.ar  109  PHE109     -0.0042
    182  CE1       36.9930  104.0680    9.0040 C.ar  109  PHE109     -0.0003
    183  CE2       37.4850  101.7120    9.0650 C.ar  109  PHE109     -0.0003
    184  CZ        37.2330  102.9040    9.7310 C.ar  109  PHE109     -0.0000
    185  N         37.2730  114.3530    9.1790 N.3   137  ILE137     -0.1231
    186  CA        38.3360  113.5050    9.7280 C.3   137  ILE137      0.1692
    187  C         39.1440  112.8230    8.6170 C.2   137  ILE137      0.2591
    188  O         40.3620  112.7960    8.6940 O.2   137  ILE137     -0.2718
    189  CB        37.7980  112.4540   10.7100 C.3   137  ILE137      0.0266
    190  CG1       37.2090  113.1510   11.9370 C.3   137  ILE137      0.0019
    191  CG2       38.8980  111.5010   11.1480 C.3   137  ILE137      0.0020
    192  CD1       36.3190  112.2620   12.7890 C.3   137  ILE137      0.0001
    193  N         38.4820  112.3030    7.5850 N.am  138  GLU138     -0.1979
    194  CA        39.1880  111.7180    6.4310 C.3   138  GLU138      0.1602
    195  C         40.1500  112.7060    5.7400 C.2   138  GLU138      0.2287
    196  O         41.2960  112.3470    5.4450 O.2   138  GLU138     -0.2864
    197  CB        38.2010  111.1450    5.4000 C.3   138  GLU138      0.0415
    198  CG        37.4120  109.9250    5.8530 C.3   138  GLU138      0.1163
    199  CD        38.2760  108.7920    6.3870 C.2   138  GLU138      0.3649
    200  OE1       39.4400  108.6280    5.9460 O.co2 138  GLU138     -0.2457
    201  OE2       37.7750  108.0480    7.2580 O.co2 138  GLU138     -0.2457
    202  N         43.4420  112.7930    8.0810 N.3   141  ILE141     -0.1245
    203  CA        44.4880  111.7620    8.0580 C.3   141  ILE141      0.1561
    204  C         45.2000  111.6990    6.7080 C.2   141  ILE141      0.2260
    205  O         46.4070  111.4650    6.6600 O.2   141  ILE141     -0.2867
    206  CB        43.9470  110.3650    8.4390 C.3   141  ILE141      0.0252
    207  CG1       43.4740  110.3520    9.8960 C.3   141  ILE141      0.0019
    208  CG2       45.0120  109.2850    8.2640 C.3   141  ILE141      0.0019
    209  CD1       41.9780  110.4720   10.0690 C.3   141  ILE141      0.0001
@<TRIPOS>BOND
     1   162   161    1
     2   159   161   ar
     3   159   157   ar
     4   161   160   ar
     5   157   156   ar
     6   151   152    1
     7    22    23    1
     8   160   158   ar
     9   156   158   ar
    10   156   155    1
    11   145   146    2
    12   145   144    1
    13   152   155    1
    14   152   153    1
    15    27    26    1
    16    23    26    1
    17    23    24    1
    18   143   144    1
    19   153   154    2
    20   153   163   am
    21   144   147    1
    22    34    33    1
    23   163   164    1
    24    24    25    2
    25    18    17    2
    26   173   171   ar
    27   173   172   ar
    28   165   164    1
    29   165   166    2
    30   149   147    1
    31   147   148    1
    32   171   169   ar
    33    33    35    1
    34    33    32    1
    35   172   170   ar
    36   164   167    1
    37   134   135    2
    38   134   133    1
    39    28    29    1
    40   169   168   ar
    41    17    16    1
    42   174   175    1
    43   170   168   ar
    44   168   167    1
    45   148   150    1
    46    32    29    1
    47    29    30    1
    48   133   136    1
    49   133   132    1
    50    21    19    1
    51    16    15    1
    52    16    19    1
    53   136   137    1
    54   175   176    1
    55   175   178    1
    56    19    20    1
    57   176   177    2
    58   197   198    1
    59   197   194    1
    60    30    36   am
    61    30    31    2
    62   178   179    1
    63   196   195    2
    64   137   138    1
    65   195   194    1
    66    36    37    1
    67   198   199    1
    68   200   199   ar
    69   125   124    2
    70   199   201   ar
    71   138   139    1
    72   194   193    1
    73     4     3    2
    74   205   204    2
    75   204   203    1
    76   179   180   ar
    77   179   181   ar
    78    45    43   ar
    79    45    46   ar
    80    37    38    1
    81    37    40    1
    82    43    41   ar
    83   124   123    1
    84    46    44   ar
    85    38    39    2
    86   139   140    2
    87    41    40    1
    88    41    42   ar
    89   193   187   am
    90   180   182   ar
    91    44    42   ar
    92   181   183   ar
    93     3     2    1
    94   126   123    1
    95   126   127    1
    96    13    11   ar
    97    13    14   ar
    98   203   202    1
    99   203   206    1
   100    11     8   ar
   101   123   122    1
   102   208   206    1
   103   206   207    1
   104   129   127   ar
   105   129   131   ar
   106    47    48    1
   107   127   128   ar
   108   140   141    1
   109   140   142    1
   110   187   188    2
   111   187   186    1
   112     2     5    1
   113     2     1    1
   114    14    12   ar
   115   182   184   ar
   116   183   184   ar
   117   185   186    1
   118     8     6   ar
   119     8    10   ar
   120   131   130   ar
   121     5     6    1
   122   122   115   am
   123   128   130   ar
   124   186   189    1
   125    48    51    1
   126    48    49    1
   127   207   209    1
   128    51    52    1
   129   116   115    2
   130     6     7   ar
   131    12    10   ar
   132   115   114    1
   133    10     9   ar
   134   189   191    1
   135   189   190    1
   136    58    49   am
   137    58    59    1
   138    49    50    2
   139    63    62    1
   140   108   107    2
   141    52    53    1
   142    53    54    1
   143     7     9   ar
   144   113   114    1
   145   107   106    1
   146   114   117    1
   147   190   192    1
   148    74    72   ar
   149    74    73   ar
   150    60    59    1
   151    60    61    2
   152    59    62    1
   153    62    64    1
   154    57    55    1
   155   117   118    1
   156    72    70   ar
   157    54    55    2
   158    73    71   ar
   159   103   102    1
   160   109   106    1
   161   109   110    1
   162   106   105    1
   163    55    56    1
   164    91    90    1
   165   112   110    1
   166    92    90    1
   167    70    71   ar
   168    70    69    1
   169   110   111    1
   170   118   119    1
   171    90    87    1
   172   102   104    1
   173   102   101    1
   174   120   119    2
   175   119   121   am
   176    69    66    1
   177   101    98    1
   178    87    88    1
   179    87    86    1
   180    89    88    2
   181    68    67    2
   182    67    66    1
   183    98    97    1
   184    98    99    1
   185    66    65    1
   186    86    77   am
   187    97    95   am
   188   100    99    2
   189    85    83    1
   190    95    96    2
   191    95    94    1
   192    77    78    2
   193    77    76    1
   194    94    93    1
   195    83    82    2
   196    83    84    1
   197    82    81    1
   198    79    76    1
   199    79    80    1
   200    76    75    1
   201    81    80    1
