@<TRIPOS>MOLECULE
tmp/5m3wA01.pdb
 119 118 0 0 0
SMALL
GASTEIGER

@<TRIPOS>ATOM
      1  N          6.1010   32.8160    6.8400 N.3    17  TYR17      -0.1241
      2  CA         5.4540   32.0060    7.8640 C.3    17  TYR17       0.1605
      3  C          5.4750   32.7870    9.1740 C.2    17  TYR17       0.2264
      4  O          6.5130   33.2490    9.6210 O.2    17  TYR17      -0.2867
      5  CB         6.1660   30.6580    7.9740 C.3    17  TYR17       0.0534
      6  CG         5.9890   29.9000    6.6730 C.ar   17  TYR17      -0.0201
      7  CD1        6.8190   30.1080    5.5850 C.ar   17  TYR17      -0.0009
      8  CD2        4.9070   29.0550    6.4640 C.ar   17  TYR17      -0.0009
      9  CE1        6.5570   29.5310    4.3450 C.ar   17  TYR17       0.0417
     10  CE2        4.6430   28.4770    5.2260 C.ar   17  TYR17       0.0417
     11  CZ         5.4800   28.7230    4.1680 C.ar   17  TYR17       0.1957
     12  OH         5.2590   28.1820    2.9180 O.3    17  TYR17      -0.2866
     13  N          4.2420   31.5740   12.1850 N.3    19  TRP19      -0.1241
     14  CA         3.8410   30.5530   13.1410 C.3    19  TRP19       0.1605
     15  C          4.8730   30.3290   14.2650 C.2    19  TRP19       0.2264
     16  O          4.6940   29.4020   15.0670 O.2    19  TRP19      -0.2867
     17  CB         3.4980   29.2740   12.3960 C.3    19  TRP19       0.0550
     18  CG         4.5560   28.6940   11.5040 C.ar   19  TRP19       0.0003
     19  CD1        5.9160   28.7820   11.6040 C.ar   19  TRP19       0.0946
     20  CD2        4.3160   27.8310   10.3780 C.ar   19  TRP19       0.0152
     21  NE1        6.5120   28.0430   10.6470 N.ar   19  TRP19      -0.2442
     22  CE2        5.5570   27.4290    9.8800 C.ar   19  TRP19       0.0810
     23  CE3        3.1520   27.3440    9.7600 C.ar   19  TRP19       0.0012
     24  CZ2        5.6900   26.5600    8.8000 C.ar   19  TRP19       0.0191
     25  CZ3        3.2840   26.4720    8.6790 C.ar   19  TRP19       0.0001
     26  CH2        4.5390   26.0950    8.2140 C.ar   19  TRP19       0.0015
     27  N         -3.8900   29.9040    7.9580 N.3    97  TRP97      -0.1241
     28  CA        -4.3810   28.6130    8.4250 C.3    97  TRP97       0.1605
     29  C         -5.7790   28.6680    9.0150 C.2    97  TRP97       0.2264
     30  O         -6.2750   27.6420    9.4910 O.2    97  TRP97      -0.2867
     31  CB        -3.3960   28.0010    9.4350 C.3    97  TRP97       0.0550
     32  CG        -2.1820   27.5220    8.7960 C.ar   97  TRP97       0.0003
     33  CD1       -1.0360   28.2190    8.5930 C.ar   97  TRP97       0.0946
     34  CD2       -1.9940   26.2400    8.1960 C.ar   97  TRP97       0.0152
     35  NE1       -0.1310   27.4420    7.9400 N.ar   97  TRP97      -0.2442
     36  CE2       -0.6770   26.2190    7.6640 C.ar   97  TRP97       0.0810
     37  CE3       -2.8090   25.1050    8.0430 C.ar   97  TRP97       0.0012
     38  CZ2       -0.1790   25.1220    6.9950 C.ar   97  TRP97       0.0191
     39  CZ3       -2.3060   24.0100    7.3920 C.ar   97  TRP97       0.0001
     40  CH2       -1.0020   24.0150    6.8530 C.ar   97  TRP97       0.0015
     41  N         -1.6290   33.3130    1.5280 N.3   125  HIS125     -0.1241
     42  CA        -1.3570   31.9560    1.0340 C.3   125  HIS125      0.1621
     43  C         -2.3090   31.0240    1.7810 C.2   125  HIS125      0.2264
     44  O         -2.1120   30.7280    2.9610 O.2   125  HIS125     -0.2867
     45  CB         0.0960   31.6240    1.3010 C.3   125  HIS125      0.0745
     46  CG         0.5910   30.3650    0.6620 C.ar  125  HIS125      0.0817
     47  ND1        1.8310   29.8520    0.9390 N.ar  125  HIS125     -0.2268
     48  CD2        0.0620   29.5720   -0.2920 C.ar  125  HIS125      0.1154
     49  CE1        2.0350   28.7990    0.1560 C.ar  125  HIS125      0.1986
     50  NE2        0.9870   28.6020   -0.6100 N.ar  125  HIS125     -0.2212
     51  N         -3.9750   28.0300    3.1150 N.3   127  GLU127     -0.1231
     52  CA        -3.4860   26.7130    3.4440 C.3   127  GLU127      0.1684
     53  C         -4.6340   25.7050    3.5190 C.2   127  GLU127      0.2434
     54  O         -5.8070   26.0840    3.5640 O.2   127  GLU127     -0.2733
     55  CB        -2.7270   26.7700    4.7650 C.3   127  GLU127      0.0402
     56  CG        -1.5130   27.6810    4.6880 C.3   127  GLU127      0.1161
     57  CD        -0.2880   27.0690    4.0640 C.2   127  GLU127      0.3649
     58  OE1       -0.3790   25.9620    3.4930 O.co2 127  GLU127     -0.2457
     59  OE2        0.7870   27.7290    4.1550 O.co2 127  GLU127     -0.2457
     60  N         -4.3160   24.3970    3.5760 N.am  128  PRO128     -0.2729
     61  CA        -5.3570   23.3410    3.6260 C.3   128  PRO128      0.1401
     62  C         -5.8750   23.1640    5.0380 C.2   128  PRO128      0.2269
     63  O         -5.6030   22.1780    5.7140 O.2   128  PRO128     -0.2865
     64  CB        -4.6520   22.1200    3.0710 C.3   128  PRO128      0.0296
     65  CG        -3.2850   22.4960    2.7820 C.3   128  PRO128      0.0237
     66  CD        -3.0010   23.8140    3.3070 C.3   128  PRO128      0.0939
     67  N         -2.6840   26.7350   -1.6270 N.3   166  TYR166     -0.1241
     68  CA        -1.8240   25.5670   -1.4670 C.3   166  TYR166      0.1605
     69  C         -2.6340   24.2880   -1.5510 C.2   166  TYR166      0.2264
     70  O         -3.7650   24.2000   -1.0630 O.2   166  TYR166     -0.2867
     71  CB        -1.0060   25.6340   -0.1770 C.3   166  TYR166      0.0534
     72  CG         0.0160   24.5480   -0.0940 C.ar  166  TYR166     -0.0201
     73  CD1        1.1090   24.5190   -0.9380 C.ar  166  TYR166     -0.0009
     74  CD2       -0.1000   23.5010    0.7970 C.ar  166  TYR166     -0.0009
     75  CE1        2.0230   23.4930   -0.9270 C.ar  166  TYR166      0.0417
     76  CE2        0.8150   22.4650    0.8140 C.ar  166  TYR166      0.0417
     77  CZ         1.8500   22.4430   -0.0650 C.ar  166  TYR166      0.1957
     78  OH         2.7650   21.4190   -0.0850 O.3   166  TYR166     -0.2866
     79  N          5.3950   26.1040   -5.8900 N.3   223  TYR223     -0.1241
     80  CA         5.8120   26.0510   -4.4840 C.3   223  TYR223      0.1605
     81  C          7.1630   25.3790   -4.2070 C.2   223  TYR223      0.2264
     82  O          8.0340   25.9840   -3.5920 O.2   223  TYR223     -0.2867
     83  CB         4.7340   25.5000   -3.5160 C.3   223  TYR223      0.0534
     84  CG         5.1880   25.7140   -2.0860 C.ar  223  TYR223     -0.0201
     85  CD1        5.1630   26.9910   -1.5160 C.ar  223  TYR223     -0.0009
     86  CD2        5.7510   24.6930   -1.3450 C.ar  223  TYR223     -0.0009
     87  CE1        5.7030   27.2440   -0.2890 C.ar  223  TYR223      0.0417
     88  CE2        6.3070   24.9340   -0.0950 C.ar  223  TYR223      0.0417
     89  CZ         6.3050   26.2040    0.4270 C.ar  223  TYR223      0.1957
     90  OH         6.9370   26.4370    1.6330 O.3   223  TYR223     -0.2866
     91  N         11.6810   15.4290    9.4680 N.3   266  ARG266     -0.1245
     92  CA        11.3200   14.2910    8.6090 C.3   266  ARG266      0.1563
     93  C         12.5990   13.5190    8.3330 C.2   266  ARG266      0.2260
     94  O         13.1590   13.5860    7.2300 O.2   266  ARG266     -0.2867
     95  CB        10.6410   14.7320    7.3160 C.3   266  ARG266      0.0307
     96  CG         9.3870   15.5680    7.5040 C.3   266  ARG266      0.0489
     97  CD         8.6870   15.8610    6.1920 C.3   266  ARG266      0.2205
     98  NE         7.5290   16.7460    6.3240 N.pl3 266  ARG266     -0.0865
     99  CZ         7.4490   17.9940    5.8660 C.cat 266  ARG266      0.5346
    100  NH1        8.4530   18.5910    5.2670 N.pl3 266  ARG266      0.1354
    101  NH2        6.3170   18.6590    6.0280 N.pl3 266  ARG266      0.1354
    102  N         10.6800   29.3650    5.9680 N.3   304  GLU304     -0.1245
    103  CA        10.2130   28.0030    6.2590 C.3   304  GLU304      0.1567
    104  C         11.4460   27.2340    6.7600 C.2   304  GLU304      0.2260
    105  O         12.1150   26.4830    6.0590 O.2   304  GLU304     -0.2867
    106  CB         9.5200   27.3430    5.0630 C.3   304  GLU304      0.0388
    107  CG         8.2730   26.5490    5.4330 C.3   304  GLU304      0.1160
    108  CD         8.4680   25.3830    6.3250 C.2   304  GLU304      0.3649
    109  OE1        7.4430   24.6000    6.3990 O.co2 304  GLU304     -0.2457
    110  OE2        9.4930   25.1930    6.9840 O.co2 304  GLU304     -0.2457
    111  N         12.0030   23.3550    6.6080 N.3   307  GLU307     -0.1245
    112  CA        12.2730   22.7540    5.3090 C.3   307  GLU307      0.1567
    113  C         13.5760   23.2340    4.6980 C.2   307  GLU307      0.2260
    114  O         13.9370   22.8030    3.6030 O.2   307  GLU307     -0.2867
    115  CB        11.0860   22.9190    4.3990 C.3   307  GLU307      0.0388
    116  CG         9.9130   22.0970    4.9420 C.3   307  GLU307      0.1160
    117  CD         8.6870   22.0470    4.0810 C.2   307  GLU307      0.3649
    118  OE1        8.6280   22.7130    3.0290 O.co2 307  GLU307     -0.2457
    119  OE2        7.7690   21.2950    4.5030 O.co2 307  GLU307     -0.2457
@<TRIPOS>BOND
     1    79    80    1
     2    80    81    1
     3    80    83    1
     4    81    82    2
     5    83    84    1
     6    84    85   ar
     7    84    86   ar
     8    67    68    1
     9    69    68    1
    10    69    70    2
    11    85    87   ar
    12    68    71    1
    13    86    88   ar
    14    73    75   ar
    15    73    72   ar
    16    75    77   ar
    17    50    48   ar
    18    50    49   ar
    19    48    46   ar
    20    87    89   ar
    21    71    72    1
    22    88    89   ar
    23    72    74   ar
    24    78    77    1
    25    77    76   ar
    26    49    47   ar
    27    89    90    1
    28    46    47   ar
    29    46    45    1
    30    74    76   ar
    31    42    45    1
    32    42    41    1
    33    42    43    1
    34    43    44    2
    35    65    64    1
    36    65    66    1
    37    12    11    1
    38   118   117   ar
    39    64    61    1
    40    51    52    1
    41    66    60    1
    42    52    53    1
    43    52    55    1
    44    58    57   ar
    45    53    54    2
    46    53    60   am
    47    60    61    1
    48   114   113    2
    49    61    62    1
    50    57    59   ar
    51    57    56    1
    52   117   119   ar
    53   117   116    1
    54    11     9   ar
    55    11    10   ar
    56     9     7   ar
    57   115   116    1
    58   115   112    1
    59    56    55    1
    60   113   112    1
    61    62    63    2
    62   106   107    1
    63   106   103    1
    64    10     8   ar
    65   100    99    1
    66   112   111    1
    67   107   108    1
    68     7     6   ar
    69    99   101    1
    70    99    98    2
    71   102   103    1
    72   105   104    2
    73    97    98    1
    74    97    96    1
    75   103   104    1
    76   108   109   ar
    77   108   110   ar
    78     8     6   ar
    79     6     5    1
    80     1     2    1
    81    40    38   ar
    82    40    39   ar
    83    38    36   ar
    84    94    93    2
    85    95    96    1
    86    95    92    1
    87    39    37   ar
    88    36    35   ar
    89    36    34   ar
    90     2     5    1
    91     2     3    1
    92    35    33   ar
    93    27    28    1
    94    37    34   ar
    95    34    32   ar
    96    26    25   ar
    97    26    24   ar
    98    93    92    1
    99    28    29    1
   100    28    31    1
   101    33    32   ar
   102    92    91    1
   103    25    23   ar
   104    32    31    1
   105    24    22   ar
   106    29    30    2
   107     3     4    2
   108    23    20   ar
   109    22    20   ar
   110    22    21   ar
   111    20    18   ar
   112    21    19   ar
   113    18    19   ar
   114    18    17    1
   115    13    14    1
   116    17    14    1
   117    14    15    1
   118    15    16    2
