@<TRIPOS>MOLECULE
tmp/5m3zA01.pdb
 90 85 0 0 0
SMALL
GASTEIGER

@<TRIPOS>ATOM
      1  N         -8.0810   25.4090   47.6540 N.3   110  TYR110     -0.1241
      2  CA        -8.7430   24.5820   48.5790 C.3   110  TYR110      0.1605
      3  C         -9.4570   25.4310   49.6760 C.2   110  TYR110      0.2264
      4  O         -8.8930   26.4140   50.1940 O.2   110  TYR110     -0.2867
      5  CB        -7.8330   23.5410   49.3560 C.3   110  TYR110      0.0534
      6  CG        -8.4710   22.5810   50.4100 C.ar  110  TYR110     -0.0201
      7  CD1       -9.4870   21.6520   50.0900 C.ar  110  TYR110     -0.0009
      8  CD2       -8.0630   22.6480   51.7510 C.ar  110  TYR110     -0.0009
      9  CE1      -10.0240   20.8310   51.0580 C.ar  110  TYR110      0.0417
     10  CE2       -8.5880   21.8020   52.7180 C.ar  110  TYR110      0.0417
     11  CZ        -9.5720   20.9010   52.3740 C.ar  110  TYR110      0.1957
     12  OH       -10.0870   20.0740   53.3140 O.3   110  TYR110     -0.2866
     13  N        -10.2610   25.2460   52.8720 N.3   112  HIS112     -0.1241
     14  CA        -9.7530   25.5730   54.2270 C.3   112  HIS112      0.1621
     15  C         -8.5140   26.4290   54.1450 C.2   112  HIS112      0.2264
     16  O         -8.2770   27.2900   55.0610 O.2   112  HIS112     -0.2867
     17  CB        -9.5180   24.3170   55.1080 C.3   112  HIS112      0.0745
     18  CG       -10.7530   23.4930   55.2660 C.ar  112  HIS112      0.0817
     19  ND1      -10.7360   22.2560   55.8440 N.ar  112  HIS112     -0.2268
     20  CD2      -12.0320   23.7010   54.8580 C.ar  112  HIS112      0.1154
     21  CE1      -11.9510   21.7380   55.8460 C.ar  112  HIS112      0.1986
     22  NE2      -12.7500   22.5710   55.2060 N.ar  112  HIS112     -0.2212
     23  N         -2.8890   17.8540   43.8330 N.3   185  PHE185     -0.1241
     24  CA        -3.6920   17.2380   42.8350 C.3   185  PHE185      0.1605
     25  C         -2.8970   16.4120   41.8850 C.2   185  PHE185      0.2264
     26  O         -3.4120   15.4030   41.3240 O.2   185  PHE185     -0.2867
     27  CB        -4.5320   18.2670   42.0270 C.3   185  PHE185      0.0534
     28  CG        -5.8590   18.5090   42.5730 C.ar  185  PHE185     -0.0203
     29  CD1       -6.0820   18.4780   43.9910 C.ar  185  PHE185     -0.0042
     30  CD2       -6.9190   18.8360   41.7180 C.ar  185  PHE185     -0.0042
     31  CE1       -7.3380   18.7670   44.5310 C.ar  185  PHE185     -0.0003
     32  CE2       -8.1890   19.1010   42.2530 C.ar  185  PHE185     -0.0003
     33  CZ        -8.4070   19.0680   43.6530 C.ar  185  PHE185     -0.0000
     34  N         -3.9730   12.7320   49.9820 N.3   207  LYS207     -0.1245
     35  CA        -4.4620   12.4360   48.6250 C.3   207  LYS207      0.1561
     36  C         -3.5580   11.4090   47.8850 C.2   207  LYS207      0.2260
     37  O         -3.3350   10.3140   48.4290 O.2   207  LYS207     -0.2867
     38  CB        -4.6630   13.7530   47.8380 C.3   207  LYS207      0.0271
     39  CG        -5.4980   14.8410   48.5300 C.3   207  LYS207      0.0035
     40  CD        -6.5160   14.4120   49.5580 C.3   207  LYS207      0.0206
     41  CE        -7.1870   15.6120   50.2170 C.3   207  LYS207      0.1093
     42  NZ        -8.1720   15.2580   51.2890 N.3   207  LYS207     -0.1314
     43  N        -16.0170   13.4170   50.5220 N.3   335  VAL335     -0.1231
     44  CA       -14.9690   14.3610   50.2210 C.3   335  VAL335      0.1692
     45  C        -13.6290   13.6110   50.2790 C.2   335  VAL335      0.2593
     46  O        -13.5790   12.3980   50.4760 O.2   335  VAL335     -0.2718
     47  CB       -15.0210   15.5670   51.1780 C.3   335  VAL335      0.0266
     48  CG1      -16.4520   16.1060   51.2570 C.3   335  VAL335      0.0020
     49  CG2      -14.5060   15.1690   52.5440 C.3   335  VAL335      0.0020
     50  N        -12.5500   14.3570   50.1540 N.am  336  SER336     -0.1938
     51  CA       -11.2550   13.8070   49.8030 C.3   336  SER336      0.2055
     52  C        -11.2510   13.3050   48.3510 C.2   336  SER336      0.2642
     53  O        -12.2560   13.2720   47.6450 O.2   336  SER336     -0.2714
     54  CB       -10.7520   12.7010   50.7500 C.3   336  SER336      0.2130
     55  OG        -9.3180   12.7100   50.7410 O.3   336  SER336     -0.2179
     56  N        -10.0580   12.9410   47.9440 N.am  337  LEU337     -0.1977
     57  CA        -9.7390   12.5320   46.6060 C.3   337  LEU337      0.1596
     58  C         -8.3780   11.8490   46.6280 C.2   337  LEU337      0.2287
     59  O         -7.6400   11.8650   47.6280 O.2   337  LEU337     -0.2864
     60  CB        -9.7240   13.7410   45.6570 C.3   337  LEU337      0.0297
     61  CG        -8.7570   14.8880   46.0250 C.3   337  LEU337      0.0022
     62  CD1       -7.4280   14.7930   45.2910 C.3   337  LEU337      0.0001
     63  CD2       -9.3890   16.2290   45.6860 C.3   337  LEU337      0.0001
     64  N        -18.7770   13.7010   44.6140 N.3   345  GLN345     -0.1245
     65  CA       -19.4630   14.6780   45.4760 C.3   345  GLN345      0.1566
     66  C        -20.1830   15.7220   44.5880 C.2   345  GLN345      0.2260
     67  O        -19.8570   15.9120   43.4710 O.2   345  GLN345     -0.2867
     68  CB       -18.4600   15.3380   46.4640 C.3   345  GLN345      0.0367
     69  CG       -17.3460   16.1570   45.8250 C.3   345  GLN345      0.0905
     70  CD       -16.9060   17.3060   46.7330 C.2   345  GLN345      0.2608
     71  OE1      -17.6760   17.8970   47.5010 O.2   345  GLN345     -0.2717
     72  NE2      -15.7180   17.6520   46.5980 N.am  345  GLN345     -0.0878
     73  N        -21.7000   20.0250   50.3450 N.3   351  THR351     -0.1218
     74  CA       -20.8350   20.8550   51.1740 C.3   351  THR351      0.1862
     75  C        -21.3390   22.2560   51.2010 C.2   351  THR351      0.2287
     76  O        -21.3300   22.8950   52.2440 O.2   351  THR351     -0.2866
     77  CB       -19.3930   20.7760   50.6710 C.3   351  THR351      0.1770
     78  OG1      -19.3770   21.1380   49.3080 O.3   351  THR351     -0.2211
     79  CG2      -18.9560   19.3400   50.6990 C.3   351  THR351      0.0375
     80  N        -18.0940   16.6260   41.2520 N.3   371  ARG371     -0.1245
     81  CA       -16.6790   16.3760   41.2390 C.3   371  ARG371      0.1563
     82  C        -16.4430   14.8620   41.4550 C.2   371  ARG371      0.2260
     83  O        -17.0010   14.2800   42.3490 O.2   371  ARG371     -0.2867
     84  CB       -15.9070   17.0940   42.3570 C.3   371  ARG371      0.0307
     85  CG       -14.4000   17.0460   42.1050 C.3   371  ARG371      0.0489
     86  CD       -13.5060   17.6240   43.2110 C.3   371  ARG371      0.2205
     87  NE       -13.3300   16.7370   44.3580 N.pl3 371  ARG371     -0.0865
     88  CZ       -12.7730   17.1110   45.5290 C.cat 371  ARG371      0.5346
     89  NH1      -12.3490   18.3660   45.6780 N.pl3 371  ARG371      0.1354
     90  NH2      -12.6620   16.2380   46.5710 N.pl3 371  ARG371      0.1354
@<TRIPOS>BOND
     1    81    80    1
     2    81    82    1
     3    81    84    1
     4    26    25    2
     5    82    83    2
     6    30    32   ar
     7    30    28   ar
     8    25    24    1
     9    27    28    1
    10    27    24    1
    11    85    84    1
    12    85    86    1
    13    32    33   ar
    14    28    29   ar
    15    24    23    1
    16    86    87    1
    17    67    66    2
    18    33    31   ar
    19    29    31   ar
    20    87    88    2
    21    66    65    1
    22    64    65    1
    23    62    61    1
    24    65    68    1
    25    88    89    1
    26    88    90    1
    27    60    61    1
    28    60    57    1
    29    63    61    1
    30    69    68    1
    31    69    70    1
    32    72    70   am
    33    57    58    1
    34    57    56    1
    35    58    59    2
    36    70    71    2
    37    53    52    2
    38     1     2    1
    39    38    39    1
    40    38    35    1
    41    36    37    2
    42    36    35    1
    43    56    52   am
    44    52    51    1
    45    39    40    1
    46     2     5    1
    47     2     3    1
    48    35    34    1
    49    78    77    1
    50     5     6    1
    51    40    41    1
    52     3     4    2
    53    51    50    1
    54    51    54    1
    55     7     6   ar
    56     7     9   ar
    57    50    45   am
    58    41    42    1
    59    44    45    1
    60    44    43    1
    61    44    47    1
    62    45    46    2
    63    73    74    1
    64     6     8   ar
    65    77    79    1
    66    77    74    1
    67    55    54    1
    68     9    11   ar
    69    74    75    1
    70    47    48    1
    71    47    49    1
    72    75    76    2
    73     8    10   ar
    74    11    10   ar
    75    11    12    1
    76    13    14    1
    77    15    14    1
    78    15    16    2
    79    14    17    1
    80    20    22   ar
    81    20    18   ar
    82    17    18    1
    83    22    21   ar
    84    18    19   ar
    85    19    21   ar
