@<TRIPOS>MOLECULE
tmp/5m42A00.pdb
 176 169 0 0 0
SMALL
GASTEIGER

@<TRIPOS>ATOM
      1  N         39.5600   29.9160    2.4450 N.3    22  ILE22      -0.1245
      2  CA        40.7630   30.5340    1.8330 C.3    22  ILE22       0.1561
      3  C         41.9160   29.8430    2.5540 C.2    22  ILE22       0.2260
      4  O         41.9840   29.9000    3.8000 O.2    22  ILE22      -0.2867
      5  CB        40.8580   32.0440    2.1700 C.3    22  ILE22       0.0252
      6  CG1       39.6910   32.8040    1.5300 C.3    22  ILE22       0.0019
      7  CG2       42.2160   32.6230    1.7360 C.3    22  ILE22       0.0019
      8  CD1       39.2880   33.9970    2.3460 C.3    22  ILE22       0.0001
      9  N         51.5290   36.0500    1.1000 N.3    62  LYS62      -0.1245
     10  CA        52.3180   37.2100    1.3500 C.3    62  LYS62       0.1561
     11  C         53.5180   37.2240    0.4150 C.2    62  LYS62       0.2260
     12  O         54.3210   36.2930    0.4390 O.2    62  LYS62      -0.2867
     13  CB        52.7770   37.2210    2.7960 C.3    62  LYS62       0.0271
     14  CG        51.7400   37.7210    3.7810 C.3    62  LYS62       0.0035
     15  CD        52.2060   37.3280    5.1690 C.3    62  LYS62       0.0206
     16  CE        51.7560   38.1920    6.3290 C.3    62  LYS62       0.1093
     17  NZ        50.4400   38.8450    6.0640 N.3    62  LYS62      -0.1314
     18  N         47.9940   39.0630   -0.5430 N.3    96  ASP96      -0.1225
     19  CA        47.7870   39.7340    0.7270 C.3    96  ASP96       0.1805
     20  C         48.6870   40.9980    0.7250 C.2    96  ASP96       0.2597
     21  O         49.8200   40.9940    0.1830 O.2    96  ASP96      -0.2718
     22  CB        48.1040   38.8200    1.9280 C.3    96  ASP96       0.1424
     23  CG        47.1320   37.5910    2.0720 C.2    96  ASP96       0.3668
     24  OD1       46.0880   37.4180    1.3470 O.co2  96  ASP96      -0.2456
     25  OD2       47.4130   36.7360    2.9450 O.co2  96  ASP96      -0.2456
     26  N         48.1480   42.0880    1.2530 N.am   97  MET97      -0.1979
     27  CA        48.8440   43.3490    1.2610 C.3    97  MET97       0.1605
     28  C         49.5440   43.4510    2.5640 C.2    97  MET97       0.2287
     29  O         48.9180   43.2980    3.6620 O.2    97  MET97      -0.2864
     30  CB        47.8730   44.5210    1.0950 C.3    97  MET97       0.0413
     31  CG        48.5800   45.8530    0.8220 C.3    97  MET97       0.0598
     32  SD        49.5410   45.8420   -0.6910 S.3    97  MET97      -0.1393
     33  CE        48.4200   46.4940   -1.9770 C.3    97  MET97       0.0692
     34  N         44.5280   42.9350   -2.2480 N.3   124  VAL124     -0.1245
     35  CA        43.9630   43.4460   -1.0040 C.3   124  VAL124      0.1561
     36  C         44.3180   44.9210   -0.9690 C.2   124  VAL124      0.2260
     37  O         45.4470   45.3320   -1.3750 O.2   124  VAL124     -0.2867
     38  CB        44.5630   42.7110    0.2300 C.3   124  VAL124      0.0252
     39  CG1       44.0200   43.2220    1.5710 C.3   124  VAL124      0.0019
     40  CG2       44.3420   41.2190    0.1120 C.3   124  VAL124      0.0019
     41  N         43.8680   48.2880    1.8410 N.3   126  GLN126     -0.1245
     42  CA        43.6690   48.5860    3.2620 C.3   126  GLN126      0.1566
     43  C         43.1140   49.9870    3.4490 C.2   126  GLN126      0.2260
     44  O         43.7430   50.9680    3.0180 O.2   126  GLN126     -0.2867
     45  CB        44.9910   48.4920    4.0260 C.3   126  GLN126      0.0367
     46  CG        45.6420   47.1060    3.8840 C.3   126  GLN126      0.0905
     47  CD        47.1530   47.2200    3.8730 C.2   126  GLN126      0.2608
     48  OE1       47.6860   48.1220    3.2510 O.2   126  GLN126     -0.2717
     49  NE2       47.8390   46.2920    4.5640 N.am  126  GLN126     -0.0878
     50  N         39.8840   42.4310   -2.2960 N.3   147  ARG147     -0.1245
     51  CA        39.4940   42.1890   -0.8850 C.3   147  ARG147      0.1563
     52  C         39.7740   43.4740   -0.1460 C.2   147  ARG147      0.2260
     53  O         40.8730   44.0430   -0.3090 O.2   147  ARG147     -0.2867
     54  CB        40.3080   41.0500   -0.2660 C.3   147  ARG147      0.0307
     55  CG        40.0440   40.8550    1.2270 C.3   147  ARG147      0.0489
     56  CD        41.1840   40.1160    1.8860 C.3   147  ARG147      0.2205
     57  NE        41.2220   38.7150    1.5170 N.pl3 147  ARG147     -0.0865
     58  CZ        42.2850   37.9190    1.6580 C.cat 147  ARG147      0.5346
     59  NH1       42.1950   36.6580    1.2840 N.pl3 147  ARG147      0.1354
     60  NH2       43.4340   38.3630    2.1670 N.pl3 147  ARG147      0.1354
     61  N         40.1940   45.3860    3.4300 N.3   149  VAL149     -0.1231
     62  CA        40.4300   45.2720    4.8550 C.3   149  VAL149      0.1692
     63  C         40.6340   46.6590    5.4640 C.2   149  VAL149      0.2592
     64  O         40.9080   47.6240    4.7780 O.2   149  VAL149     -0.2718
     65  CB        41.6820   44.3640    5.1980 C.3   149  VAL149      0.0266
     66  CG1       41.5130   42.9740    4.6200 C.3   149  VAL149      0.0020
     67  CG2       43.0070   44.9890    4.7320 C.3   149  VAL149      0.0020
     68  N         40.5870   46.7340    6.7930 N.am  150  LYS150     -0.1966
     69  CA        41.0000   47.9520    7.4690 C.3   150  LYS150      0.1728
     70  C         42.5270   48.1920    7.4640 C.2   150  LYS150      0.2617
     71  O         42.9820   49.3250    7.2200 O.2   150  LYS150     -0.2715
     72  CB        40.4510   47.9650    8.8760 C.3   150  LYS150      0.0311
     73  CG        38.9320   47.9980    8.8910 C.3   150  LYS150      0.0038
     74  CD        38.4260   48.1310   10.3160 C.3   150  LYS150      0.0206
     75  CE        36.8980   48.0940   10.3970 C.3   150  LYS150      0.1093
     76  NZ        36.4820   48.2990   11.8240 N.3   150  LYS150     -0.1314
     77  N         43.2960   47.1480    7.7410 N.am  151  GLY151     -0.1940
     78  CA        44.7400   47.2470    7.8780 C.3   151  GLY151      0.2014
     79  C         45.1860   46.6300    9.2040 C.2   151  GLY151      0.2639
     80  O         44.6140   46.8850   10.2170 O.2   151  GLY151     -0.2714
     81  N         46.2550   45.8530    9.1780 N.am  152  ALA152     -0.1963
     82  CA        46.7500   45.1070   10.3010 C.3   152  ALA152      0.1728
     83  C         48.0430   45.7200   10.8640 C.2   152  ALA152      0.2616
     84  O         48.4760   45.1910   11.8450 O.2   152  ALA152     -0.2715
     85  CB        47.0530   43.6450    9.8450 C.3   152  ALA152      0.0334
     86  N         48.6930   46.7490   10.2770 N.am  153  TYR153     -0.1974
     87  CA        50.0500   47.1270   10.7430 C.3   153  TYR153      0.1639
     88  C         50.0650   48.4130   11.5670 C.2   153  TYR153      0.2290
     89  O         49.1920   49.2680   11.4320 O.2   153  TYR153     -0.2864
     90  CB        51.0320   47.1940    9.5530 C.3   153  TYR153      0.0560
     91  CG        51.1940   45.8430    8.8070 C.ar  153  TYR153     -0.0198
     92  CD1       50.2410   45.4160    7.8850 C.ar  153  TYR153     -0.0009
     93  CD2       52.2880   44.9590    9.0990 C.ar  153  TYR153     -0.0009
     94  CE1       50.3300   44.1720    7.2420 C.ar  153  TYR153      0.0417
     95  CE2       52.3960   43.7160    8.4770 C.ar  153  TYR153      0.0417
     96  CZ        51.4390   43.3280    7.5320 C.ar  153  TYR153      0.1957
     97  OH        51.5280   42.1480    6.8620 O.3   153  TYR153     -0.2866
     98  N         40.4110   55.5450   14.4190 N.3   164  LYS164     -0.1245
     99  CA        39.5450   54.4520   14.0650 C.3   164  LYS164      0.1561
    100  C         38.2070   54.8380   13.4210 C.2   164  LYS164      0.2260
    101  O         37.7220   54.1080   12.5670 O.2   164  LYS164     -0.2867
    102  CB        39.2500   53.6060   15.3000 C.3   164  LYS164      0.0271
    103  CG        38.5310   52.3030   15.0020 C.3   164  LYS164      0.0035
    104  CD        39.0790   51.5860   13.7210 C.3   164  LYS164      0.0206
    105  CE        38.7850   50.0970   13.6330 C.3   164  LYS164      0.1093
    106  NZ        40.0360   49.2750   13.7450 N.3   164  LYS164     -0.1314
    107  N         36.4880   41.7350    3.9530 N.3   188  ALA188     -0.1231
    108  CA        37.2020   40.9550    5.0020 C.3   188  ALA188      0.1694
    109  C         37.2080   41.8030    6.2840 C.2   188  ALA188      0.2593
    110  O         38.1270   42.5870    6.5460 O.2   188  ALA188     -0.2718
    111  CB        38.6330   40.6500    4.5470 C.3   188  ALA188      0.0304
    112  N         36.1240   41.6790    7.0370 N.am  189  THR189     -0.1939
    113  CA        35.9430   42.4100    8.2790 C.3   189  THR189      0.2028
    114  C         35.0500   41.5730    9.2180 C.2   189  THR189      0.2642
    115  O         34.1770   40.8330    8.7390 O.2   189  THR189     -0.2714
    116  CB        35.2940   43.7890    8.0360 C.3   189  THR189      0.1808
    117  OG1       35.1540   44.4750    9.2930 O.3   189  THR189     -0.2208
    118  CG2       33.8840   43.6600    7.3620 C.3   189  THR189      0.0379
    119  N         35.2590   41.7610   10.5320 N.am  190  HIS190     -0.1959
    120  CA        34.3850   41.2300   11.5640 C.3   190  HIS190      0.1787
    121  C         33.3950   42.2190   12.1470 C.2   190  HIS190      0.2620
    122  O         32.5700   41.8260   12.9760 O.2   190  HIS190     -0.2715
    123  CB        35.2290   40.6780   12.6970 C.3   190  HIS190      0.0785
    124  CG        36.1080   39.5640   12.2770 C.ar  190  HIS190      0.0821
    125  ND1       37.4070   39.4380   12.6970 N.ar  190  HIS190     -0.2267
    126  CD2       35.8980   38.5620   11.3960 C.ar  190  HIS190      0.1154
    127  CE1       37.9260   38.3420   12.1690 C.ar  190  HIS190      0.1986
    128  NE2       37.0400   37.8130   11.3510 N.ar  190  HIS190     -0.2212
    129  N         33.4630   43.4670   11.6840 N.am  191  ASP191     -0.1971
    130  CA        32.7660   44.5880   12.3080 C.3   191  ASP191      0.1709
    131  C         31.2620   44.5600   11.9340 C.2   191  ASP191      0.2293
    132  O         30.9240   44.7490   10.7710 O.2   191  ASP191     -0.2864
    133  CB        33.4540   45.8490   11.8540 C.3   191  ASP191      0.1436
    134  CG        32.9060   47.0460   12.4330 C.2   191  ASP191      0.3671
    135  OD1       31.7110   47.0110   12.7860 O.co2 191  ASP191     -0.2456
    136  OD2       33.6650   48.0510   12.4270 O.co2 191  ASP191     -0.2456
    137  N         34.2230   37.9170    4.3790 N.3   215  GLN215     -0.1231
    138  CA        35.3590   37.0710    4.7950 C.3   215  GLN215      0.1698
    139  C         35.6690   37.2770    6.2660 C.2   215  GLN215      0.2592
    140  O         35.7100   38.3900    6.7480 O.2   215  GLN215     -0.2718
    141  CB        36.5770   37.3380    3.9290 C.3   215  GLN215      0.0381
    142  CG        36.4280   37.0110    2.4650 C.3   215  GLN215      0.0905
    143  CD        37.7180   37.1690    1.6870 C.2   215  GLN215      0.2608
    144  OE1       38.6980   37.7720    2.1690 O.2   215  GLN215     -0.2717
    145  NE2       37.7230   36.6510    0.4510 N.am  215  GLN215     -0.0878
    146  N         35.8070   36.1720    6.9770 N.am  216  PHE216     -0.1962
    147  CA        36.0820   36.1360    8.3960 C.3   216  PHE216      0.1771
    148  C         37.3180   35.2190    8.6360 C.2   216  PHE216      0.2619
    149  O         37.5820   34.3070    7.8720 O.2   216  PHE216     -0.2715
    150  CB        34.8680   35.5560    9.1890 C.3   216  PHE216      0.0574
    151  CG        33.5550   36.3090    9.0010 C.ar  216  PHE216     -0.0200
    152  CD1       32.8190   36.2290    7.8060 C.ar  216  PHE216     -0.0042
    153  CD2       33.0350   37.0630   10.0270 C.ar  216  PHE216     -0.0042
    154  CE1       31.6020   36.9010    7.6680 C.ar  216  PHE216     -0.0003
    155  CE2       31.8200   37.7560    9.8710 C.ar  216  PHE216     -0.0003
    156  CZ        31.1130   37.6690    8.6880 C.ar  216  PHE216     -0.0000
    157  N         38.0950   35.4640    9.6710 N.am  217  LEU217     -0.1977
    158  CA        39.0470   34.4560   10.1380 C.3   217  LEU217      0.1596
    159  C         38.2930   33.2200   10.6040 C.2   217  LEU217      0.2287
    160  O         37.1960   33.3370   11.1650 O.2   217  LEU217     -0.2864
    161  CB        39.8750   34.9900   11.2840 C.3   217  LEU217      0.0297
    162  CG        40.6860   36.2440   11.0490 C.3   217  LEU217      0.0022
    163  CD1       41.4440   36.5310   12.3310 C.3   217  LEU217      0.0001
    164  CD2       41.6330   36.1540    9.8700 C.3   217  LEU217      0.0001
    165  N         39.0890   32.2490    6.4840 N.3   238  TYR238     -0.1241
    166  CA        40.5040   32.2770    6.1750 C.3   238  TYR238      0.1605
    167  C         41.1700   31.2780    7.1080 C.2   238  TYR238      0.2264
    168  O         41.0910   31.4440    8.2960 O.2   238  TYR238     -0.2867
    169  CB        41.0160   33.6660    6.4610 C.3   238  TYR238      0.0534
    170  CG        42.4230   33.9690    6.0590 C.ar  238  TYR238     -0.0201
    171  CD1       42.6950   34.5740    4.8250 C.ar  238  TYR238     -0.0009
    172  CD2       43.4720   33.8090    6.9590 C.ar  238  TYR238     -0.0009
    173  CE1       43.9930   34.9390    4.4680 C.ar  238  TYR238      0.0417
    174  CE2       44.7890   34.1590    6.6140 C.ar  238  TYR238      0.0417
    175  CZ        45.0480   34.7050    5.3750 C.ar  238  TYR238      0.1957
    176  OH        46.3280   35.0680    5.0380 O.3   238  TYR238     -0.2866
@<TRIPOS>BOND
     1    50    51    1
     2    34    35    1
     3    33    32    1
     4    37    36    2
     5    35    36    1
     6    35    38    1
     7    51    54    1
     8    51    52    1
     9    32    31    1
    10    18    19    1
    11    53    52    2
    12    54    55    1
    13    40    38    1
    14    21    20    2
    15    38    39    1
    16    11    12    2
    17    11    10    1
    18   145   143   am
    19    20    19    1
    20    20    26   am
    21    19    22    1
    22    31    30    1
    23    30    27    1
    24     9    10    1
    25    55    56    1
    26    26    27    1
    27    27    28    1
    28    59    58    1
    29    24    23   ar
    30    10    13    1
    31    57    58    2
    32    57    56    1
    33     6     5    1
    34     6     8    1
    35    58    60    1
    36   143   144    2
    37   143   142    1
    38     7     5    1
    39     2     5    1
    40     2     1    1
    41     2     3    1
    42    41    42    1
    43    22    23    1
    44    23    25   ar
    45   142   141    1
    46     3     4    2
    47    28    29    2
    48    13    14    1
    49    44    43    2
    50    48    47    2
    51    42    43    1
    52    42    45    1
    53    61    62    1
    54    14    15    1
    55    47    46    1
    56    47    49   am
    57    46    45    1
    58   141   138    1
    59   107   108    1
    60   137   138    1
    61   173   171   ar
    62   173   175   ar
    63   111   108    1
    64    66    65    1
    65    67    65    1
    66    64    63    2
    67   138   139    1
    68   171   170   ar
    69    62    65    1
    70    62    63    1
    71   108   109    1
    72   176   175    1
    73    15    16    1
    74   175   174   ar
    75    63    68   am
    76   170   169    1
    77   170   172   ar
    78    17    16    1
    79   166   169    1
    80   166   165    1
    81   166   167    1
    82   139   140    2
    83   139   146   am
    84   109   110    2
    85   109   112   am
    86   174   172   ar
    87    68    69    1
    88    97    96    1
    89   146   147    1
    90   112   113    1
    91   167   168    2
    92    71    70    2
    93    94    96   ar
    94    94    92   ar
    95   118   116    1
    96    70    69    1
    97    70    77   am
    98    69    72    1
    99    96    95   ar
   100   154   152   ar
   101   154   156   ar
   102    77    78    1
   103   152   151   ar
   104   149   148    2
   105    78    79    1
   106    92    91   ar
   107   116   113    1
   108   116   117    1
   109   113   114    1
   110   147   148    1
   111   147   150    1
   112    95    93   ar
   113   148   157   am
   114   156   155   ar
   115   115   114    2
   116    91    93   ar
   117    91    90    1
   118    72    73    1
   119    73    74    1
   120   151   150    1
   121   151   153   ar
   122    81    79   am
   123    81    82    1
   124    79    80    2
   125   114   119   am
   126    90    87    1
   127   157   158    1
   128    85    82    1
   129   164   162    1
   130   155   153   ar
   131   158   159    1
   132   158   161    1
   133    86    87    1
   134    86    83   am
   135    82    83    1
   136    74    75    1
   137    75    76    1
   138   119   120    1
   139   159   160    2
   140    87    88    1
   141   132   131    2
   142    83    84    2
   143   162   161    1
   144   162   163    1
   145   128   126   ar
   146   128   127   ar
   147   126   124   ar
   148    89    88    2
   149   120   121    1
   150   120   123    1
   151   129   121   am
   152   129   130    1
   153   133   130    1
   154   133   134    1
   155   131   130    1
   156   121   122    2
   157   127   125   ar
   158   124   123    1
   159   124   125   ar
   160   136   134   ar
   161   134   135   ar
   162   101   100    2
   163   100    99    1
   164   105   104    1
   165   105   106    1
   166   104   103    1
   167    99    98    1
   168    99   102    1
   169   103   102    1
