@<TRIPOS>MOLECULE
tmp/5m44A00.pdb
 177 167 0 0 0
SMALL
GASTEIGER

@<TRIPOS>ATOM
      1  N        -14.2760   22.8980  -12.9250 N.3    41  ARG41      -0.1245
      2  CA       -13.3640   23.0010  -11.7950 C.3    41  ARG41       0.1563
      3  C        -11.9310   23.0570  -12.3050 C.2    41  ARG41       0.2260
      4  O        -11.6450   22.7650  -13.4690 O.2    41  ARG41      -0.2867
      5  CB       -13.5420   21.8320  -10.8210 C.3    41  ARG41       0.0307
      6  CG       -13.1260   20.4850  -11.3850 C.3    41  ARG41       0.0489
      7  CD       -13.6670   19.3490  -10.5370 C.3    41  ARG41       0.2205
      8  NE       -13.3310   18.0430  -11.0940 N.pl3  41  ARG41      -0.0865
      9  CZ       -12.3360   17.2790  -10.6540 C.cat  41  ARG41       0.5346
     10  NH1      -12.1030   16.1030  -11.2200 N.pl3  41  ARG41       0.1354
     11  NH2      -11.5770   17.6890   -9.6450 N.pl3  41  ARG41       0.1354
     12  N         -8.1630   21.6790  -12.3210 N.3    43  LEU43      -0.1231
     13  CA        -7.4590   20.4150  -12.1170 C.3    43  LEU43       0.1693
     14  C         -6.0290   20.6470  -11.6400 C.2    43  LEU43       0.2592
     15  O         -5.6590   20.2410  -10.5340 O.2    43  LEU43      -0.2718
     16  CB        -7.4650   19.5970  -13.4120 C.3    43  LEU43       0.0284
     17  CG        -8.8310   19.2940  -14.0220 C.3    43  LEU43       0.0019
     18  CD1       -8.6570   18.6590  -15.3870 C.3    43  LEU43       0.0001
     19  CD2       -9.6410   18.3930  -13.1040 C.3    43  LEU43       0.0001
     20  N         -5.2140   21.2880  -12.4720 N.am   44  GLY44      -0.1957
     21  CA        -3.8600   21.6370  -12.0980 C.3    44  GLY44       0.1869
     22  C         -3.5520   23.0800  -12.4310 C.2    44  GLY44       0.2309
     23  O         -4.4630   23.8560  -12.7390 O.2    44  GLY44      -0.2863
     24  N         -5.0480   24.5180  -16.2610 N.3    51  VAL51      -0.1245
     25  CA        -5.8710   23.4290  -16.7760 C.3    51  VAL51       0.1561
     26  C         -7.1840   23.3950  -16.0080 C.2    51  VAL51       0.2260
     27  O         -7.2100   23.5980  -14.7870 O.2    51  VAL51      -0.2867
     28  CB        -5.1350   22.0800  -16.6780 C.3    51  VAL51       0.0252
     29  CG1       -5.9150   20.9950  -17.3990 C.3    51  VAL51       0.0019
     30  CG2       -3.7310   22.2020  -17.2460 C.3    51  VAL51       0.0019
     31  N        -11.2560   21.4230  -15.7200 N.3    53  GLU53      -0.1245
     32  CA       -12.3090   20.5010  -16.1160 C.3    53  GLU53       0.1567
     33  C        -13.4990   21.3250  -16.5910 C.2    53  GLU53       0.2260
     34  O        -13.8780   22.3040  -15.9410 O.2    53  GLU53      -0.2867
     35  CB       -12.7100   19.5940  -14.9540 C.3    53  GLU53       0.0388
     36  CG       -13.5580   18.4010  -15.3580 C.3    53  GLU53       0.1160
     37  CD       -12.7450   17.3090  -16.0230 C.2    53  GLU53       0.3649
     38  OE1      -11.4990   17.3620  -15.9520 O.co2  53  GLU53      -0.2457
     39  OE2      -13.3480   16.3950  -16.6200 O.co2  53  GLU53      -0.2457
     40  N        -11.5180   18.7410  -21.3220 N.3    64  VAL64      -0.1245
     41  CA       -10.4280   19.3190  -20.5440 C.3    64  VAL64       0.1561
     42  C         -9.9200   20.5480  -21.2830 C.2    64  VAL64       0.2260
     43  O         -9.5760   20.4650  -22.4670 O.2    64  VAL64      -0.2867
     44  CB        -9.2850   18.3090  -20.3180 C.3    64  VAL64       0.0252
     45  CG1       -8.1400   18.9610  -19.5560 C.3    64  VAL64       0.0019
     46  CG2       -9.7950   17.0810  -19.5740 C.3    64  VAL64       0.0019
     47  N         -7.2870   23.8740  -21.4890 N.3    66  LYS66      -0.1245
     48  CA        -5.9460   24.3140  -21.1060 C.3    66  LYS66       0.1561
     49  C         -5.7420   25.7430  -21.6050 C.2    66  LYS66       0.2260
     50  O         -5.4760   25.9640  -22.7910 O.2    66  LYS66      -0.2867
     51  CB        -4.8860   23.3690  -21.6660 C.3    66  LYS66       0.0271
     52  CG        -3.4760   23.6510  -21.1820 C.3    66  LYS66       0.0035
     53  CD        -2.5160   22.5590  -21.6410 C.3    66  LYS66       0.0206
     54  CE        -1.1400   22.7320  -21.0190 C.3    66  LYS66       0.1093
     55  NZ        -0.2850   21.5260  -21.1890 N.3    66  LYS66      -0.1314
     56  N         -2.9900   12.6490  -26.3790 N.3    93  ILE93      -0.1231
     57  CA        -4.2610   13.3300  -26.1620 C.3    93  ILE93       0.1692
     58  C         -4.8710   13.7420  -27.4980 C.2    93  ILE93       0.2592
     59  O         -4.1900   13.8520  -28.5250 O.2    93  ILE93      -0.2718
     60  CB        -4.1060   14.5490  -25.2390 C.3    93  ILE93       0.0266
     61  CG1       -2.8900   15.3800  -25.6490 C.3    93  ILE93       0.0019
     62  CG2       -4.0310   14.1130  -23.7820 C.3    93  ILE93       0.0020
     63  CD1       -2.6180   16.5470  -24.7290 C.3    93  ILE93       0.0001
     64  N         -6.1800   13.9660  -27.4750 N.am   94  THR94      -0.1953
     65  CA        -6.9570   14.2660  -28.6710 C.3    94  THR94       0.1897
     66  C         -7.4850   15.6900  -28.5610 C.2    94  THR94       0.2313
     67  O         -8.3210   15.9850  -27.7010 O.2    94  THR94      -0.2863
     68  CB        -8.1000   13.2670  -28.8380 C.3    94  THR94       0.1794
     69  OG1       -7.5740   11.9320  -28.8510 O.3    94  THR94      -0.2208
     70  CG2       -8.8490   13.5320  -30.1370 C.3    94  THR94       0.0378
     71  N         -9.2870   19.5830  -24.9540 N.3   111  PHE111     -0.1227
     72  CA        -8.9210   18.1930  -25.1750 C.3   111  PHE111      0.1736
     73  C        -10.0740   17.2780  -24.7890 C.2   111  PHE111      0.2595
     74  O        -10.8920   17.6100  -23.9260 O.2   111  PHE111     -0.2718
     75  CB        -7.6720   17.8120  -24.3750 C.3   111  PHE111      0.0547
     76  CG        -6.4480   18.5930  -24.7540 C.ar  111  PHE111     -0.0202
     77  CD1       -5.7290   18.2700  -25.8930 C.ar  111  PHE111     -0.0042
     78  CD2       -6.0100   19.6470  -23.9670 C.ar  111  PHE111     -0.0042
     79  CE1       -4.6010   18.9870  -26.2450 C.ar  111  PHE111     -0.0003
     80  CE2       -4.8800   20.3660  -24.3100 C.ar  111  PHE111     -0.0003
     81  CZ        -4.1730   20.0360  -25.4490 C.ar  111  PHE111     -0.0000
     82  N        -10.1310   16.1180  -25.4370 N.am  112  GLU112     -0.1965
     83  CA       -11.1660   15.1450  -25.1290 C.3   112  GLU112      0.1733
     84  C        -10.9210   14.5090  -23.7680 C.2   112  GLU112      0.2616
     85  O         -9.7800   14.3130  -23.3390 O.2   112  GLU112     -0.2715
     86  CB       -11.2220   14.0530  -26.1950 C.3   112  GLU112      0.0429
     87  CG       -11.8620   14.4740  -27.5000 C.3   112  GLU112      0.1163
     88  CD       -12.1810   13.2880  -28.3860 C.2   112  GLU112      0.3649
     89  OE1      -12.1510   12.1470  -27.8760 O.co2 112  GLU112     -0.2457
     90  OE2      -12.4600   13.4930  -29.5870 O.co2 112  GLU112     -0.2457
     91  N        -12.0140   14.1820  -23.0900 N.am  113  HIS113     -0.1959
     92  CA       -11.9800   13.4620  -21.8280 C.3   113  HIS113      0.1787
     93  C        -12.5180   12.0560  -22.0520 C.2   113  HIS113      0.2620
     94  O        -13.5960   11.8860  -22.6330 O.2   113  HIS113     -0.2715
     95  CB       -12.8000   14.1900  -20.7620 C.3   113  HIS113      0.0785
     96  CG       -12.9370   13.4300  -19.4810 C.ar  113  HIS113      0.0821
     97  ND1      -11.9970   13.4930  -18.4740 N.ar  113  HIS113     -0.2267
     98  CD2      -13.9010   12.5870  -19.0430 C.ar  113  HIS113      0.1154
     99  CE1      -12.3780   12.7230  -17.4710 C.ar  113  HIS113      0.1986
    100  NE2      -13.5300   12.1610  -17.7910 N.ar  113  HIS113     -0.2212
    101  N        -11.7630   11.0550  -21.6100 N.am  114  VAL114     -0.1977
    102  CA       -12.1900    9.6660  -21.7330 C.3   114  VAL114      0.1596
    103  C        -13.1100    9.3320  -20.5670 C.2   114  VAL114      0.2287
    104  O        -12.8090    9.6530  -19.4110 O.2   114  VAL114     -0.2864
    105  CB       -10.9770    8.7230  -21.7790 C.3   114  VAL114      0.0276
    106  CG1      -11.4130    7.3150  -22.1520 C.3   114  VAL114      0.0022
    107  CG2       -9.9380    9.2450  -22.7570 C.3   114  VAL114      0.0022
    108  N        -12.2900    7.6180  -16.5440 N.3   117  THR117     -0.1203
    109  CA       -10.8390    7.4510  -16.4890 C.3   117  THR117      0.1994
    110  C        -10.2670    8.5840  -15.6500 C.2   117  THR117      0.2618
    111  O        -10.2960    9.7460  -16.0700 O.2   117  THR117     -0.2717
    112  CB       -10.2140    7.4470  -17.8860 C.3   117  THR117      0.1784
    113  OG1      -10.5660    8.6520  -18.5760 O.3   117  THR117     -0.2211
    114  CG2      -10.6860    6.2440  -18.6910 C.3   117  THR117      0.0376
    115  N         -9.7480    8.2510  -14.4710 N.am  118  ASP118     -0.1959
    116  CA        -9.1400    9.2360  -13.5780 C.3   118  ASP118      0.1840
    117  C         -7.6390    9.2570  -13.8440 C.2   118  ASP118      0.2622
    118  O         -6.8980    8.3960  -13.3610 O.2   118  ASP118     -0.2715
    119  CB        -9.4480    8.9060  -12.1220 C.3   118  ASP118      0.1450
    120  CG        -8.8360    9.9020  -11.1560 C.2   118  ASP118      0.3671
    121  OD1       -8.7180   11.0920  -11.5200 O.co2 118  ASP118     -0.2456
    122  OD2       -8.4730    9.4940  -10.0320 O.co2 118  ASP118     -0.2456
    123  N         -7.1860   10.2430  -14.6160 N.am  119  PHE119     -0.1974
    124  CA        -5.7770   10.3690  -14.9620 C.3   119  PHE119      0.1639
    125  C         -5.0310   11.1420  -13.8810 C.2   119  PHE119      0.2290
    126  O         -5.4390   12.2440  -13.5000 O.2   119  PHE119     -0.2864
    127  CB        -5.6060   11.0610  -16.3150 C.3   119  PHE119      0.0560
    128  CG        -5.7720   10.1420  -17.4920 C.ar  119  PHE119     -0.0200
    129  CD1       -4.8020    9.1990  -17.7930 C.ar  119  PHE119     -0.0042
    130  CD2       -6.8900   10.2280  -18.3060 C.ar  119  PHE119     -0.0042
    131  CE1       -4.9480    8.3520  -18.8760 C.ar  119  PHE119     -0.0003
    132  CE2       -7.0430    9.3850  -19.3920 C.ar  119  PHE119     -0.0003
    133  CZ        -6.0700    8.4450  -19.6770 C.ar  119  PHE119     -0.0000
    134  N         -0.8290   12.0950  -12.3380 N.3   121  GLN121     -0.1245
    135  CA         0.5400   12.3000  -12.7850 C.3   121  GLN121      0.1566
    136  C          1.3950   11.0800  -12.4680 C.2   121  GLN121      0.2260
    137  O          1.2020   10.4040  -11.4540 O.2   121  GLN121     -0.2867
    138  CB         1.1390   13.5430  -12.1240 C.3   121  GLN121      0.0367
    139  CG         0.3270   14.8200  -12.3160 C.3   121  GLN121      0.0905
    140  CD        -0.8900   14.8930  -11.4030 C.2   121  GLN121      0.2608
    141  OE1       -1.0500   14.0750  -10.4970 O.2   121  GLN121     -0.2717
    142  NE2       -1.7550   15.8710  -11.6450 N.am  121  GLN121     -0.0878
    143  N          0.7800   11.2230  -17.8780 N.3   161  MET161     -0.1245
    144  CA        -0.3270   11.0260  -16.9540 C.3   161  MET161      0.1570
    145  C         -0.8240    9.5910  -17.0400 C.2   161  MET161      0.2261
    146  O         -0.8770    9.0030  -18.1250 O.2   161  MET161     -0.2867
    147  CB        -1.4610   12.0070  -17.2440 C.3   161  MET161      0.0387
    148  CG        -0.9990   13.4490  -17.2430 C.3   161  MET161      0.0595
    149  SD        -2.2180   14.5820  -16.5670 S.3   161  MET161     -0.1393
    150  CE        -2.2830   14.0350  -14.8660 C.3   161  MET161      0.0692
    151  N         -1.1740    8.6320  -21.1420 N.3   170  ARG170     -0.1245
    152  CA        -1.2060    9.7220  -22.1070 C.3   170  ARG170      0.1563
    153  C          0.0660   10.5470  -21.9890 C.2   170  ARG170      0.2260
    154  O          0.5110   10.8590  -20.8810 O.2   170  ARG170     -0.2867
    155  CB        -2.4250   10.6360  -21.9010 C.3   170  ARG170      0.0307
    156  CG        -3.7610    9.9910  -22.2200 C.3   170  ARG170      0.0489
    157  CD        -3.8180    9.4990  -23.6570 C.3   170  ARG170      0.2205
    158  NE        -4.6490    8.3040  -23.7600 N.pl3 170  ARG170     -0.0865
    159  CZ        -5.9290    8.3140  -24.1090 C.cat 170  ARG170      0.5346
    160  NH1       -6.5290    9.4590  -24.4060 N.pl3 170  ARG170      0.1354
    161  NH2       -6.6080    7.1760  -24.1660 N.pl3 170  ARG170      0.1354
    162  N          1.4430   14.1610  -22.6150 N.3   172  ILE172     -0.1231
    163  CA         0.7720   15.4540  -22.7000 C.3   172  ILE172      0.1692
    164  C          1.7760   16.5810  -22.8820 C.2   172  ILE172      0.2592
    165  O          2.9790   16.3410  -23.0330 O.2   172  ILE172     -0.2718
    166  CB        -0.0910   15.7090  -21.4510 C.3   172  ILE172      0.0266
    167  CG1        0.7980   15.8940  -20.2210 C.3   172  ILE172      0.0019
    168  CG2       -1.0670   14.5620  -21.2350 C.3   172  ILE172      0.0020
    169  CD1        0.0690   16.4600  -19.0300 C.3   172  ILE172      0.0001
    170  N          1.2740   17.8190  -22.8620 N.am  173  ASP173     -0.1974
    171  CA         2.0820   19.0310  -22.9390 C.3   173  ASP173      0.1709
    172  C          2.9890   19.0210  -24.1630 C.2   173  ASP173      0.2293
    173  O          4.1850   18.7340  -24.0570 O.2   173  ASP173     -0.2864
    174  CB         2.8990   19.2060  -21.6590 C.3   173  ASP173      0.1436
    175  CG         3.5970   20.5480  -21.5930 C.2   173  ASP173      0.3671
    176  OD1        3.2070   21.4630  -22.3550 O.co2 173  ASP173     -0.2456
    177  OD2        4.5330   20.6890  -20.7720 O.co2 173  ASP173     -0.2456
@<TRIPOS>BOND
     1    70    68    1
     2    90    88   ar
     3    69    68    1
     4    68    65    1
     5    65    66    1
     6    65    64    1
     7    66    67    2
     8    59    58    2
     9    88    89   ar
    10    88    87    1
    11    87    86    1
    12    58    64   am
    13    58    57    1
    14    56    57    1
    15    79    77   ar
    16    79    81   ar
    17    86    83    1
    18    57    60    1
    19    77    76   ar
    20    61    60    1
    21    61    63    1
    22    81    80   ar
    23    82    83    1
    24    82    73   am
    25    60    62    1
    26    72    71    1
    27    72    73    1
    28    72    75    1
    29    83    84    1
    30    73    74    2
    31    76    75    1
    32    76    78   ar
    33   160   159    1
    34    80    78   ar
    35   161   159    1
    36   172   173    2
    37   172   171    1
    38   159   158    2
    39    84    85    2
    40    84    91   am
    41   158   157    1
    42   157   156    1
    43    91    92    1
    44   165   164    2
    45   171   170    1
    46   171   174    1
    47   164   170   am
    48   164   163    1
    49    50    49    2
    50   107   105    1
    51   163   162    1
    52   163   166    1
    53    94    93    2
    54    43    42    2
    55   176   175   ar
    56   156   155    1
    57   106   105    1
    58   152   153    1
    59   152   155    1
    60   152   151    1
    61    93    92    1
    62    93   101   am
    63   153   154    2
    64    92    95    1
    65   105   102    1
    66   102   101    1
    67   102   103    1
    68    51    52    1
    69    51    48    1
    70   174   175    1
    71    53    52    1
    72    53    54    1
    73    49    48    1
    74   175   177   ar
    75    47    48    1
    76   166   168    1
    77   166   167    1
    78    40    41    1
    79    42    41    1
    80    55    54    1
    81    95    96    1
    82   103   104    2
    83    41    44    1
    84    44    46    1
    85    44    45    1
    86   167   169    1
    87   133   132   ar
    88   133   131   ar
    89    96    98   ar
    90    96    97   ar
    91   132   130   ar
    92    98   100   ar
    93   131   129   ar
    94   114   112    1
    95   113   112    1
    96    97    99   ar
    97   130   128   ar
    98   146   145    2
    99   112   109    1
   100   143   144    1
   101   129   128   ar
   102   100    99   ar
   103   128   127    1
   104    29    28    1
   105    30    28    1
   106   147   148    1
   107   147   144    1
   108   148   149    1
   109   145   144    1
   110    25    28    1
   111    25    24    1
   112    25    26    1
   113    39    37   ar
   114    33    32    1
   115    33    34    2
   116   149   150    1
   117   108   109    1
   118   109   110    1
   119   127   124    1
   120    32    31    1
   121    32    35    1
   122   111   110    2
   123    37    38   ar
   124    37    36    1
   125    26    27    2
   126   110   115   am
   127    18    17    1
   128    36    35    1
   129   124   123    1
   130   124   125    1
   131   123   117   am
   132   115   116    1
   133    17    16    1
   134    17    19    1
   135   125   126    2
   136   117   116    1
   137   117   118    2
   138   116   119    1
   139     4     3    2
   140    16    13    1
   141     1     2    1
   142   135   136    1
   143   135   134    1
   144   135   138    1
   145    23    22    2
   146    20    21    1
   147    20    14   am
   148   136   137    2
   149    22    21    1
   150    12    13    1
   151   139   138    1
   152   139   140    1
   153     3     2    1
   154   119   120    1
   155    13    14    1
   156     2     5    1
   157   142   140   am
   158    14    15    2
   159   121   120   ar
   160   140   141    2
   161     6     5    1
   162     6     7    1
   163    10     9    1
   164   120   122   ar
   165     8     9    2
   166     8     7    1
   167     9    11    1
