@<TRIPOS>MOLECULE
tmp/5m45J00.pdb
 132 121 0 0 0
SMALL
GASTEIGER

@<TRIPOS>ATOM
      1  N        -40.0960 -142.2160   94.8000 N.3    14  ARG14      -0.1245
      2  CA       -39.9260 -142.7900   96.1490 C.3    14  ARG14       0.1563
      3  C        -41.2620 -143.2250   96.7720 C.2    14  ARG14       0.2260
      4  O        -41.3430 -144.3240   97.2990 O.2    14  ARG14      -0.2867
      5  CB       -39.1760 -141.8350   97.0860 C.3    14  ARG14       0.0307
      6  CG       -39.0120 -142.4180   98.4770 C.3    14  ARG14       0.0489
      7  CD       -38.0230 -141.7080   99.3620 C.3    14  ARG14       0.2205
      8  NE       -37.9210 -142.4450  100.6460 N.pl3  14  ARG14      -0.0865
      9  CZ       -38.6300 -142.1940  101.7490 C.cat  14  ARG14       0.5346
     10  NH1      -39.5150 -141.2030  101.7910 N.pl3  14  ARG14       0.1354
     11  NH2      -38.4530 -142.9370  102.8230 N.pl3  14  ARG14       0.1354
     12  N        -42.0980 -146.9650   98.2110 N.3    18  MET18      -0.1245
     13  CA       -42.3960 -147.1900   99.6370 C.3    18  MET18       0.1570
     14  C        -43.7810 -147.8270   99.8430 C.2    18  MET18       0.2261
     15  O        -43.9560 -148.6920  100.7130 O.2    18  MET18      -0.2867
     16  CB       -42.2640 -145.8810  100.4540 C.3    18  MET18       0.0387
     17  CG       -40.8440 -145.2710  100.4870 C.3    18  MET18       0.0595
     18  SD       -39.5540 -146.3440  101.1710 S.3    18  MET18      -0.1393
     19  CE       -38.9560 -147.1050   99.6510 C.3    18  MET18       0.0692
     20  N        -43.4480 -151.5130   98.9820 N.3    21  THR21      -0.1203
     21  CA       -42.7290 -152.1440  100.1060 C.3    21  THR21       0.1994
     22  C        -43.6720 -152.4560  101.2620 C.2    21  THR21       0.2617
     23  O        -43.6930 -153.5780  101.7620 O.2    21  THR21      -0.2717
     24  CB       -41.5290 -151.2850  100.5780 C.3    21  THR21       0.1784
     25  OG1      -40.6780 -150.9890   99.4560 O.3    21  THR21      -0.2211
     26  CG2      -40.7040 -152.0000  101.6530 C.3    21  THR21       0.0376
     27  N        -44.4880 -151.4850  101.6380 N.am   22  LYS22      -0.1979
     28  CA       -45.4770 -151.6730  102.6890 C.3    22  LYS22       0.1596
     29  C        -46.5640 -152.7080  102.3440 C.2    22  LYS22       0.2287
     30  O        -46.9350 -153.5090  103.1910 O.2    22  LYS22      -0.2864
     31  CB       -46.1370 -150.3360  103.0270 C.3    22  LYS22       0.0298
     32  CG       -47.1070 -150.4360  104.1920 C.3    22  LYS22       0.0038
     33  CD       -47.6370 -149.1000  104.6590 C.3    22  LYS22       0.0206
     34  CE       -48.5100 -149.3540  105.8750 C.3    22  LYS22       0.1093
     35  NZ       -49.2660 -148.1220  106.1810 N.3    22  LYS22      -0.1314
     36  N        -31.8900 -145.0680   98.3020 N.3    86  ASP86      -0.1239
     37  CA       -31.5060 -146.3210   98.9350 C.3    86  ASP86       0.1674
     38  C        -30.1460 -146.8300   98.4180 C.2    86  ASP86       0.2266
     39  O        -29.9090 -146.8390   97.2110 O.2    86  ASP86      -0.2867
     40  CB       -32.5980 -147.3730   98.6920 C.3    86  ASP86       0.1410
     41  CG       -33.9040 -147.0120   99.3570 C.2    86  ASP86       0.3668
     42  OD1      -33.8970 -146.8640  100.5950 O.co2  86  ASP86      -0.2456
     43  OD2      -34.9380 -146.9020   98.6690 O.co2  86  ASP86      -0.2456
     44  N        -26.4120 -145.0240  105.8440 N.3    99  GLY99      -0.1225
     45  CA       -27.7280 -144.5700  106.2960 C.3    99  GLY99       0.1811
     46  C        -27.8930 -143.0620  106.3950 C.2    99  GLY99       0.2280
     47  O        -28.9040 -142.5320  105.9340 O.2    99  GLY99      -0.2866
     48  N        -28.0270 -141.3750  102.8010 N.3   102  GLY102     -0.1210
     49  CA       -29.3200 -141.7250  102.1840 C.3   102  GLY102      0.1956
     50  C        -30.4880 -140.9500  102.7750 C.2   102  GLY102      0.2611
     51  O        -31.3980 -140.5020  102.0390 O.2   102  GLY102     -0.2717
     52  N        -30.4850 -140.7820  104.1060 N.am  103  ALA103     -0.1979
     53  CA       -31.5140 -140.0010  104.7600 C.3   103  ALA103      0.1597
     54  C        -31.4460 -138.5090  104.3570 C.2   103  ALA103      0.2287
     55  O        -32.4760 -137.8510  104.2850 O.2   103  ALA103     -0.2864
     56  CB       -31.4410 -140.1740  106.2770 C.3   103  ALA103      0.0319
     57  N        -33.0810 -138.3960  101.0050 N.3   106  LYS106     -0.1245
     58  CA       -34.5370 -138.4990  101.1870 C.3   106  LYS106      0.1561
     59  C        -35.1680 -137.1750  101.7100 C.2   106  LYS106      0.2260
     60  O        -36.2940 -136.8430  101.3410 O.2   106  LYS106     -0.2867
     61  CB       -34.8840 -139.7040  102.0910 C.3   106  LYS106      0.0271
     62  CG       -34.5540 -141.0460  101.4190 C.3   106  LYS106      0.0035
     63  CD       -34.4900 -142.2040  102.3730 C.3   106  LYS106      0.0206
     64  CE       -33.8280 -143.4070  101.7090 C.3   106  LYS106      0.1093
     65  NZ       -33.7510 -144.6060  102.5970 N.3   106  LYS106     -0.1314
     66  N        -32.1520 -141.7510  112.7310 N.3   336  VAL336     -0.1245
     67  CA       -31.3060 -142.2370  111.6430 C.3   336  VAL336      0.1561
     68  C        -29.9300 -142.7060  112.1220 C.2   336  VAL336      0.2260
     69  O        -29.5040 -143.8200  111.7670 O.2   336  VAL336     -0.2867
     70  CB       -31.1330 -141.1530  110.5330 C.3   336  VAL336      0.0252
     71  CG1      -30.0830 -141.5930  109.5100 C.3   336  VAL336      0.0019
     72  CG2      -32.4590 -140.8420  109.8330 C.3   336  VAL336      0.0019
     73  N        -29.0090 -146.6470  112.0850 N.3   340  SER340     -0.1217
     74  CA       -27.8640 -146.9320  111.1870 C.3   340  SER340      0.1889
     75  C        -26.7120 -147.6050  111.9130 C.2   340  SER340      0.2288
     76  O        -26.0580 -148.5080  111.3400 O.2   340  SER340     -0.2866
     77  CB       -27.3950 -145.6720  110.4110 C.3   340  SER340      0.2089
     78  OG       -28.4650 -145.1950  109.5740 O.3   340  SER340     -0.2183
     79  N        -28.8480 -151.0000  102.0770 N.3   358  ASP358     -0.1239
     80  CA       -30.0410 -150.6860  102.8730 C.3   358  ASP358      0.1674
     81  C        -31.0830 -151.8050  103.0020 C.2   358  ASP358      0.2266
     82  O        -32.0110 -151.6820  103.8000 O.2   358  ASP358     -0.2867
     83  CB       -30.7190 -149.3890  102.3750 C.3   358  ASP358      0.1410
     84  CG       -29.9210 -148.1360  102.7090 C.2   358  ASP358      0.3668
     85  OD1      -29.0930 -148.1780  103.6700 O.co2 358  ASP358     -0.2456
     86  OD2      -30.0840 -147.1000  101.9970 O.co2 358  ASP358     -0.2456
     87  N        -31.9060 -152.8500  106.5450 N.3   361  ALA361     -0.1231
     88  CA       -32.7460 -151.9030  107.3090 C.3   361  ALA361      0.1694
     89  C        -34.2250 -152.1350  107.0470 C.2   361  ALA361      0.2592
     90  O        -35.0280 -152.0890  107.9920 O.2   361  ALA361     -0.2718
     91  CB       -32.3990 -150.4560  106.9830 C.3   361  ALA361      0.0304
     92  N        -34.5930 -152.3930  105.7850 N.am  362  TYR362     -0.1976
     93  CA       -35.9800 -152.7350  105.4510 C.3   362  TYR362      0.1639
     94  C        -36.4330 -154.0680  106.1090 C.2   362  TYR362      0.2290
     95  O        -37.6200 -154.2980  106.2510 O.2   362  TYR362     -0.2864
     96  CB       -36.2250 -152.7680  103.8950 C.3   362  TYR362      0.0560
     97  CG       -36.2160 -151.3940  103.2570 C.ar  362  TYR362     -0.0198
     98  CD1      -37.3130 -150.5660  103.3660 C.ar  362  TYR362     -0.0009
     99  CD2      -35.0910 -150.8930  102.5930 C.ar  362  TYR362     -0.0009
    100  CE1      -37.2950 -149.2700  102.8480 C.ar  362  TYR362      0.0417
    101  CE2      -35.0750 -149.6270  102.0320 C.ar  362  TYR362      0.0417
    102  CZ       -36.1880 -148.8170  102.1580 C.ar  362  TYR362      0.1957
    103  OH       -36.2080 -147.5380  101.6440 O.3   362  TYR362     -0.2866
    104  N        -39.9160 -140.2010  108.0780 N.3   758  GLN758     -0.1231
    105  CA       -40.1000 -141.0990  109.1970 C.3   758  GLN758      0.1698
    106  C        -39.4780 -142.4770  108.8730 C.2   758  GLN758      0.2592
    107  O        -39.7740 -143.0620  107.8220 O.2   758  GLN758     -0.2718
    108  CB       -41.5990 -141.2170  109.4500 C.3   758  GLN758      0.0381
    109  CG       -41.9480 -141.8660  110.7800 C.3   758  GLN758      0.0905
    110  CD       -41.3560 -141.0930  111.9690 C.2   758  GLN758      0.2608
    111  OE1      -40.6770 -141.6600  112.8440 O.2   758  GLN758     -0.2717
    112  NE2      -41.5840 -139.7800  111.9840 N.am  758  GLN758     -0.0878
    113  N        -38.5950 -142.9760  109.7400 N.am  759  PHE759     -0.1976
    114  CA       -37.9300 -144.2730  109.5360 C.3   759  PHE759      0.1639
    115  C        -38.2850 -145.3360  110.5970 C.2   759  PHE759      0.2290
    116  O        -37.9120 -146.4880  110.4080 O.2   759  PHE759     -0.2864
    117  CB       -36.3920 -144.1310  109.4690 C.3   759  PHE759      0.0560
    118  CG       -35.9010 -143.1850  108.4040 C.ar  759  PHE759     -0.0200
    119  CD1      -35.6510 -143.6370  107.0970 C.ar  759  PHE759     -0.0042
    120  CD2      -35.6690 -141.8720  108.6910 C.ar  759  PHE759     -0.0042
    121  CE1      -35.2050 -142.7580  106.1200 C.ar  759  PHE759     -0.0003
    122  CE2      -35.1710 -140.9930  107.7360 C.ar  759  PHE759     -0.0003
    123  CZ       -34.9720 -141.4200  106.4310 C.ar  759  PHE759     -0.0000
    124  N        -41.0580 -146.4980  114.2330 N.3   761  GLU761     -0.1245
    125  CA       -42.2730 -146.2750  115.0110 C.3   761  GLU761      0.1567
    126  C        -41.8550 -145.4580  116.2170 C.2   761  GLU761      0.2260
    127  O        -40.7750 -145.6880  116.7590 O.2   761  GLU761     -0.2867
    128  CB       -42.9000 -147.5870  115.4400 C.3   761  GLU761      0.0388
    129  CG       -43.3840 -148.4730  114.3130 C.3   761  GLU761      0.1160
    130  CD       -43.8110 -149.8590  114.8000 C.2   761  GLU761      0.3649
    131  OE1      -44.4070 -149.9450  115.9180 O.co2 761  GLU761     -0.2457
    132  OE2      -43.5140 -150.8720  114.0910 O.co2 761  GLU761     -0.2457
@<TRIPOS>BOND
     1     1     2    1
     2     2     3    1
     3     2     5    1
     4     3     4    2
     5     5     6    1
     6    39    38    2
     7    12    13    1
     8    36    37    1
     9    38    37    1
    10     6     7    1
    11    43    41   ar
    12    40    37    1
    13    40    41    1
    14    20    21    1
    15    41    42   ar
    16     7     8    1
    17    25    24    1
    18    13    14    1
    19    13    16    1
    20    19    18    1
    21    14    15    2
    22    21    24    1
    23    21    22    1
    24    16    17    1
    25    17    18    1
    26    24    26    1
    27     8     9    2
    28    57    58    1
    29    58    59    1
    30    58    61    1
    31    22    27   am
    32    22    23    2
    33    60    59    2
    34    62    61    1
    35    62    63    1
    36    27    28    1
    37   103   102    1
    38    64    63    1
    39    64    65    1
    40     9    10    1
    41     9    11    1
    42    86    84   ar
    43   101   102   ar
    44   101    99   ar
    45    51    50    2
    46    79    80    1
    47   102   100   ar
    48    49    50    1
    49    49    48    1
    50    29    28    1
    51    29    30    2
    52    83    84    1
    53    83    80    1
    54    99    97   ar
    55    28    31    1
    56    84    85   ar
    57    50    52   am
    58   100    98   ar
    59    80    81    1
    60    81    82    2
    61    31    32    1
    62    97    98   ar
    63    97    96    1
    64    96    93    1
    65    52    53    1
    66    32    33    1
    67    55    54    2
    68    54    53    1
    69    33    34    1
    70    53    56    1
    71    93    92    1
    72    93    94    1
    73    92    89   am
    74    44    45    1
    75    34    35    1
    76    47    46    2
    77    94    95    2
    78   121   123   ar
    79   121   119   ar
    80    45    46    1
    81   123   122   ar
    82    87    88    1
    83    91    88    1
    84    89    88    1
    85    89    90    2
    86   119   118   ar
    87   122   120   ar
    88   107   106    2
    89   104   105    1
    90   118   120   ar
    91   118   117    1
    92   106   105    1
    93   106   113   am
    94   105   108    1
    95   108   109    1
    96   117   114    1
    97    71    70    1
    98   114   113    1
    99   114   115    1
   100    78    77    1
   101    72    70    1
   102   116   115    2
   103    77    74    1
   104    70    67    1
   105   109   110    1
   106    74    75    1
   107    74    73    1
   108    76    75    2
   109    67    68    1
   110    67    66    1
   111    69    68    2
   112   110   112   am
   113   110   111    2
   114   132   130   ar
   115   124   125    1
   116   129   130    1
   117   129   128    1
   118   130   131   ar
   119   125   128    1
   120   125   126    1
   121   126   127    2
