@<TRIPOS>MOLECULE
tmp/5m45E00.pdb
 173 162 0 0 0
SMALL
GASTEIGER

@<TRIPOS>ATOM
      1  N         11.1520   -4.4750   50.0180 N.3     9  ASP9       -0.1239
      2  CA         9.8780   -4.2830   49.2890 C.3     9  ASP9        0.1674
      3  C         10.0620   -3.2130   48.1780 C.2     9  ASP9        0.2266
      4  O          9.9700   -2.0150   48.4410 O.2     9  ASP9       -0.2867
      5  CB         8.7580   -3.8880   50.2600 C.3     9  ASP9        0.1410
      6  CG         7.3700   -3.7000   49.5690 C.2     9  ASP9        0.3668
      7  OD1        7.1590   -4.1260   48.3970 O.co2   9  ASP9       -0.2456
      8  OD2        6.4740   -3.1110   50.2440 O.co2   9  ASP9       -0.2456
      9  N          7.2090   -0.3970   44.0610 N.3    12  GLY12      -0.1210
     10  CA         6.2260    0.6490   44.2790 C.3    12  GLY12       0.1956
     11  C          6.7760    2.0060   43.8710 C.2    12  GLY12       0.2613
     12  O          7.7130    2.1310   43.0640 O.2    12  GLY12      -0.2717
     13  N          6.1710    3.0360   44.4110 N.am   13  THR13      -0.1938
     14  CA         6.6560    4.3930   44.2430 C.3    13  THR13       0.2028
     15  C          8.0270    4.5250   44.9680 C.2    13  THR13       0.2642
     16  O          8.9660    5.1080   44.4330 O.2    13  THR13      -0.2714
     17  CB         5.5880    5.3290   44.8160 C.3    13  THR13       0.1808
     18  OG1        4.3440    5.0420   44.1430 O.3    13  THR13      -0.2208
     19  CG2        5.9440    6.7720   44.6650 C.3    13  THR13       0.0379
     20  N          8.0970    3.9580   46.1810 N.am   14  MET14      -0.1976
     21  CA         9.2290    4.0440   47.0880 C.3    14  MET14       0.1605
     22  C          9.6770    2.6250   47.4460 C.2    14  MET14       0.2287
     23  O          8.8360    1.7860   47.7810 O.2    14  MET14      -0.2864
     24  CB         8.8100    4.7900   48.3700 C.3    14  MET14       0.0413
     25  CG         8.2740    6.2160   48.1650 C.3    14  MET14       0.0598
     26  SD         9.3440    7.3160   47.2170 S.3    14  MET14      -0.1393
     27  CE         8.3710    8.7740   46.9740 C.3    14  MET14       0.0692
     28  N         11.4640    0.0660   49.9940 N.3    16  ASP16      -0.1239
     29  CA        11.6480   -0.0250   51.4480 C.3    16  ASP16       0.1674
     30  C         12.5960   -1.1620   51.8040 C.2    16  ASP16       0.2266
     31  O         12.5770   -2.2110   51.1710 O.2    16  ASP16      -0.2867
     32  CB        10.2820   -0.2010   52.1440 C.3    16  ASP16       0.1410
     33  CG         9.2310    0.8060   51.6420 C.2    16  ASP16       0.3668
     34  OD1        9.2340    2.0160   52.0850 O.co2  16  ASP16      -0.2456
     35  OD2        8.4170    0.3590   50.7890 O.co2  16  ASP16      -0.2456
     36  N         -3.5740   -2.9570   52.4850 N.3   301  ASP301     -0.1225
     37  CA        -2.3480   -2.2260   52.0950 C.3   301  ASP301      0.1805
     38  C         -2.6140   -1.4190   50.8510 C.2   301  ASP301      0.2598
     39  O         -3.0060   -2.0130   49.8310 O.2   301  ASP301     -0.2718
     40  CB        -1.2160   -3.2590   51.8460 C.3   301  ASP301      0.1424
     41  CG         0.0900   -2.6470   51.3100 C.2   301  ASP301      0.3668
     42  OD1        0.1150   -1.5190   50.7740 O.co2 301  ASP301     -0.2456
     43  OD2        1.1220   -3.3350   51.3310 O.co2 301  ASP301     -0.2456
     44  N         -2.4200   -0.0830   50.9160 N.am  302  ILE302     -0.1966
     45  CA        -2.4410    0.7590   49.7110 C.3   302  ILE302      0.1727
     46  C         -1.0180    1.2400   49.4000 C.2   302  ILE302      0.2617
     47  O         -0.2990    1.7080   50.2810 O.2   302  ILE302     -0.2715
     48  CB        -3.3400    2.0160   49.8520 C.3   302  ILE302      0.0290
     49  CG1       -4.7260    1.6680   50.3990 C.3   302  ILE302      0.0022
     50  CG2       -3.4930    2.7240   48.4980 C.3   302  ILE302      0.0023
     51  CD1       -5.5550    2.8840   50.7780 C.3   302  ILE302      0.0001
     52  N         -0.6320    1.1290   48.1320 N.am  303  GLY303     -0.1940
     53  CA         0.6050    1.7170   47.6090 C.3   303  GLY303      0.2014
     54  C          0.3010    2.6820   46.4750 C.2   303  GLY303      0.2639
     55  O         -0.8190    3.1920   46.3500 O.2   303  GLY303     -0.2714
     56  N          1.3070    2.9660   45.6520 N.am  304  GLY304     -0.1954
     57  CA         1.1180    3.8370   44.4980 C.3   304  GLY304      0.1869
     58  C          0.1960    3.3080   43.4270 C.2   304  GLY304      0.2309
     59  O         -0.3970    4.1090   42.6750 O.2   304  GLY304     -0.2863
     60  N         -2.3660    5.4820   45.1930 N.3   344  ALA344     -0.1245
     61  CA        -2.1390    6.9330   45.3390 C.3   344  ALA344      0.1562
     62  C         -1.6170    7.6110   44.0630 C.2   344  ALA344      0.2260
     63  O         -1.6340    8.8590   43.9710 O.2   344  ALA344     -0.2867
     64  CB        -1.2200    7.2280   46.5130 C.3   344  ALA344      0.0290
     65  N         -2.5710   11.5570   43.9660 N.3   383  SER383     -0.1217
     66  CA        -1.5880   12.3440   44.7400 C.3   383  SER383      0.1889
     67  C         -1.8180   13.8580   44.5740 C.2   383  SER383      0.2288
     68  O         -1.6610   14.6280   45.5350 O.2   383  SER383     -0.2866
     69  CB        -0.1500   11.9270   44.3920 C.3   383  SER383      0.2089
     70  OG         0.1410   10.6100   44.8380 O.3   383  SER383     -0.2183
     71  N         -4.5330   14.7000   46.9610 N.3   386  HIS386     -0.1241
     72  CA        -3.9360   14.7920   48.3000 C.3   386  HIS386      0.1621
     73  C         -3.3080   16.1700   48.5580 C.2   386  HIS386      0.2264
     74  O         -3.4280   16.7060   49.6450 O.2   386  HIS386     -0.2867
     75  CB        -2.8420   13.7160   48.5170 C.3   386  HIS386      0.0745
     76  CG        -3.3710   12.3160   48.6190 C.ar  386  HIS386      0.0817
     77  ND1       -2.6120   11.2020   48.3210 N.ar  386  HIS386     -0.2268
     78  CD2       -4.5890   11.8580   48.9850 C.ar  386  HIS386      0.1154
     79  CE1       -3.3340   10.1160   48.5300 C.ar  386  HIS386      0.1986
     80  NE2       -4.5440   10.4910   48.9080 N.ar  386  HIS386     -0.2212
     81  N         -1.5250   15.3380   52.3830 N.3   392  LEU392     -0.1245
     82  CA        -0.0650   15.1780   52.4660 C.3   392  LEU392      0.1561
     83  C          0.6580   16.5210   52.4610 C.2   392  LEU392      0.2260
     84  O          0.1360   17.5520   51.9960 O.2   392  LEU392     -0.2867
     85  CB         0.4670   14.3000   51.3220 C.3   392  LEU392      0.0270
     86  CG         0.5940   12.8130   51.6650 C.3   392  LEU392      0.0019
     87  CD1       -0.7790   12.1540   51.8730 C.3   392  LEU392      0.0001
     88  CD2        1.4150   12.0640   50.6040 C.3   392  LEU392      0.0001
     89  N          7.4590   17.4080   52.7340 N.3   396  ASN396     -0.1225
     90  CA         8.0080   16.2510   53.4340 C.3   396  ASN396      0.1785
     91  C          7.6810   14.9070   52.7600 C.2   396  ASN396      0.2597
     92  O          7.4810   13.8920   53.4200 O.2   396  ASN396     -0.2718
     93  CB         7.5690   16.2720   54.9170 C.3   396  ASN396      0.1169
     94  CG         8.3980   15.3520   55.7830 C.2   396  ASN396      0.2627
     95  OD1        9.6040   15.2500   55.6120 O.2   396  ASN396     -0.2716
     96  ND2        7.7580   14.6800   56.7010 N.am  396  ASN396     -0.0877
     97  N          7.6890   14.9120   51.4330 N.am  397  PHE397     -0.1962
     98  CA         7.4550   13.7040   50.6250 C.3   397  PHE397      0.1771
     99  C          8.8200   13.0670   50.4260 C.2   397  PHE397      0.2619
    100  O          9.7770   13.7320   50.0120 O.2   397  PHE397     -0.2715
    101  CB         6.8490   14.1100   49.2900 C.3   397  PHE397      0.0574
    102  CG         6.2130   12.9910   48.5250 C.ar  397  PHE397     -0.0200
    103  CD1        4.9740   12.4990   48.9220 C.ar  397  PHE397     -0.0042
    104  CD2        6.8180   12.4600   47.4060 C.ar  397  PHE397     -0.0042
    105  CE1        4.3480   11.4570   48.2380 C.ar  397  PHE397     -0.0003
    106  CE2        6.2150   11.4040   46.7020 C.ar  397  PHE397     -0.0003
    107  CZ         4.9710   10.9050   47.1280 C.ar  397  PHE397     -0.0000
    108  N          8.9390   11.7970   50.7830 N.am  398  LEU398     -0.1977
    109  CA        10.2490   11.1620   51.0040 C.3   398  LEU398      0.1596
    110  C         11.1990   11.9640   51.9070 C.2   398  LEU398      0.2287
    111  O         12.3860   12.1660   51.5890 O.2   398  LEU398     -0.2864
    112  CB        10.8960   10.8600   49.6530 C.3   398  LEU398      0.0297
    113  CG        11.7840    9.6200   49.7660 C.3   398  LEU398      0.0022
    114  CD1       10.9170    8.3620   49.8890 C.3   398  LEU398      0.0001
    115  CD2       12.7820    9.5600   48.6150 C.3   398  LEU398      0.0001
    116  N          1.4570   -0.3640   54.3930 N.3   464  GLY464     -0.1210
    117  CA         1.9190    0.2020   53.1190 C.3   464  GLY464      0.1956
    118  C          2.1070    1.7170   53.2490 C.2   464  GLY464      0.2612
    119  O          1.6140    2.3280   54.1910 O.2   464  GLY464     -0.2717
    120  N          2.8140    2.3270   52.3060 N.am  465  GLY465     -0.1942
    121  CA         3.0140    3.7700   52.3340 C.3   465  GLY465      0.2014
    122  C          1.7190    4.6000   52.3810 C.2   465  GLY465      0.2638
    123  O          1.6570    5.6040   53.1050 O.2   465  GLY465     -0.2714
    124  N          0.7080    4.1940   51.6120 N.am  466  ALA466     -0.1977
    125  CA        -0.5580    4.9510   51.4700 C.3   466  ALA466      0.1597
    126  C         -1.7420    4.3850   52.2810 C.2   466  ALA466      0.2287
    127  O         -2.7940    5.0440   52.3550 O.2   466  ALA466     -0.2864
    128  CB        -0.9750    5.0670   50.0160 C.3   466  ALA466      0.0319
    129  N         -3.2070    6.7320   54.8810 N.3   469  VAL469     -0.1245
    130  CA        -3.7530    7.9590   54.2910 C.3   469  VAL469      0.1561
    131  C         -5.2940    7.8360   54.1680 C.2   469  VAL469      0.2260
    132  O         -6.0120    8.8450   54.2430 O.2   469  VAL469     -0.2867
    133  CB        -3.1260    8.2750   52.9150 C.3   469  VAL469      0.0252
    134  CG1       -3.6910    9.5740   52.3320 C.3   469  VAL469      0.0019
    135  CG2       -1.6020    8.3900   53.0290 C.3   469  VAL469      0.0019
    136  N          5.0890    1.8120   56.3480 N.3   490  ALA490     -0.1245
    137  CA         5.7250    1.9150   55.0230 C.3   490  ALA490      0.1562
    138  C          6.6370    0.7180   54.7120 C.2   490  ALA490      0.2260
    139  O          6.7130    0.2650   53.5590 O.2   490  ALA490     -0.2867
    140  CB         6.5120    3.2280   54.8990 C.3   490  ALA490      0.0290
    141  N          5.1680   10.8640   59.1980 N.3   683  SER683     -0.1202
    142  CA         6.5040   10.2830   59.2370 C.3   683  SER683      0.2020
    143  C          7.1940   10.6950   57.9430 C.2   683  SER683      0.2619
    144  O          6.6090   11.4500   57.1770 O.2   683  SER683     -0.2717
    145  CB         6.3970    8.7490   59.3590 C.3   683  SER683      0.2103
    146  OG         7.6820    8.1660   59.5390 O.3   683  SER683     -0.2182
    147  N          8.3820   10.1810   57.6740 N.am  684  ASP684     -0.1959
    148  CA         9.1340   10.5140   56.4350 C.3   684  ASP684      0.1840
    149  C          8.6980    9.7110   55.1930 C.2   684  ASP684      0.2622
    150  O          8.8630   10.1970   54.0660 O.2   684  ASP684     -0.2715
    151  CB        10.6990   10.4950   56.6480 C.3   684  ASP684      0.1450
    152  CG        11.2560    9.1780   57.1900 C.2   684  ASP684      0.3671
    153  OD1       10.4910    8.1930   57.3500 O.co2 684  ASP684     -0.2456
    154  OD2       12.5080    9.1220   57.4740 O.co2 684  ASP684     -0.2456
    155  N          8.1010    8.5220   55.3950 N.am  685  ALA685     -0.1963
    156  CA         7.5430    7.6990   54.2720 C.3   685  ALA685      0.1728
    157  C          6.0760    7.2150   54.4540 C.2   685  ALA685      0.2617
    158  O          5.5800    6.4610   53.6200 O.2   685  ALA685     -0.2715
    159  CB         8.4660    6.5040   53.9930 C.3   685  ALA685      0.0334
    160  N          5.3940    7.6440   55.5120 N.am  686  THR686     -0.1937
    161  CA         3.9340    7.4660   55.5680 C.3   686  THR686      0.2028
    162  C          3.2780    8.6590   56.2660 C.2   686  THR686      0.2642
    163  O          3.9390    9.4570   56.9290 O.2   686  THR686     -0.2714
    164  CB         3.4790    6.1160   56.2240 C.3   686  THR686      0.1808
    165  OG1        2.0920    5.8490   55.8630 O.3   686  THR686     -0.2208
    166  CG2        3.6900    6.1670   57.7890 C.3   686  THR686      0.0379
    167  N          1.9650    8.7280   56.1220 N.am  687  THR687     -0.1950
    168  CA         1.1440    9.8210   56.6260 C.3   687  THR687      0.1897
    169  C         -0.1810    9.1880   57.0920 C.2   687  THR687      0.2313
    170  O         -0.8550    8.5150   56.2970 O.2   687  THR687     -0.2863
    171  CB         0.8930   10.8810   55.5230 C.3   687  THR687      0.1794
    172  OG1        2.1510   11.3970   55.0550 O.3   687  THR687     -0.2208
    173  CG2        0.0770   12.0090   56.0170 C.3   687  THR687      0.0378
@<TRIPOS>BOND
     1    59    58    2
     2    12    11    2
     3    58    57    1
     4    11    10    1
     5    11    13   am
     6    65    66    1
     7    63    62    2
     8     9    10    1
     9    62    61    1
    10    18    17    1
    11    14    13    1
    12    14    17    1
    13    14    15    1
    14    69    66    1
    15    69    70    1
    16    16    15    2
    17    57    56    1
    18    67    66    1
    19    67    68    2
    20    19    17    1
    21    15    20   am
    22    60    61    1
    23    61    64    1
    24    56    54   am
    25    20    21    1
    26    55    54    2
    27    54    53    1
    28   106   107   ar
    29   106   104   ar
    30    71    72    1
    31    27    26    1
    32    21    22    1
    33    21    24    1
    34   107   105   ar
    35    26    25    1
    36   104   102   ar
    37    22    23    2
    38    53    52    1
    39    52    46   am
    40    25    24    1
    41     3     4    2
    42     3     2    1
    43   105   103   ar
    44    72    75    1
    45    72    73    1
    46    77    79   ar
    47    77    76   ar
    48     7     6   ar
    49    50    48    1
    50    75    76    1
    51   102   103   ar
    52   102   101    1
    53    79    80   ar
    54    73    74    2
    55   115   113    1
    56    76    78   ar
    57    80    78   ar
    58     2     1    1
    59     2     5    1
    60   101    98    1
    61    46    45    1
    62    46    47    2
    63     6     8   ar
    64     6     5    1
    65   112   113    1
    66   112   109    1
    67    45    48    1
    68    45    44    1
    69   113   114    1
    70    39    38    2
    71    48    49    1
    72    28    29    1
    73   100    99    2
    74   128   125    1
    75    49    51    1
    76    99    98    1
    77    99   108   am
    78    88    86    1
    79    98    97    1
    80    42    41   ar
    81   108   109    1
    82    35    33   ar
    83    38    44   am
    84    38    37    1
    85   109   110    1
    86    31    30    2
    87    41    43   ar
    88    41    40    1
    89    85    86    1
    90    85    82    1
    91    97    91   am
    92    29    30    1
    93    29    32    1
    94   125   124    1
    95   125   126    1
    96   111   110    2
    97   124   122   am
    98    33    34   ar
    99    33    32    1
   100    86    87    1
   101    40    37    1
   102    84    83    2
   103    37    36    1
   104   126   127    2
   105   120   121    1
   106   120   118   am
   107   134   133    1
   108   121   122    1
   109   122   123    2
   110    81    82    1
   111    83    82    1
   112    89    90    1
   113    91    92    2
   114    91    90    1
   115   133   135    1
   116   133   130    1
   117   117   118    1
   118   117   116    1
   119   118   119    2
   120    90    93    1
   121   139   138    2
   122   158   157    2
   123   159   156    1
   124   150   149    2
   125   131   132    2
   126   131   130    1
   127   156   157    1
   128   156   155    1
   129   130   129    1
   130   157   160   am
   131   138   137    1
   132   140   137    1
   133    93    94    1
   134   137   136    1
   135   172   171    1
   136   149   155   am
   137   149   148    1
   138   160   161    1
   139   171   173    1
   140   171   168    1
   141   161   164    1
   142   161   162    1
   143    95    94    2
   144    94    96   am
   145   165   164    1
   146   167   162   am
   147   167   168    1
   148   164   166    1
   149   162   163    2
   150   170   169    2
   151   148   151    1
   152   148   147    1
   153   168   169    1
   154   151   152    1
   155   144   143    2
   156   152   153   ar
   157   152   154   ar
   158   147   143   am
   159   143   142    1
   160   141   142    1
   161   142   145    1
   162   145   146    1
