@<TRIPOS>MOLECULE
tmp/5m47A00.pdb
 129 121 0 0 0
SMALL
GASTEIGER

@<TRIPOS>ATOM
      1  N         11.4800   21.6740  -47.3430 N.3    15  ASN15      -0.1240
      2  CA        10.7860   20.6790  -48.1170 C.3    15  ASN15       0.1653
      3  C          9.6660   21.5350  -48.6380 C.2    15  ASN15       0.2266
      4  O          8.8560   22.0510  -47.8570 O.2    15  ASN15      -0.2867
      5  CB        10.3130   19.5580  -47.1900 C.3    15  ASN15       0.1155
      6  CG         9.5390   18.4700  -47.8970 C.2    15  ASN15       0.2627
      7  OD1        8.6980   17.8680  -47.2590 O.2    15  ASN15      -0.2716
      8  ND2        9.8270   18.1850  -49.1890 N.am   15  ASN15      -0.0877
      9  N          6.8190   23.3560  -51.4690 N.3    17  PHE17      -0.1241
     10  CA         5.5670   23.0410  -52.0540 C.3    17  PHE17       0.1605
     11  C          5.0420   24.1550  -52.9100 C.2    17  PHE17       0.2264
     12  O          5.3790   25.3110  -52.7160 O.2    17  PHE17      -0.2867
     13  CB         4.5880   22.7190  -50.9370 C.3    17  PHE17       0.0534
     14  CG         5.0060   21.5360  -50.1100 C.ar   17  PHE17      -0.0203
     15  CD1        5.0060   20.2710  -50.6340 C.ar   17  PHE17      -0.0042
     16  CD2        5.4260   21.6920  -48.8170 C.ar   17  PHE17      -0.0042
     17  CE1        5.4100   19.1900  -49.8790 C.ar   17  PHE17      -0.0003
     18  CE2        5.8090   20.6000  -48.0380 C.ar   17  PHE17      -0.0003
     19  CZ         5.8060   19.3510  -48.5750 C.ar   17  PHE17      -0.0000
     20  N         -2.1840   16.2200  -51.7550 N.3    72  TYR72      -0.1241
     21  CA        -0.7320   16.2270  -51.9490 C.3    72  TYR72       0.1605
     22  C         -0.3410   15.4200  -53.1600 C.2    72  TYR72       0.2264
     23  O         -0.7480   14.2880  -53.2950 O.2    72  TYR72      -0.2867
     24  CB         0.0250   15.6590  -50.7240 C.3    72  TYR72       0.0534
     25  CG         1.5390   15.5640  -50.9750 C.ar   72  TYR72      -0.0201
     26  CD1        2.3130   16.6620  -51.0750 C.ar   72  TYR72      -0.0009
     27  CD2        2.1480   14.3760  -51.1830 C.ar   72  TYR72      -0.0009
     28  CE1        3.6550   16.5860  -51.3720 C.ar   72  TYR72       0.0417
     29  CE2        3.5110   14.2910  -51.4750 C.ar   72  TYR72       0.0417
     30  CZ         4.2750   15.4100  -51.5850 C.ar   72  TYR72       0.1957
     31  OH         5.6620   15.3750  -51.8730 O.3    72  TYR72      -0.2866
     32  N          3.2730   14.2060  -55.2310 N.3    74  ASN74      -0.1240
     33  CA         4.7430   14.2440  -55.3830 C.3    74  ASN74       0.1653
     34  C          5.2260   14.8460  -56.6520 C.2    74  ASN74       0.2266
     35  O          4.5150   14.8180  -57.6230 O.2    74  ASN74      -0.2867
     36  CB         5.3370   12.8500  -55.3530 C.3    74  ASN74       0.1155
     37  CG         5.3310   12.2870  -53.9860 C.2    74  ASN74       0.2627
     38  OD1        4.8160   11.2240  -53.7860 O.2    74  ASN74      -0.2716
     39  ND2        5.8790   13.0230  -53.0260 N.am   74  ASN74      -0.0877
     40  N          0.4180   10.5180  -52.7690 N.3    80  ALA80      -0.1245
     41  CA         0.9410    9.9050  -51.5300 C.3    80  ALA80       0.1562
     42  C         -0.0500   10.0640  -50.4300 C.2    80  ALA80       0.2260
     43  O         -0.8680   11.0290  -50.4010 O.2    80  ALA80      -0.2867
     44  CB         2.2870   10.5020  -51.1100 C.3    80  ALA80       0.0290
     45  N          0.2790   10.5820  -47.1090 N.3    82  MET82      -0.1230
     46  CA         0.3820   11.6710  -46.1430 C.3    82  MET82       0.1702
     47  C          1.5860   12.4630  -46.4380 C.2    82  MET82       0.2592
     48  O          2.5120   11.9570  -47.0460 O.2    82  MET82      -0.2718
     49  CB         0.5230   11.1430  -44.7070 C.3    82  MET82       0.0401
     50  CG        -0.6020   11.5030  -43.7590 C.3    82  MET82       0.0596
     51  SD        -0.6630   13.2470  -43.3350 S.3    82  MET82      -0.1393
     52  CE         0.7790   13.4370  -42.2920 C.3    82  MET82       0.0692
     53  N          1.5760   13.6870  -45.9380 N.am   83  CYS83      -0.1956
     54  CA         2.7360   14.5270  -45.9680 C.3    83  CYS83       0.1843
     55  C          2.8110   15.4270  -44.7130 C.2    83  CYS83       0.2626
     56  O          2.1270   16.4500  -44.6070 O.2    83  CYS83      -0.2714
     57  CB         2.7570   15.3260  -47.2760 C.3    83  CYS83       0.0997
     58  SG         4.1820   16.4510  -47.4160 S.3    83  CYS83      -0.0797
     59  N          3.6840   15.0380  -43.7850 N.am   84  GLY84      -0.1940
     60  CA         3.9250   15.7940  -42.5430 C.3    84  GLY84       0.2014
     61  C          4.2930   17.2650  -42.6920 C.2    84  GLY84       0.2638
     62  O          3.6590   18.1240  -42.0880 O.2    84  GLY84      -0.2714
     63  N          5.3260   17.5540  -43.4780 N.am   85  ASN85      -0.1972
     64  CA         5.7310   18.9480  -43.7190 C.3    85  ASN85       0.1688
     65  C          4.6230   19.6810  -44.4690 C.2    85  ASN85       0.2292
     66  O          4.2560   20.7840  -44.1290 O.2    85  ASN85      -0.2864
     67  CB         7.0380   19.0360  -44.5160 C.3    85  ASN85       0.1181
     68  CG         8.2440   18.4520  -43.7700 C.2    85  ASN85       0.2629
     69  OD1        8.3870   18.6130  -42.5390 O.2    85  ASN85      -0.2716
     70  ND2        9.1440   17.7880  -44.5230 N.am   85  ASN85      -0.0877
     71  N          1.9990    6.6690  -44.8010 N.3   159  ASN159     -0.1240
     72  CA         2.8650    6.1530  -45.8620 C.3   159  ASN159      0.1653
     73  C          4.0440    5.2990  -45.3570 C.2   159  ASN159      0.2266
     74  O          4.3210    5.2630  -44.1610 O.2   159  ASN159     -0.2867
     75  CB         3.3780    7.3090  -46.7120 C.3   159  ASN159      0.1155
     76  CG         4.0030    8.4190  -45.9090 C.2   159  ASN159      0.2627
     77  OD1        3.9060    8.4950  -44.6810 O.2   159  ASN159     -0.2716
     78  ND2        4.6240    9.3110  -46.6160 N.am  159  ASN159     -0.0877
     79  N          9.8500    5.3160  -48.4740 N.3   194  ASN194     -0.1240
     80  CA        10.6600    6.4380  -48.0710 C.3   194  ASN194      0.1653
     81  C         11.7640    5.8820  -47.2170 C.2   194  ASN194      0.2266
     82  O         11.4840    5.0920  -46.3230 O.2   194  ASN194     -0.2867
     83  CB         9.7830    7.4430  -47.3130 C.3   194  ASN194      0.1155
     84  CG         8.7560    8.1100  -48.2370 C.2   194  ASN194      0.2627
     85  OD1        9.0990    8.8520  -49.1900 O.2   194  ASN194     -0.2716
     86  ND2        7.4900    7.8140  -47.9890 N.am  194  ASN194     -0.0877
     87  N         13.1380   10.3190  -50.4730 N.3   212  GLU212     -0.1231
     88  CA        11.6890   10.2460  -50.6020 C.3   212  GLU212      0.1699
     89  C         11.3140    9.4970  -51.8700 C.2   212  GLU212      0.2592
     90  O         11.8160    9.7450  -52.9510 O.2   212  GLU212     -0.2718
     91  CB        11.0340   11.6310  -50.6500 C.3   212  GLU212      0.0402
     92  CG        10.5630   12.1380  -49.3190 C.3   212  GLU212      0.1161
     93  CD         9.8660   13.5310  -49.3590 C.2   212  GLU212      0.3649
     94  OE1        8.8940   13.8700  -50.1420 O.co2 212  GLU212     -0.2457
     95  OE2       10.3060   14.3250  -48.4940 O.co2 212  GLU212     -0.2457
     96  N         10.4000    8.5670  -51.7080 N.am  213  ARG213     -0.1980
     97  CA         9.6220    8.0540  -52.8150 C.3   213  ARG213      0.1597
     98  C          9.0040    9.2090  -53.6400 C.2   213  ARG213      0.2287
     99  O          8.4530   10.1740  -53.1000 O.2   213  ARG213     -0.2864
    100  CB         8.5040    7.1370  -52.2580 C.3   213  ARG213      0.0334
    101  CG         7.5530    6.6400  -53.3350 C.3   213  ARG213      0.0492
    102  CD         6.4690    5.7350  -52.8120 C.3   213  ARG213      0.2205
    103  NE         5.5420    6.4370  -51.9330 N.pl3 213  ARG213     -0.0865
    104  CZ         4.5230    5.8650  -51.2860 C.cat 213  ARG213      0.5346
    105  NH1        4.2500    4.5460  -51.4060 N.pl3 213  ARG213      0.1354
    106  NH2        3.7750    6.6300  -50.4850 N.pl3 213  ARG213      0.1354
    107  N         14.0300   17.7640  -45.9650 N.3   220  SER220     -0.1202
    108  CA        13.2830   17.3150  -44.7840 C.3   220  SER220      0.2020
    109  C         12.1480   16.3580  -45.1860 C.2   220  SER220      0.2619
    110  O         11.6150   16.4470  -46.3070 O.2   220  SER220     -0.2717
    111  CB        12.6460   18.5290  -44.0580 C.3   220  SER220      0.2103
    112  OG        11.8260   18.1530  -42.9540 O.3   220  SER220     -0.2182
    113  N         11.7380   15.4920  -44.2670 N.am  221  CYS221     -0.1955
    114  CA        10.5490   14.6780  -44.4860 C.3   221  CYS221      0.1843
    115  C          9.8420   14.4030  -43.1710 C.2   221  CYS221      0.2626
    116  O         10.2680   13.5840  -42.3840 O.2   221  CYS221     -0.2714
    117  CB        10.8880   13.3800  -45.2060 C.3   221  CYS221      0.0997
    118  SG         9.4780   12.2540  -45.4150 S.3   221  CYS221     -0.0797
    119  N          8.7260   15.0740  -42.9730 N.am  222  GLY222     -0.1940
    120  CA         8.0090   15.0830  -41.7120 C.3   222  GLY222      0.2014
    121  C          7.4850   13.7460  -41.2530 C.2   222  GLY222      0.2639
    122  O          7.5790   13.4480  -40.0860 O.2   222  GLY222     -0.2714
    123  N          6.9520   12.9280  -42.1420 N.am  223  THR223     -0.1950
    124  CA         6.4910   11.6290  -41.7070 C.3   223  THR223      0.1897
    125  C          7.7280   10.8090  -41.3780 C.2   223  THR223      0.2313
    126  O          7.7190    9.9940  -40.4490 O.2   223  THR223     -0.2863
    127  CB         5.6120   10.8830  -42.7470 C.3   223  THR223      0.1794
    128  OG1        6.2920   10.7930  -44.0140 O.3   223  THR223     -0.2208
    129  CG2        4.2610   11.5610  -42.8980 C.3   223  THR223      0.0378
@<TRIPOS>BOND
     1    35    34    2
     2    34    33    1
     3    33    36    1
     4    33    32    1
     5    36    37    1
     6    37    38    2
     7    37    39   am
     8    98    99    2
     9    98    97    1
    10   101   102    1
    11   101   100    1
    12    23    22    2
    13    22    21    1
    14    90    89    2
    15    11    12    2
    16    11    10    1
    17    97   100    1
    18    97    96    1
    19   102   103    1
    20    40    41    1
    21    10     9    1
    22    10    13    1
    23    21    20    1
    24    21    24    1
    25   103   104    2
    26    31    30    1
    27    89    96   am
    28    89    88    1
    29    30    29   ar
    30    30    28   ar
    31    41    44    1
    32    41    42    1
    33    29    27   ar
    34   105   104    1
    35    28    26   ar
    36   104   106    1
    37    27    25   ar
    38    26    25   ar
    39    25    24    1
    40    13    14    1
    41    91    88    1
    42    91    92    1
    43    15    14   ar
    44    15    17   ar
    45    88    87    1
    46    42    43    2
    47    94    93   ar
    48    14    16   ar
    49    17    19   ar
    50    93    92    1
    51    93    95   ar
    52    85    84    2
    53     8     6   am
    54    16    18   ar
    55     3     2    1
    56     3     4    2
    57    19    18   ar
    58    79    80    1
    59    84    86   am
    60    84    83    1
    61     2     1    1
    62     2     5    1
    63    80    83    1
    64    80    81    1
    65     6     7    2
    66     6     5    1
    67    58    57    1
    68    57    54    1
    69    81    82    2
    70    45    46    1
    71    48    47    2
    72    75    76    1
    73    75    72    1
    74    78    76   am
    75    47    46    1
    76    47    53   am
    77   110   109    2
    78    46    49    1
    79    54    53    1
    80    54    55    1
    81   107   108    1
    82    76    77    2
    83    72    73    1
    84    72    71    1
    85   118   117    1
    86    73    74    2
    87   117   114    1
    88   109   108    1
    89   109   113   am
    90   108   111    1
    91    55    56    2
    92    55    59   am
    93    49    50    1
    94    70    68   am
    95    67    68    1
    96    67    64    1
    97   114   113    1
    98   114   115    1
    99    65    66    2
   100    65    64    1
   101   111   112    1
   102   128   127    1
   103    59    60    1
   104    68    69    2
   105    50    51    1
   106    64    63    1
   107    63    61   am
   108    51    52    1
   109   115   119   am
   110   115   116    2
   111   119   120    1
   112   129   127    1
   113   127   124    1
   114    61    60    1
   115    61    62    2
   116   123   124    1
   117   123   121   am
   118   120   121    1
   119   124   125    1
   120   125   126    2
   121   121   122    2
