@<TRIPOS>MOLECULE
tmp/5m49A01.pdb
 96 92 0 0 0
SMALL
GASTEIGER

@<TRIPOS>ATOM
      1  N         16.6970    1.5590   32.7990 N.3    17  LEU17      -0.1245
      2  CA        15.6210    1.9480   31.9410 C.3    17  LEU17       0.1561
      3  C         14.5680    0.8410   31.9790 C.2    17  LEU17       0.2260
      4  O         14.5770   -0.0570   31.1380 O.2    17  LEU17      -0.2867
      5  CB        16.1570    2.1370   30.5190 C.3    17  LEU17       0.0270
      6  CG        15.1050    2.5810   29.5030 C.3    17  LEU17       0.0019
      7  CD1       14.4700    3.8910   29.7980 C.3    17  LEU17       0.0001
      8  CD2       15.8020    2.6590   28.1600 C.3    17  LEU17       0.0001
      9  N         17.1330   -5.1760   23.0310 N.3    47  TRP47      -0.1241
     10  CA        17.2460   -3.9470   22.2030 C.3    47  TRP47       0.1605
     11  C         17.9400   -4.1440   20.8790 C.2    47  TRP47       0.2264
     12  O         18.3070   -3.1320   20.2070 O.2    47  TRP47      -0.2867
     13  CB        17.9360   -2.8200   23.0130 C.3    47  TRP47       0.0550
     14  CG        17.1950   -2.2460   24.1900 C.ar   47  TRP47       0.0003
     15  CD1       17.4790   -2.3180   25.4750 C.ar   47  TRP47       0.0946
     16  CD2       16.1010   -1.3000   24.0820 C.ar   47  TRP47       0.0152
     17  NE1       16.6140   -1.5580   26.2250 N.ar   47  TRP47      -0.2442
     18  CE2       15.7830   -0.8670   25.3970 C.ar   47  TRP47       0.0810
     19  CE3       15.3520   -0.7970   23.0050 C.ar   47  TRP47       0.0012
     20  CZ2       14.7220   -0.0330   25.6270 C.ar   47  TRP47       0.0191
     21  CZ3       14.2940    0.1000   23.2750 C.ar   47  TRP47       0.0001
     22  CH2       14.0290    0.4530   24.5790 C.ar   47  TRP47       0.0015
     23  N         19.4550    8.8710   18.4190 N.3   134  TYR134     -0.1241
     24  CA        20.1210    8.1850   19.5500 C.3   134  TYR134      0.1605
     25  C         21.4490    7.6660   19.0590 C.2   134  TYR134      0.2264
     26  O         21.4720    6.7730   18.2140 O.2   134  TYR134     -0.2867
     27  CB        19.3140    7.0910   20.1540 C.3   134  TYR134      0.0534
     28  CG        19.8710    6.6350   21.4480 C.ar  134  TYR134     -0.0201
     29  CD1       19.5240    7.2500   22.6510 C.ar  134  TYR134     -0.0009
     30  CD2       20.7500    5.5820   21.5250 C.ar  134  TYR134     -0.0009
     31  CE1       20.0350    6.8510   23.8750 C.ar  134  TYR134      0.0417
     32  CE2       21.3120    5.2370   22.7240 C.ar  134  TYR134      0.0417
     33  CZ        20.9950    5.8900   23.9200 C.ar  134  TYR134      0.1957
     34  OH        21.5110    5.5380   25.1890 O.3   134  TYR134     -0.2866
     35  N         15.6860    5.0470   15.2120 N.3   197  SER197     -0.1202
     36  CA        15.3560    4.1150   16.2390 C.3   197  SER197      0.2020
     37  C         14.4760    4.7160   17.3520 C.2   197  SER197      0.2615
     38  O         13.2370    4.5610   17.3560 O.2   197  SER197     -0.2717
     39  CB        16.6970    3.6420   16.8580 C.3   197  SER197      0.2103
     40  OG        17.4670    4.7210   17.4610 O.3   197  SER197     -0.2182
     41  N         15.0720    5.4370   18.2800 N.am  198  ASP198     -0.2026
     42  CA        14.2130    6.0820   19.3200 C.3   198  ASP198      0.1395
     43  C         13.2630    7.1440   18.8720 C.3   198  ASP198      0.2041
     44  O         12.2000    7.4450   19.5330 O.3   198  ASP198     -0.2185
     45  CB        15.0880    6.7670   20.3760 C.3   198  ASP198      0.1383
     46  CG        15.5150    5.8330   21.4610 C.2   198  ASP198      0.3667
     47  OD1       15.0490    4.6980   21.5400 O.co2 198  ASP198     -0.2456
     48  OD2       16.3300    6.2510   22.2540 O.co2 198  ASP198     -0.2456
     49  N         21.5620   -0.1290   15.5150 N.3   229  LYS229     -0.1245
     50  CA        20.2400   -0.7680   15.7340 C.3   229  LYS229      0.1561
     51  C         19.8120   -1.6010   14.5640 C.2   229  LYS229      0.2260
     52  O         19.3440   -2.7110   14.8370 O.2   229  LYS229     -0.2867
     53  CB        19.2060    0.2900   15.9850 C.3   229  LYS229      0.0271
     54  CG        17.7280   -0.2110   16.1580 C.3   229  LYS229      0.0035
     55  CD        17.3940   -0.9100   17.4340 C.3   229  LYS229      0.0206
     56  CE        17.6420   -0.0330   18.5850 C.3   229  LYS229      0.1093
     57  NZ        17.0300   -0.5970   19.8540 N.3   229  LYS229     -0.1314
     58  N         25.7260   -3.3520   19.0310 N.3   255  LYS255     -0.1245
     59  CA        24.6400   -4.1780   19.4920 C.3   255  LYS255      0.1561
     60  C         24.8260   -5.6460   18.9400 C.2   255  LYS255      0.2260
     61  O         25.7010   -6.4030   19.4180 O.2   255  LYS255     -0.2867
     62  CB        23.2500   -3.5860   19.2250 C.3   255  LYS255      0.0271
     63  CG        22.9290   -2.4770   20.2260 C.3   255  LYS255      0.0035
     64  CD        21.4840   -2.0630   20.1540 C.3   255  LYS255      0.0206
     65  CE        20.9920   -1.0140   21.0990 C.3   255  LYS255      0.1093
     66  NZ        21.1690    0.2920   20.4410 N.3   255  LYS255     -0.1314
     67  N          9.3140    3.2040   22.2620 N.3   376  VAL376     -0.1245
     68  CA        10.2060    4.2870   21.8560 C.3   376  VAL376      0.1561
     69  C          9.3700    5.3540   21.2390 C.2   376  VAL376      0.2260
     70  O          8.1000    5.3370   21.3170 O.2   376  VAL376     -0.2867
     71  CB        11.2630    3.7460   20.8520 C.3   376  VAL376      0.0252
     72  CG1       12.1810    2.7420   21.4510 C.3   376  VAL376      0.0019
     73  CG2       10.6700    3.2240   19.5450 C.3   376  VAL376      0.0019
     74  N          8.4770   -1.1330   19.7400 N.3   384  GLU384     -0.1245
     75  CA         9.6830   -1.5570   18.9800 C.3   384  GLU384      0.1567
     76  C          9.7550   -3.0350   18.9930 C.2   384  GLU384      0.2260
     77  O          9.6590   -3.6800   20.0200 O.2   384  GLU384     -0.2867
     78  CB        10.9050   -0.8520   19.5940 C.3   384  GLU384      0.0388
     79  CG        12.2100   -1.3170   18.9180 C.3   384  GLU384      0.1160
     80  CD        13.4810   -0.5280   19.2180 C.2   384  GLU384      0.3649
     81  OE1       13.5210    0.6260   18.7570 O.co2 384  GLU384     -0.2457
     82  OE2       14.3890   -1.1360   19.8290 O.co2 384  GLU384     -0.2457
     83  N         11.3310    5.7960   30.4720 N.3   423  TRP423     -0.1241
     84  CA        12.1660    6.7460   29.7470 C.3   423  TRP423      0.1605
     85  C         12.4190    8.0930   30.4690 C.2   423  TRP423      0.2264
     86  O         13.5800    8.4670   30.6990 O.2   423  TRP423     -0.2867
     87  CB        11.5030    6.9330   28.3950 C.3   423  TRP423      0.0550
     88  CG        11.9310    5.9890   27.3300 C.ar  423  TRP423      0.0003
     89  CD1       11.1780    5.0790   26.6360 C.ar  423  TRP423      0.0946
     90  CD2       13.2210    5.9660   26.7370 C.ar  423  TRP423      0.0152
     91  NE1       11.9430    4.4680   25.6140 N.ar  423  TRP423     -0.2442
     92  CE2       13.2040    5.0000   25.6770 C.ar  423  TRP423      0.0810
     93  CE3       14.4020    6.6740   26.9920 C.ar  423  TRP423      0.0012
     94  CZ2       14.3380    4.7410   24.9010 C.ar  423  TRP423      0.0191
     95  CZ3       15.5050    6.4060   26.2300 C.ar  423  TRP423      0.0001
     96  CH2       15.4710    5.4840   25.2120 C.ar  423  TRP423      0.0015
@<TRIPOS>BOND
     1    51    52    2
     2    51    50    1
     3    35    36    1
     4    49    50    1
     5    50    53    1
     6    53    54    1
     7    54    55    1
     8    36    39    1
     9    36    37    1
    10    39    40    1
    11    37    38    2
    12    37    41   am
    13    55    56    1
    14    26    25    2
    15    41    42    1
    16    23    24    1
    17    56    57    1
    18    81    80   ar
    19    43    42    1
    20    43    44    1
    21    79    80    1
    22    79    78    1
    23    60    61    2
    24    60    59    1
    25    75    76    1
    26    75    78    1
    27    75    74    1
    28    76    77    2
    29    58    59    1
    30    25    24    1
    31    80    82   ar
    32    62    59    1
    33    62    63    1
    34    42    45    1
    35    73    71    1
    36    24    27    1
    37    27    28    1
    38    64    63    1
    39    64    65    1
    40    12    11    2
    41    45    46    1
    42    66    65    1
    43    71    72    1
    44    71    68    1
    45    11    10    1
    46    69    70    2
    47    69    68    1
    48    28    30   ar
    49    28    29   ar
    50    46    47   ar
    51    46    48   ar
    52    30    32   ar
    53    68    67    1
    54    10    13    1
    55    10     9    1
    56    29    31   ar
    57    32    33   ar
    58    19    21   ar
    59    19    16   ar
    60    13    14    1
    61    21    22   ar
    62    31    33   ar
    63    33    34    1
    64    16    14   ar
    65    16    18   ar
    66    14    15   ar
    67    22    20   ar
    68    94    96   ar
    69    94    92   ar
    70    96    95   ar
    71    18    20   ar
    72    18    17   ar
    73    15    17   ar
    74    91    92   ar
    75    91    89   ar
    76    92    90   ar
    77    95    93   ar
    78    89    88   ar
    79    90    93   ar
    80    90    88   ar
    81    88    87    1
    82     8     6    1
    83    87    84    1
    84     6     7    1
    85     6     5    1
    86    84    85    1
    87    84    83    1
    88    85    86    2
    89     5     2    1
    90     4     3    2
    91     2     3    1
    92     2     1    1
