@<TRIPOS>MOLECULE
tmp/5m4aA00.pdb
 212 208 0 0 0
SMALL
GASTEIGER

@<TRIPOS>ATOM
      1  N         48.3150  -41.3500   -2.9120 N.3    35  LYS35      -0.1245
      2  CA        47.3200  -40.3770   -2.4880 C.3    35  LYS35       0.1561
      3  C         47.6770  -39.6880   -1.1850 C.2    35  LYS35       0.2260
      4  O         47.1380  -38.6140   -0.8980 O.2    35  LYS35      -0.2867
      5  CB        45.9590  -41.0500   -2.3540 C.3    35  LYS35       0.0271
      6  CG        45.4420  -41.6070   -3.6500 C.3    35  LYS35       0.0035
      7  CD        44.2580  -42.4990   -3.4230 C.3    35  LYS35       0.0206
      8  CE        44.7090  -43.9280   -3.2870 C.3    35  LYS35       0.1093
      9  NZ        43.5620  -44.8330   -3.1190 N.3    35  LYS35      -0.1314
     10  N         39.7640  -49.5500   -9.4410 N.3   120  PRO120     -0.2116
     11  CA        39.2040  -48.6190  -10.4260 C.3   120  PRO120      0.1372
     12  C         40.2250  -48.1590  -11.4380 C.2   120  PRO120      0.2244
     13  O         39.8600  -47.8030  -12.5630 O.2   120  PRO120     -0.2868
     14  CB        38.7040  -47.4580   -9.5600 C.3   120  PRO120      0.0268
     15  CG        38.4830  -48.0590   -8.2290 C.3   120  PRO120      0.0207
     16  CD        39.5480  -49.0820   -8.0660 C.3   120  PRO120      0.0892
     17  N         43.8630  -44.9200   -7.8410 N.3   124  PHE124     -0.1241
     18  CA        43.1610  -45.7610   -6.8870 C.3   124  PHE124      0.1605
     19  C         43.6250  -47.1910   -7.0830 C.2   124  PHE124      0.2264
     20  O         43.1750  -47.8820   -7.9980 O.2   124  PHE124     -0.2867
     21  CB        41.6580  -45.6370   -7.0900 C.3   124  PHE124      0.0534
     22  CG        41.2030  -44.2320   -7.3080 C.ar  124  PHE124     -0.0203
     23  CD1       41.0340  -43.3770   -6.2370 C.ar  124  PHE124     -0.0042
     24  CD2       40.9440  -43.7610   -8.5770 C.ar  124  PHE124     -0.0042
     25  CE1       40.6170  -42.0810   -6.4260 C.ar  124  PHE124     -0.0003
     26  CE2       40.5230  -42.4630   -8.7680 C.ar  124  PHE124     -0.0003
     27  CZ        40.3600  -41.6250   -7.6900 C.ar  124  PHE124     -0.0000
     28  N         37.3710  -50.8830   -4.0870 N.3   128  TYR128     -0.1241
     29  CA        36.4110  -49.8920   -3.6420 C.3   128  TYR128      0.1605
     30  C         35.0270  -50.5020   -3.6020 C.2   128  TYR128      0.2264
     31  O         34.7440  -51.4870   -4.2850 O.2   128  TYR128     -0.2867
     32  CB        36.3950  -48.6730   -4.5490 C.3   128  TYR128      0.0534
     33  CG        37.5170  -47.7220   -4.2810 C.ar  128  TYR128     -0.0201
     34  CD1       38.8040  -48.0360   -4.6380 C.ar  128  TYR128     -0.0009
     35  CD2       37.2870  -46.5090   -3.6760 C.ar  128  TYR128     -0.0009
     36  CE1       39.8350  -47.1740   -4.3980 C.ar  128  TYR128      0.0417
     37  CE2       38.3110  -45.6420   -3.4320 C.ar  128  TYR128      0.0417
     38  CZ        39.5820  -45.9780   -3.7960 C.ar  128  TYR128      0.1957
     39  OH        40.6070  -45.1080   -3.5540 O.3   128  TYR128     -0.2866
     40  N         31.5460  -49.3190   -4.1650 N.3   130  TRP130     -0.1227
     41  CA        30.4790  -49.3490   -5.1470 C.3   130  TRP130      0.1737
     42  C         30.9830  -49.4610   -6.5720 C.2   130  TRP130      0.2595
     43  O         30.2210  -49.8520   -7.4540 O.2   130  TRP130     -0.2718
     44  CB        29.5660  -48.1450   -4.9510 C.3   130  TRP130      0.0564
     45  CG        30.0100  -46.8240   -5.4330 C.ar  130  TRP130      0.0003
     46  CD1       31.2170  -46.2340   -5.2560 C.ar  130  TRP130      0.0946
     47  CD2       29.1820  -45.8680   -6.0620 C.ar  130  TRP130      0.0152
     48  NE1       31.2060  -44.9770   -5.7980 N.ar  130  TRP130     -0.2442
     49  CE2       29.9550  -44.7300   -6.2940 C.ar  130  TRP130      0.0810
     50  CE3       27.8560  -45.8770   -6.4780 C.ar  130  TRP130      0.0012
     51  CZ2       29.4460  -43.6100   -6.9260 C.ar  130  TRP130      0.0191
     52  CZ3       27.3540  -44.7780   -7.0980 C.ar  130  TRP130      0.0001
     53  CH2       28.1400  -43.6550   -7.3200 C.ar  130  TRP130      0.0015
     54  N         32.2550  -49.1880   -6.8110 N.am  131  ASP131     -0.1974
     55  CA        32.8080  -49.4890   -8.1150 C.3   131  ASP131      0.1709
     56  C         32.7360  -50.9700   -8.3980 C.2   131  ASP131      0.2293
     57  O         32.5020  -51.3680   -9.5390 O.2   131  ASP131     -0.2864
     58  CB        34.2440  -49.0120   -8.1780 C.3   131  ASP131      0.1436
     59  CG        34.3580  -47.5460   -7.9500 C.2   131  ASP131      0.3671
     60  OD1       34.0260  -47.0960   -6.8440 O.co2 131  ASP131     -0.2456
     61  OD2       34.7730  -46.8400   -8.8790 O.co2 131  ASP131     -0.2456
     62  N         35.0420  -48.0650    2.1050 N.3   167  ASN167     -0.1240
     63  CA        35.2430  -47.2260    0.9360 C.3   167  ASN167      0.1653
     64  C         36.3300  -47.8110    0.0550 C.2   167  ASN167      0.2266
     65  O         36.1750  -47.9110   -1.1600 O.2   167  ASN167     -0.2867
     66  CB        35.6120  -45.8170    1.3920 C.3   167  ASN167      0.1155
     67  CG        35.5490  -44.8090    0.2860 C.2   167  ASN167      0.2627
     68  OD1       35.6630  -45.1500   -0.8820 O.2   167  ASN167     -0.2716
     69  ND2       35.3690  -43.5520    0.6460 N.am  167  ASN167     -0.0877
     70  N         40.3820  -45.3540    5.4410 N.3   173  TYR173     -0.1241
     71  CA        38.9930  -45.6200    5.0970 C.3   173  TYR173      0.1605
     72  C         38.2490  -46.4340    6.1470 C.2   173  TYR173      0.2264
     73  O         37.0660  -46.7140    5.9610 O.2   173  TYR173     -0.2867
     74  CB        38.9220  -46.3390    3.7550 C.3   173  TYR173      0.0534
     75  CG        39.3190  -45.4940    2.5850 C.ar  173  TYR173     -0.0201
     76  CD1       38.7880  -44.2340    2.4010 C.ar  173  TYR173     -0.0009
     77  CD2       40.2400  -45.9500    1.6730 C.ar  173  TYR173     -0.0009
     78  CE1       39.1550  -43.4590    1.3200 C.ar  173  TYR173      0.0417
     79  CE2       40.6090  -45.1850    0.5920 C.ar  173  TYR173      0.0417
     80  CZ        40.0680  -43.9430    0.4210 C.ar  173  TYR173      0.1957
     81  OH        40.4490  -43.1970   -0.6590 O.3   173  TYR173     -0.2866
     82  N         34.8510  -45.3930    7.0660 N.3   176  ARG176     -0.1245
     83  CA        33.9480  -45.0440    5.9830 C.3   176  ARG176      0.1563
     84  C         33.4330  -46.3030    5.2870 C.2   176  ARG176      0.2260
     85  O         33.8400  -47.4280    5.5720 O.2   176  ARG176     -0.2867
     86  CB        34.6450  -44.1000    5.0040 C.3   176  ARG176      0.0307
     87  CG        33.6930  -43.1850    4.2730 C.3   176  ARG176      0.0489
     88  CD        34.1800  -41.7650    4.2310 C.3   176  ARG176      0.2205
     89  NE        35.3360  -41.6090    3.3710 N.pl3 176  ARG176     -0.0865
     90  CZ        36.5720  -41.4390    3.8030 C.cat 176  ARG176      0.5346
     91  NH1       36.8170  -41.3960    5.0950 N.pl3 176  ARG176      0.1354
     92  NH2       37.5590  -41.3020    2.9380 N.pl3 176  ARG176      0.1354
     93  N         30.4850  -47.2070    1.6170 N.3   178  GLN178     -0.1245
     94  CA        30.0310  -46.8250    0.2860 C.3   178  GLN178      0.1566
     95  C         28.7730  -47.6170   -0.0170 C.2   178  GLN178      0.2260
     96  O         28.5020  -48.6140    0.6480 O.2   178  GLN178     -0.2867
     97  CB        31.1100  -47.1000   -0.7680 C.3   178  GLN178      0.0367
     98  CG        31.7590  -45.8610   -1.3180 C.3   178  GLN178      0.0905
     99  CD        32.7780  -46.1840   -2.3640 C.2   178  GLN178      0.2608
    100  OE1       33.0700  -47.3470   -2.6060 O.2   178  GLN178     -0.2717
    101  NE2       33.3330  -45.1630   -2.9900 N.am  178  GLN178     -0.0878
    102  N         43.5780  -38.2510    2.8750 N.3   245  GLU245     -0.1231
    103  CA        43.8560  -38.6300    1.5030 C.3   245  GLU245      0.1699
    104  C         43.5420  -37.5300    0.5020 C.2   245  GLU245      0.2592
    105  O         43.7540  -37.7300   -0.6960 O.2   245  GLU245     -0.2718
    106  CB        43.0790  -39.8960    1.1480 C.3   245  GLU245      0.0402
    107  CG        41.6080  -39.6720    0.8630 C.3   245  GLU245      0.1161
    108  CD        40.7480  -39.6560    2.1090 C.2   245  GLU245      0.3649
    109  OE1       41.2880  -39.4810    3.2190 O.co2 245  GLU245     -0.2457
    110  OE2       39.5200  -39.8250    1.9730 O.co2 245  GLU245     -0.2457
    111  N         43.0530  -36.3830    0.9430 N.am  246  THR246     -0.1953
    112  CA        42.7360  -35.3180    0.0080 C.3   246  THR246      0.1897
    113  C         44.0000  -34.5410   -0.3190 C.2   246  THR246      0.2313
    114  O         45.1150  -34.9300    0.0330 O.2   246  THR246     -0.2863
    115  CB        41.6690  -34.4010    0.5780 C.3   246  THR246      0.1794
    116  OG1       42.2290  -33.6620    1.6660 O.3   246  THR246     -0.2208
    117  CG2       40.5090  -35.2140    1.0760 C.3   246  THR246      0.0378
    118  N         43.3810  -28.7990   -0.1630 N.3   250  HIS250     -0.1241
    119  CA        41.9680  -28.9740   -0.4740 C.3   250  HIS250      0.1621
    120  C         41.0920  -28.1570    0.4590 C.2   250  HIS250      0.2264
    121  O         40.2710  -27.3510    0.0150 O.2   250  HIS250     -0.2867
    122  CB        41.6060  -30.4570   -0.4120 C.3   250  HIS250      0.0745
    123  CG        40.2360  -30.7700   -0.9260 C.ar  250  HIS250      0.0817
    124  ND1       39.3780  -29.8010   -1.3950 N.ar  250  HIS250     -0.2268
    125  CD2       39.5750  -31.9450   -1.0440 C.ar  250  HIS250      0.1154
    126  CE1       38.2460  -30.3640   -1.7780 C.ar  250  HIS250      0.1986
    127  NE2       38.3390  -31.6650   -1.5740 N.ar  250  HIS250     -0.2212
    128  N         31.6880  -38.4120    1.0390 N.3   294  ARG294     -0.1245
    129  CA        32.5970  -39.4250    0.5380 C.3   294  ARG294      0.1563
    130  C         32.0570  -40.8270    0.7490 C.2   294  ARG294      0.2260
    131  O         32.4660  -41.7420    0.0400 O.2   294  ARG294     -0.2867
    132  CB        33.9570  -39.2540    1.1980 C.3   294  ARG294      0.0307
    133  CG        34.4990  -37.8570    1.0040 C.3   294  ARG294      0.0489
    134  CD        35.8350  -37.6550    1.6530 C.3   294  ARG294      0.2205
    135  NE        36.7790  -37.0180    0.7480 N.pl3 294  ARG294     -0.0865
    136  CZ        36.7680  -35.7300    0.4330 C.cat 294  ARG294      0.5346
    137  NH1       35.8590  -34.9240    0.9450 N.pl3 294  ARG294      0.1354
    138  NH2       37.6700  -35.2460   -0.4010 N.pl3 294  ARG294      0.1354
    139  N         29.8290  -41.7850   -2.2690 N.3   297  GLY297     -0.1225
    140  CA        30.4920  -41.9400   -3.5390 C.3   297  GLY297      0.1811
    141  C         30.3190  -40.7860   -4.4870 C.2   297  GLY297      0.2280
    142  O         30.9570  -40.7750   -5.5390 O.2   297  GLY297     -0.2866
    143  N         31.1090  -37.6210   -4.0200 N.3   299  ASP299     -0.1239
    144  CA        31.9860  -36.4890   -3.7970 C.3   299  ASP299      0.1674
    145  C         32.5940  -36.0170   -5.1110 C.2   299  ASP299      0.2266
    146  O         33.2340  -36.7910   -5.8120 O.2   299  ASP299     -0.2867
    147  CB        33.0780  -36.8590   -2.8040 C.3   299  ASP299      0.1410
    148  CG        33.9690  -37.9520   -3.3110 C.2   299  ASP299      0.3668
    149  OD1       33.4970  -39.0860   -3.4580 O.co2 299  ASP299     -0.2456
    150  OD2       35.1500  -37.6770   -3.5600 O.co2 299  ASP299     -0.2456
    151  N         31.7070  -31.6180   -9.3170 N.3   436  GLN436     -0.1231
    152  CA        32.1000  -32.8410  -10.0050 C.3   436  GLN436      0.1698
    153  C         30.8890  -33.6720  -10.4110 C.2   436  GLN436      0.2592
    154  O         30.6760  -33.9400  -11.5960 O.2   436  GLN436     -0.2718
    155  CB        33.0450  -33.6570   -9.1230 C.3   436  GLN436      0.0381
    156  CG        33.4770  -34.9580   -9.7590 C.3   436  GLN436      0.0905
    157  CD        34.9180  -35.2890   -9.4640 C.2   436  GLN436      0.2608
    158  OE1       35.7040  -34.4110   -9.1100 O.2   436  GLN436     -0.2717
    159  NE2       35.2730  -36.5600   -9.5880 N.am  436  GLN436     -0.0878
    160  N         30.0970  -34.0930   -9.4410 N.am  437  TRP437     -0.1976
    161  CA        29.0150  -35.0300   -9.6800 C.3   437  TRP437      0.1640
    162  C         27.7110  -34.3630  -10.0690 C.2   437  TRP437      0.2290
    163  O         26.6670  -35.0010   -9.9850 O.2   437  TRP437     -0.2864
    164  CB        28.7870  -35.8990   -8.4590 C.3   437  TRP437      0.0576
    165  CG        29.6930  -37.0560   -8.3810 C.ar  437  TRP437      0.0006
    166  CD1       30.9490  -37.0650   -7.8850 C.ar  437  TRP437      0.0946
    167  CD2       29.4120  -38.3910   -8.7920 C.ar  437  TRP437      0.0152
    168  NE1       31.4760  -38.3210   -7.9610 N.ar  437  TRP437     -0.2442
    169  CE2       30.5490  -39.1560   -8.5160 C.ar  437  TRP437      0.0810
    170  CE3       28.3080  -39.0130   -9.3720 C.ar  437  TRP437      0.0012
    171  CZ2       30.6190  -40.5100   -8.7940 C.ar  437  TRP437      0.0191
    172  CZ3       28.3760  -40.3550   -9.6440 C.ar  437  TRP437      0.0001
    173  CH2       29.5220  -41.0920   -9.3550 C.ar  437  TRP437      0.0015
    174  N         27.5930  -40.0760  -15.3580 N.3   443  TRP443     -0.1241
    175  CA        28.4930  -41.0190  -14.7340 C.3   443  TRP443      0.1605
    176  C         28.0130  -42.4240  -15.0240 C.2   443  TRP443      0.2264
    177  O         26.8130  -42.6610  -15.1480 O.2   443  TRP443     -0.2867
    178  CB        28.5860  -40.7580  -13.2480 C.3   443  TRP443      0.0550
    179  CG        29.2920  -39.4850  -12.9440 C.ar  443  TRP443      0.0003
    180  CD1       28.7500  -38.2490  -12.8870 C.ar  443  TRP443      0.0946
    181  CD2       30.6810  -39.3270  -12.6620 C.ar  443  TRP443      0.0152
    182  NE1       29.7110  -37.3220  -12.5840 N.ar  443  TRP443     -0.2442
    183  CE2       30.9080  -37.9640  -12.4430 C.ar  443  TRP443      0.0810
    184  CE3       31.7540  -40.2080  -12.5710 C.ar  443  TRP443      0.0012
    185  CZ2       32.1590  -37.4620  -12.1410 C.ar  443  TRP443      0.0191
    186  CZ3       32.9890  -39.7100  -12.2780 C.ar  443  TRP443      0.0001
    187  CH2       33.1870  -38.3520  -12.0660 C.ar  443  TRP443      0.0015
    188  N         38.9970  -46.8750  -17.2210 N.3   503  PHE503     -0.1241
    189  CA        38.5120  -46.6620  -15.8670 C.3   503  PHE503      0.1605
    190  C         37.4010  -47.6620  -15.6060 C.2   503  PHE503      0.2264
    191  O         36.4630  -47.7640  -16.3950 O.2   503  PHE503     -0.2867
    192  CB        38.0150  -45.2320  -15.6570 C.3   503  PHE503      0.0534
    193  CG        37.8860  -44.8430  -14.2070 C.ar  503  PHE503     -0.0203
    194  CD1       38.9590  -44.9690  -13.3440 C.ar  503  PHE503     -0.0042
    195  CD2       36.6910  -44.3430  -13.7080 C.ar  503  PHE503     -0.0042
    196  CE1       38.8430  -44.6110  -12.0140 C.ar  503  PHE503     -0.0003
    197  CE2       36.5710  -43.9830  -12.3800 C.ar  503  PHE503     -0.0003
    198  CZ        37.6510  -44.1170  -11.5330 C.ar  503  PHE503     -0.0000
    199  N         34.5080  -48.6840  -14.0300 N.3   505  TRP505     -0.1241
    200  CA        33.0780  -48.7650  -14.2760 C.3   505  TRP505      0.1605
    201  C         32.6760  -48.0880  -15.5680 C.2   505  TRP505      0.2264
    202  O         31.5410  -48.2610  -16.0140 O.2   505  TRP505     -0.2867
    203  CB        32.2910  -48.1850  -13.0970 C.3   505  TRP505      0.0550
    204  CG        32.5650  -46.7670  -12.7500 C.ar  505  TRP505      0.0003
    205  CD1       33.0620  -45.7990  -13.5590 C.ar  505  TRP505      0.0946
    206  CD2       32.3400  -46.1530  -11.4860 C.ar  505  TRP505      0.0152
    207  NE1       33.1640  -44.6170  -12.8780 N.ar  505  TRP505     -0.2442
    208  CE2       32.7260  -44.8120  -11.5980 C.ar  505  TRP505      0.0810
    209  CE3       31.8590  -46.6130  -10.2610 C.ar  505  TRP505      0.0012
    210  CZ2       32.6410  -43.9270  -10.5360 C.ar  505  TRP505      0.0191
    211  CZ3       31.7720  -45.7340   -9.2170 C.ar  505  TRP505      0.0001
    212  CH2       32.1590  -44.4080   -9.3550 C.ar  505  TRP505      0.0015
@<TRIPOS>BOND
     1   188   189    1
     2   191   190    2
     3   202   201    2
     4   189   192    1
     5   189   190    1
     6   192   193    1
     7   201   200    1
     8   174   175    1
     9   177   176    2
    10   176   175    1
    11   175   178    1
    12   200   199    1
    13   200   203    1
    14   193   195   ar
    15   193   194   ar
    16   195   197   ar
    17   205   207   ar
    18   205   204   ar
    19   194   196   ar
    20   178   179    1
    21   203   204    1
    22   179   180   ar
    23   179   181   ar
    24   180   182   ar
    25   207   208   ar
    26   204   206   ar
    27   181   184   ar
    28   181   183   ar
    29   182   183   ar
    30   184   186   ar
    31    13    12    2
    32   183   185   ar
    33   197   198   ar
    34   186   187   ar
    35   185   187   ar
    36   196   198   ar
    37   208   206   ar
    38   208   210   ar
    39   154   153    2
    40   206   209   ar
    41    12    11    1
    42   210   212   ar
    43    11    14    1
    44    11    10    1
    45   153   152    1
    46   153   160   am
    47   209   211   ar
    48   162   163    2
    49   162   161    1
    50   152   151    1
    51   152   155    1
    52   156   157    1
    53   156   155    1
    54   161   160    1
    55   161   164    1
    56   172   170   ar
    57   172   173   ar
    58   159   157   am
    59    14    15    1
    60    57    56    2
    61   157   158    2
    62    10    16    1
    63   170   167   ar
    64   173   171   ar
    65   212   211   ar
    66    61    59   ar
    67   171   169   ar
    68   167   169   ar
    69   167   165   ar
    70    26    24   ar
    71    26    27   ar
    72    24    22   ar
    73   169   168   ar
    74   164   165    1
    75    56    55    1
    76   165   166   ar
    77    15    16    1
    78    58    55    1
    79    58    59    1
    80    55    54    1
    81    20    19    2
    82   168   166   ar
    83    59    60   ar
    84    17    18    1
    85    27    25   ar
    86    43    42    2
    87    53    52   ar
    88    53    51   ar
    89    22    21    1
    90    22    23   ar
    91    52    50   ar
    92    21    18    1
    93    19    18    1
    94    51    49   ar
    95    54    42   am
    96    42    41    1
    97    50    47   ar
    98    25    23   ar
    99    49    47   ar
   100    49    48   ar
   101    47    45   ar
   102   146   145    2
   103    48    46   ar
   104   142   141    2
   105    45    46   ar
   106    45    44    1
   107    41    44    1
   108    41    40    1
   109   145   144    1
   110    34    36   ar
   111    34    33   ar
   112    32    33    1
   113    32    29    1
   114   141   140    1
   115    36    38   ar
   116    31    30    2
   117    33    35   ar
   118    28    29    1
   119   143   144    1
   120   144   147    1
   121    38    39    1
   122    38    37   ar
   123    35    37   ar
   124     6     7    1
   125     6     5    1
   126    29    30    1
   127   150   148   ar
   128   140   139    1
   129   149   148   ar
   130     7     8    1
   131   148   147    1
   132     8     9    1
   133   101    99   am
   134     1     2    1
   135   100    99    2
   136     2     5    1
   137     2     3    1
   138    99    98    1
   139   126   127   ar
   140   126   124   ar
   141   127   125   ar
   142   124   123   ar
   143    98    97    1
   144     3     4    2
   145    65    64    2
   146   125   123   ar
   147   123   122    1
   148    68    67    2
   149    97    94    1
   150   105   104    2
   151    81    80    1
   152   119   122    1
   153   119   118    1
   154   119   120    1
   155   138   136    1
   156   113   112    1
   157   113   114    2
   158    95    94    1
   159    95    96    2
   160   112   115    1
   161   112   111    1
   162   121   120    2
   163   131   130    2
   164    64    63    1
   165    94    93    1
   166    67    69   am
   167    67    66    1
   168    80    79   ar
   169    80    78   ar
   170   136   135    2
   171   136   137    1
   172   104   111   am
   173   104   103    1
   174   129   130    1
   175   129   128    1
   176   129   132    1
   177   115   117    1
   178   115   116    1
   179    79    77   ar
   180   135   134    1
   181   107   106    1
   182   107   108    1
   183    63    66    1
   184    63    62    1
   185   133   132    1
   186   133   134    1
   187   106   103    1
   188    78    76   ar
   189   103   102    1
   190    77    75   ar
   191   110   108   ar
   192   108   109   ar
   193    76    75   ar
   194    75    74    1
   195    92    90    1
   196    89    90    2
   197    89    88    1
   198    74    71    1
   199    90    91    1
   200    88    87    1
   201    87    86    1
   202    86    83    1
   203    71    70    1
   204    71    72    1
   205    84    85    2
   206    84    83    1
   207    73    72    2
   208    83    82    1
