@<TRIPOS>MOLECULE
tmp/5m4dA00.pdb
 147 141 0 0 0
SMALL
GASTEIGER

@<TRIPOS>ATOM
      1  N         15.0670    1.1920   32.5670 N.3    22  LEU22      -0.1245
      2  CA        14.0360    1.5840   31.6270 C.3    22  LEU22       0.1561
      3  C         12.9590    0.5020   31.7030 C.2    22  LEU22       0.2260
      4  O         12.9520   -0.4620   30.9110 O.2    22  LEU22      -0.2867
      5  CB        14.6380    1.6140   30.2350 C.3    22  LEU22       0.0270
      6  CG        13.7340    2.0780   29.1050 C.3    22  LEU22       0.0019
      7  CD1       13.2940    3.5160   29.3170 C.3    22  LEU22       0.0001
      8  CD2       14.4740    1.8640   27.7970 C.3    22  LEU22       0.0001
      9  N         15.7560   -5.6130   22.7690 N.3    52  TRP52      -0.1241
     10  CA        15.9460   -4.3810   21.9700 C.3    52  TRP52       0.1605
     11  C         16.7730   -4.5690   20.6800 C.2    52  TRP52       0.2264
     12  O         17.3700   -3.6000   20.1950 O.2    52  TRP52      -0.2867
     13  CB        16.5750   -3.2820   22.8340 C.3    52  TRP52       0.0550
     14  CG        15.7490   -2.8020   24.0060 C.ar   52  TRP52       0.0003
     15  CD1       15.9260   -3.1080   25.3420 C.ar   52  TRP52       0.0946
     16  CD2       14.6800   -1.8440   23.9600 C.ar   52  TRP52       0.0152
     17  NE1       15.0140   -2.3960   26.0980 N.ar   52  TRP52      -0.2442
     18  CE2       14.2400   -1.6330   25.2760 C.ar   52  TRP52       0.0810
     19  CE3       14.0360   -1.1530   22.9280 C.ar   52  TRP52       0.0012
     20  CZ2       13.1810   -0.7490   25.5820 C.ar   52  TRP52       0.0191
     21  CZ3       13.0180   -0.2600   23.2590 C.ar   52  TRP52       0.0001
     22  CH2       12.5900   -0.1120   24.5500 C.ar   52  TRP52       0.0015
     23  N         29.6260   -0.6140   22.7270 N.3   112  SER112     -0.1202
     24  CA        28.1930   -0.2380   22.5800 C.3   112  SER112      0.2020
     25  C         28.0100    0.7530   21.4320 C.2   112  SER112      0.2619
     26  O         28.9950    1.3180   20.9430 O.2   112  SER112     -0.2717
     27  CB        27.6710    0.4500   23.8660 C.3   112  SER112      0.2103
     28  OG        28.2970    1.7300   24.1070 O.3   112  SER112     -0.2182
     29  N         26.7570    0.9410   21.0190 N.am  113  GLY113     -0.1942
     30  CA        26.4140    2.0120   20.0700 C.3   113  GLY113      0.2014
     31  C         26.9090    3.3950   20.4720 C.2   113  GLY113      0.2639
     32  O         27.3910    4.1390   19.6490 O.2   113  GLY113     -0.2714
     33  N         26.7500    3.7400   21.7440 N.am  114  SER114     -0.1949
     34  CA        27.1920    5.0240   22.2830 C.3   114  SER114      0.1924
     35  C         28.6950    5.2380   22.0550 C.2   114  SER114      0.2314
     36  O         29.1390    6.3180   21.6030 O.2   114  SER114     -0.2863
     37  CB        26.9080    5.0770   23.7730 C.3   114  SER114      0.2116
     38  OG        25.5190    4.9560   24.0490 O.3   114  SER114     -0.2180
     39  N         29.3530    5.5420   18.1140 N.3   117  ASN117     -0.1240
     40  CA        29.0080    6.9220   17.6110 C.3   117  ASN117      0.1653
     41  C         29.9440    7.9970   18.1320 C.2   117  ASN117      0.2266
     42  O         30.4810    8.8480   17.3400 O.2   117  ASN117     -0.2867
     43  CB        27.5350    7.2900   17.8340 C.3   117  ASN117      0.1155
     44  CG        26.6020    6.5480   16.8670 C.2   117  ASN117      0.2627
     45  OD1       26.8210    6.5350   15.6640 O.2   117  ASN117     -0.2716
     46  ND2       25.5910    5.8750   17.4110 N.am  117  ASN117     -0.0877
     47  N         18.3930    8.7080   18.2830 N.3   140  TYR140     -0.1227
     48  CA        19.0510    8.2000   19.4700 C.3   140  TYR140      0.1736
     49  C         20.4050    7.6560   19.0410 C.2   140  TYR140      0.2595
     50  O         20.4640    6.6650   18.3120 O.2   140  TYR140     -0.2718
     51  CB        18.1810    7.1490   20.1170 C.3   140  TYR140      0.0548
     52  CG        18.6140    6.7630   21.4930 C.ar  140  TYR140     -0.0200
     53  CD1       19.8500    6.1480   21.6990 C.ar  140  TYR140     -0.0009
     54  CD2       17.8150    6.9870   22.5940 C.ar  140  TYR140     -0.0009
     55  CE1       20.2830    5.8310   22.9560 C.ar  140  TYR140      0.0417
     56  CE2       18.2340    6.6150   23.8800 C.ar  140  TYR140      0.0417
     57  CZ        19.4750    6.0150   24.0440 C.ar  140  TYR140      0.1957
     58  OH        19.9130    5.5820   25.2930 O.3   140  TYR140     -0.2866
     59  N         21.4830    8.3460   19.3990 N.am  141  HIS141     -0.1961
     60  CA        22.8030    7.9440   19.0140 C.3   141  HIS141      0.1787
     61  C         23.6480    7.4710   20.1820 C.2   141  HIS141      0.2620
     62  O         24.6710    6.8480   19.9380 O.2   141  HIS141     -0.2715
     63  CB        23.5540    8.9990   18.1950 C.3   141  HIS141      0.0785
     64  CG        22.9050    9.2930   16.8870 C.ar  141  HIS141      0.0821
     65  ND1       22.6620    8.3150   15.9500 N.ar  141  HIS141     -0.2267
     66  CD2       22.4710   10.4560   16.3480 C.ar  141  HIS141      0.1154
     67  CE1       22.0780    8.8520   14.8950 C.ar  141  HIS141      0.1986
     68  NE2       21.9830   10.1580   15.0990 N.ar  141  HIS141     -0.2212
     69  N         23.2540    7.7370   21.4150 N.am  142  GLY142     -0.1954
     70  CA        23.9050    7.1290   22.5910 C.3   142  GLY142      0.1869
     71  C         23.4340    7.7510   23.8670 C.2   142  GLY142      0.2309
     72  O         22.5980    8.6670   23.8560 O.2   142  GLY142     -0.2863
     73  N         19.8120    7.8620   11.1530 N.3   208  GLU208     -0.1245
     74  CA        19.3170    6.4780   11.2040 C.3   208  GLU208      0.1567
     75  C         18.5340    6.2410    9.9110 C.2   208  GLU208      0.2260
     76  O         17.6740    7.0820    9.5810 O.2   208  GLU208     -0.2867
     77  CB        18.4370    6.2690   12.4220 C.3   208  GLU208      0.0388
     78  CG        19.0480    6.7420   13.7250 C.3   208  GLU208      0.1160
     79  CD        18.1300    6.5990   14.9040 C.2   208  GLU208      0.3649
     80  OE1       17.9090    7.6070   15.5990 O.co2 208  GLU208     -0.2457
     81  OE2       17.6680    5.4950   15.1750 O.co2 208  GLU208     -0.2457
     82  N         14.6780    4.5610   14.9780 N.3   212  SER212     -0.1202
     83  CA        14.0930    3.5180   15.8110 C.3   212  SER212      0.2020
     84  C         13.3990    4.0420   17.0690 C.2   212  SER212      0.2618
     85  O         12.1710    4.0130   17.1490 O.2   212  SER212     -0.2717
     86  CB        15.1080    2.4360   16.0950 C.3   212  SER212      0.2103
     87  OG        15.3410    1.7730   14.8770 O.3   212  SER212     -0.2182
     88  N         14.1590    4.5330   18.0360 N.am  213  ASP213     -0.1973
     89  CA        13.5060    4.9440   19.2960 C.3   213  ASP213      0.1709
     90  C         12.6830    6.2310   19.1850 C.2   213  ASP213      0.2293
     91  O         11.8190    6.4970   20.0510 O.2   213  ASP213     -0.2864
     92  CB        14.5020    4.9060   20.4660 C.3   213  ASP213      0.1436
     93  CG        15.1650    3.5380   20.5800 C.2   213  ASP213      0.3671
     94  OD1       14.4610    2.5140   20.5930 O.co2 213  ASP213     -0.2456
     95  OD2       16.3920    3.4810   20.5760 O.co2 213  ASP213     -0.2456
     96  N         23.8700    5.2040   11.1390 N.3   241  ASP241     -0.1239
     97  CA        23.8040    4.4990   12.4240 C.3   241  ASP241      0.1674
     98  C         22.8940    3.3290   12.2420 C.2   241  ASP241      0.2266
     99  O         21.7010    3.5040   12.1700 O.2   241  ASP241     -0.2867
    100  CB        23.2590    5.4270   13.5070 C.3   241  ASP241      0.1410
    101  CG        23.0780    4.7390   14.8520 C.2   241  ASP241      0.3668
    102  OD1       23.1650    3.5120   14.9450 O.co2 241  ASP241     -0.2456
    103  OD2       22.8700    5.4670   15.8610 O.co2 241  ASP241     -0.2456
    104  N         22.8780    0.6940   14.3090 N.3   243  VAL243     -0.1231
    105  CA        22.9670   -0.0440   15.5890 C.3   243  VAL243      0.1692
    106  C         21.6710   -0.7970   15.8890 C.2   243  VAL243      0.2591
    107  O         21.7050   -1.8960   16.4520 O.2   243  VAL243     -0.2718
    108  CB        23.3490    0.9020   16.7530 C.3   243  VAL243      0.0266
    109  CG1       23.1620    0.2270   18.0940 C.3   243  VAL243      0.0020
    110  CG2       24.7930    1.3380   16.5790 C.3   243  VAL243      0.0020
    111  N         20.5310   -0.2100   15.5020 N.am  244  ALA244     -0.1980
    112  CA        19.2070   -0.8160   15.7240 C.3   244  ALA244      0.1597
    113  C         18.7630   -1.6840   14.5280 C.2   244  ALA244      0.2287
    114  O         18.1000   -2.7420   14.7090 O.2   244  ALA244     -0.2864
    115  CB        18.1520    0.2610   15.9370 C.3   244  ALA244      0.0319
    116  N         24.5110   -3.3700   19.0810 N.3   270  LYS270     -0.1245
    117  CA        23.4780   -4.3190   19.5430 C.3   270  LYS270      0.1561
    118  C         23.6750   -5.7110   19.0040 C.2   270  LYS270      0.2260
    119  O         24.5500   -6.4090   19.4950 O.2   270  LYS270     -0.2867
    120  CB        22.0830   -3.7790   19.2810 C.3   270  LYS270      0.0271
    121  CG        21.7980   -2.4990   20.0610 C.3   270  LYS270      0.0035
    122  CD        20.4130   -2.1010   19.7080 C.3   270  LYS270      0.0206
    123  CE        19.9700   -0.7710   20.2210 C.3   270  LYS270      0.1093
    124  NZ        18.6930   -0.4890   19.5790 N.3   270  LYS270     -0.1314
    125  N          7.1730   -1.1620   19.4510 N.3   399  GLU399     -0.1245
    126  CA         8.3230   -1.6040   18.6830 C.3   399  GLU399      0.1567
    127  C          8.4630   -3.1090   18.6700 C.2   399  GLU399      0.2260
    128  O          8.3650   -3.7370   19.7150 O.2   399  GLU399     -0.2867
    129  CB         9.5800   -0.9990   19.2810 C.3   399  GLU399      0.0388
    130  CG        10.8700   -1.4380   18.6080 C.3   399  GLU399      0.1160
    131  CD        12.0940   -0.6020   19.0050 C.2   399  GLU399      0.3649
    132  OE1       12.3250    0.4760   18.4150 O.co2 399  GLU399     -0.2457
    133  OE2       12.8640   -1.0530   19.8780 O.co2 399  GLU399     -0.2457
    134  N         10.2570    5.5730   30.0790 N.3   439  TRP439     -0.1241
    135  CA        11.1720    6.5860   29.6230 C.3   439  TRP439      0.1605
    136  C         11.0770    7.8260   30.5740 C.2   439  TRP439      0.2264
    137  O         12.1040    8.4740   30.8560 O.2   439  TRP439     -0.2867
    138  CB        10.8860    6.9640   28.1560 C.3   439  TRP439      0.0550
    139  CG        11.0120    5.8300   27.1510 C.ar  439  TRP439      0.0003
    140  CD1        9.9890    5.0160   26.7050 C.ar  439  TRP439      0.0946
    141  CD2       12.1950    5.4140   26.4220 C.ar  439  TRP439      0.0152
    142  NE1       10.4650    4.1260   25.7570 N.ar  439  TRP439     -0.2442
    143  CE2       11.8110    4.3400   25.5750 C.ar  439  TRP439      0.0810
    144  CE3       13.5450    5.8430   26.4010 C.ar  439  TRP439      0.0012
    145  CZ2       12.7220    3.6970   24.7130 C.ar  439  TRP439      0.0191
    146  CZ3       14.4500    5.2010   25.5490 C.ar  439  TRP439      0.0001
    147  CH2       14.0270    4.1280   24.7080 C.ar  439  TRP439      0.0015
@<TRIPOS>BOND
     1    76    75    2
     2    75    74    1
     3    96    97    1
     4    73    74    1
     5    74    77    1
     6    99    98    2
     7    98    97    1
     8    77    78    1
     9    97   100    1
    10   100   101    1
    11    78    79    1
    12   104   105    1
    13   113   114    2
    14   113   112    1
    15   101   102   ar
    16   101   103   ar
    17    87    86    1
    18    67    68   ar
    19    67    65   ar
    20    79    81   ar
    21    79    80   ar
    22    82    83    1
    23    68    66   ar
    24   111   112    1
    25   111   106   am
    26   105   106    1
    27   105   108    1
    28    45    44    2
    29   112   115    1
    30    83    86    1
    31    83    84    1
    32   106   107    2
    33    65    64   ar
    34    66    64   ar
    35   110   108    1
    36   108   109    1
    37    44    46   am
    38    44    43    1
    39    64    63    1
    40    84    85    2
    41    84    88   am
    42    42    41    2
    43    40    43    1
    44    40    39    1
    45    40    41    1
    46    88    89    1
    47    63    60    1
    48    47    48    1
    49    50    49    2
    50   132   131   ar
    51   130   131    1
    52   130   129    1
    53   127   126    1
    54   127   128    2
    55   126   129    1
    56   126   125    1
    57   118   119    2
    58   118   117    1
    59   131   133   ar
    60    60    59    1
    61    60    61    1
    62    49    59   am
    63    49    48    1
    64   116   117    1
    65    90    89    1
    66    90    91    2
    67   120   117    1
    68   120   121    1
    69    89    92    1
    70    48    51    1
    71   124   123    1
    72    32    31    2
    73   122   121    1
    74   122   123    1
    75    62    61    2
    76    30    31    1
    77    30    29    1
    78    51    52    1
    79    61    69   am
    80    12    11    2
    81    92    93    1
    82    31    33   am
    83    95    93   ar
    84    93    94   ar
    85    11    10    1
    86    26    25    2
    87    29    25   am
    88    69    70    1
    89    25    24    1
    90    52    53   ar
    91    52    54   ar
    92    36    35    2
    93    53    55   ar
    94    33    34    1
    95    10     9    1
    96    10    13    1
    97    35    34    1
    98    34    37    1
    99    24    23    1
   100    24    27    1
   101    70    71    1
   102    54    56   ar
   103    13    14    1
   104    19    21   ar
   105    19    16   ar
   106    55    57   ar
   107    21    22   ar
   108    37    38    1
   109    72    71    2
   110    27    28    1
   111    56    57   ar
   112    16    14   ar
   113    16    18   ar
   114    14    15   ar
   115    57    58    1
   116    22    20   ar
   117   147   145   ar
   118   147   146   ar
   119   145   143   ar
   120    18    20   ar
   121    18    17   ar
   122    15    17   ar
   123   146   144   ar
   124   143   142   ar
   125   143   141   ar
   126   142   140   ar
   127   144   141   ar
   128   141   139   ar
   129   140   139   ar
   130   139   138    1
   131     8     6    1
   132   138   135    1
   133     6     7    1
   134     6     5    1
   135   135   134    1
   136   135   136    1
   137     5     2    1
   138   136   137    2
   139     4     3    2
   140     2     3    1
   141     2     1    1
