@<TRIPOS>MOLECULE
tmp/5m4eA00.pdb
 139 127 0 0 0
SMALL
GASTEIGER

@<TRIPOS>ATOM
      1  N         31.1100   11.3770   15.8590 N.3    33  LEU33      -0.1245
      2  CA        30.4660   11.8330   17.1170 C.3    33  LEU33       0.1561
      3  C         29.1730   11.1130   17.4690 C.2    33  LEU33       0.2260
      4  O         28.9250   10.7670   18.6410 O.2    33  LEU33      -0.2867
      5  CB        30.2640   13.3370   17.0720 C.3    33  LEU33       0.0270
      6  CG        31.5940   14.1330   17.0390 C.3    33  LEU33       0.0019
      7  CD1       31.2960   15.6370   16.8420 C.3    33  LEU33       0.0001
      8  CD2       32.4790   13.9070   18.2790 C.3    33  LEU33       0.0001
      9  N         30.2080    7.7850   18.8960 N.3    36  ASN36      -0.1225
     10  CA        30.5560    7.8360   20.2970 C.3    36  ASN36       0.1785
     11  C         29.2680    7.9320   21.1930 C.2    36  ASN36       0.2597
     12  O         29.1800    7.3070   22.2630 O.2    36  ASN36      -0.2718
     13  CB        31.4340    9.0740   20.5320 C.3    36  ASN36       0.1169
     14  CG        32.8940    8.8630   20.1010 C.2    36  ASN36       0.2627
     15  OD1       33.2690    7.8460   19.5490 O.2    36  ASN36      -0.2716
     16  ND2       33.7250    9.8540   20.4050 N.am   36  ASN36      -0.0877
     17  N         28.2940    8.7060   20.7330 N.am   37  SER37      -0.1952
     18  CA        27.0380    8.9090   21.5020 C.3    37  SER37       0.1924
     19  C         26.3280    7.5700   21.6030 C.2    37  SER37       0.2314
     20  O         25.8660    7.1950   22.6640 O.2    37  SER37      -0.2863
     21  CB        26.1290    9.9810   20.8430 C.3    37  SER37       0.2116
     22  OG        26.6710   11.2970   20.9540 O.3    37  SER37      -0.2180
     23  N         27.7230    4.5210   21.4630 N.3    39  ASP39      -0.1225
     24  CA        28.4570    3.6870   22.3820 C.3    39  ASP39       0.1805
     25  C         28.1340    4.0480   23.8370 C.2    39  ASP39       0.2597
     26  O         27.9290    3.1720   24.6740 O.2    39  ASP39      -0.2718
     27  CB        29.9410    3.8080   22.1330 C.3    39  ASP39       0.1424
     28  CG        30.3680    3.2440   20.8100 C.2    39  ASP39       0.3668
     29  OD1       29.5460    2.5890   20.1100 O.co2  39  ASP39      -0.2456
     30  OD2       31.5310    3.4870   20.4780 O.co2  39  ASP39      -0.2456
     31  N         28.0690    5.3360   24.1460 N.am   40  ALA40      -0.1979
     32  CA        27.6910    5.7900   25.5110 C.3    40  ALA40       0.1597
     33  C         26.2480    5.4010   25.9150 C.2    40  ALA40       0.2287
     34  O         25.9420    5.1270   27.0910 O.2    40  ALA40      -0.2864
     35  CB        27.8630    7.2980   25.6190 C.3    40  ALA40       0.0319
     36  N         26.1240    1.7710   26.6930 N.3    43  LYS43      -0.1245
     37  CA        26.6820    1.5590   28.0340 C.3    43  LYS43       0.1561
     38  C         25.6770    1.7840   29.1660 C.2    43  LYS43       0.2260
     39  O         25.5290    0.9180   30.0650 O.2    43  LYS43      -0.2867
     40  CB        27.9430    2.3710   28.1970 C.3    43  LYS43       0.0271
     41  CG        28.6150    2.2180   29.5440 C.3    43  LYS43       0.0035
     42  CD        29.6470    1.1140   29.6340 C.3    43  LYS43       0.0206
     43  CE        30.3640    1.1790   31.0020 C.3    43  LYS43       0.1093
     44  NZ        29.6700    0.3380   32.0460 N.3    43  LYS43      -0.1314
     45  N         23.7220   13.7550   23.7040 N.3    78  ASP78      -0.1239
     46  CA        23.2160   12.4380   24.0070 C.3    78  ASP78       0.1674
     47  C         22.8870   12.3030   25.4690 C.2    78  ASP78       0.2266
     48  O         23.3810   13.0760   26.3000 O.2    78  ASP78      -0.2867
     49  CB        24.1890   11.3440   23.5180 C.3    78  ASP78       0.1410
     50  CG        25.4530   11.2510   24.3000 C.2    78  ASP78       0.3668
     51  OD1       25.4080   10.9080   25.5040 O.co2  78  ASP78      -0.2456
     52  OD2       26.5600   11.4350   23.6600 O.co2  78  ASP78      -0.2456
     53  N         25.8940    7.4050   29.0140 N.3    81  ILE81      -0.1231
     54  CA        26.4630    7.2150   30.3480 C.3    81  ILE81       0.1692
     55  C         27.2080    8.4390   30.9170 C.2    81  ILE81       0.2593
     56  O         27.4180    8.5460   32.1330 O.2    81  ILE81      -0.2718
     57  CB        27.3150    5.9480   30.3890 C.3    81  ILE81       0.0266
     58  CG1       27.6580    5.5830   31.8320 C.3    81  ILE81       0.0019
     59  CG2       28.6140    6.0740   29.5600 C.3    81  ILE81       0.0020
     60  CD1       27.5970    4.1380   32.1520 C.3    81  ILE81       0.0001
     61  N         27.6600    9.3080   30.0350 N.am   82  GLY82      -0.1942
     62  CA        28.5210   10.4420   30.4320 C.3    82  GLY82       0.2014
     63  C         29.8750   10.0540   30.9030 C.2    82  GLY82       0.2638
     64  O         30.2790    8.8930   30.8220 O.2    82  GLY82      -0.2714
     65  N         30.6250   11.0560   31.3250 N.am   83  MET83      -0.1976
     66  CA        32.0110   10.8520   31.7270 C.3    83  MET83       0.1605
     67  C         32.2700   11.4960   33.0890 C.2    83  MET83       0.2287
     68  O         31.8090   12.5980   33.3710 O.2    83  MET83      -0.2864
     69  CB        32.9510   11.4360   30.6810 C.3    83  MET83       0.0413
     70  CG        33.0170   10.6490   29.4010 C.3    83  MET83       0.0598
     71  SD        33.9810   11.4860   28.1190 S.3    83  MET83      -0.1393
     72  CE        33.0060   12.8910   27.6780 C.3    83  MET83       0.0692
     73  N         37.7420   10.7140   33.5940 N.3    87  ASP87      -0.1239
     74  CA        37.7090   10.2760   32.1970 C.3    87  ASP87       0.1674
     75  C         37.8230   11.4460   31.2110 C.2    87  ASP87       0.2266
     76  O         38.5000   11.3280   30.1790 O.2    87  ASP87      -0.2867
     77  CB        36.4830    9.4170   31.9630 C.3    87  ASP87       0.1410
     78  CG        36.6140    8.0300   32.5920 C.2    87  ASP87       0.3668
     79  OD1       37.5660    7.7100   33.3490 O.co2  87  ASP87      -0.2456
     80  OD2       35.8130    7.2050   32.2530 O.co2  87  ASP87      -0.2456
     81  N         38.9790   12.1710   27.1970 N.3    92  LEU92      -0.1231
     82  CA        37.5490   11.9080   26.9660 C.3    92  LEU92       0.1693
     83  C         37.2130   10.3940   26.8340 C.2    92  LEU92       0.2593
     84  O         36.5000    9.9540   25.9400 O.2    92  LEU92      -0.2718
     85  CB        37.0920   12.7000   25.7670 C.3    92  LEU92       0.0284
     86  CG        37.4560   14.2060   25.9530 C.3    92  LEU92       0.0019
     87  CD1       38.7120   14.6160   25.1740 C.3    92  LEU92       0.0001
     88  CD2       36.3060   15.0660   25.5550 C.3    92  LEU92       0.0001
     89  N         37.7340    9.6450   27.7760 N.am   93  GLY93      -0.1942
     90  CA        37.4880    8.2140   27.8340 C.3    93  GLY93       0.2014
     91  C         38.0780    7.3380   26.7430 C.2    93  GLY93       0.2639
     92  O         37.6730    6.1440   26.6170 O.2    93  GLY93      -0.2714
     93  N         39.0460    7.8720   25.9700 N.am   94  THR94      -0.1950
     94  CA        39.6020    7.1740   24.8400 C.3    94  THR94       0.1897
     95  C         40.9360    6.5710   25.2180 C.2    94  THR94       0.2313
     96  O         41.5990    7.0980   26.1220 O.2    94  THR94      -0.2863
     97  CB        39.8090    8.0750   23.5970 C.3    94  THR94       0.1794
     98  OG1       40.8290    9.0640   23.8690 O.3    94  THR94      -0.2208
     99  CG2       38.4910    8.7400   23.1790 C.3    94  THR94       0.0378
    100  N         39.7490    4.3480   17.9500 N.3   120  GLY120     -0.1225
    101  CA        39.2440    4.7620   19.2580 C.3   120  GLY120      0.1811
    102  C         39.3630    6.2630   19.5710 C.2   120  GLY120      0.2280
    103  O         38.9920    6.6930   20.6930 O.2   120  GLY120     -0.2866
    104  N         38.0090    8.8160   17.3350 N.3   122  GLY122     -0.1210
    105  CA        37.1580    9.5390   16.4370 C.3   122  GLY122      0.1956
    106  C         36.6240   10.8840   16.9440 C.2   122  GLY122      0.2611
    107  O         36.3230   11.7820   16.1430 O.2   122  GLY122     -0.2717
    108  N         36.5680   11.0360   18.2560 N.am  123  PHE123     -0.1976
    109  CA        36.1760   12.3200   18.8890 C.3   123  PHE123      0.1639
    110  C         36.9950   13.4710   18.2670 C.2   123  PHE123      0.2290
    111  O         36.4470   14.5200   17.9280 O.2   123  PHE123     -0.2864
    112  CB        36.3930   12.2980   20.4150 C.3   123  PHE123      0.0560
    113  CG        36.3510   13.6760   21.0260 C.ar  123  PHE123     -0.0200
    114  CD1       35.1250   14.2850   21.1980 C.ar  123  PHE123     -0.0042
    115  CD2       37.5330   14.3960   21.3040 C.ar  123  PHE123     -0.0042
    116  CE1       35.0450   15.6050   21.6760 C.ar  123  PHE123     -0.0003
    117  CE2       37.4700   15.7080   21.7860 C.ar  123  PHE123     -0.0003
    118  CZ        36.2350   16.2980   21.9740 C.ar  123  PHE123     -0.0000
    119  N         32.8660   20.3820   25.5660 N.3   135  VAL135     -0.1301
    120  CA        32.1510   19.1390   25.9540 C.3   135  VAL135      0.1246
    121  C         31.6240   19.2930   27.3680 C.3   135  VAL135      0.2009
    122  O         32.4340   19.5000   28.3490 O.3   135  VAL135     -0.2188
    123  CB        33.0990   17.9450   25.8730 C.3   135  VAL135      0.0202
    124  CG1       32.3950   16.6120   26.2390 C.3   135  VAL135      0.0016
    125  CG2       33.7070   17.8290   24.4980 C.3   135  VAL135      0.0016
    126  N         26.3160   13.4670   27.5230 N.3   169  THR169     -0.1274
    127  CA        27.4560   14.2700   27.0230 C.3   169  THR169      0.1548
    128  C         26.9310   15.1390   25.9050 C.3   169  THR169      0.2036
    129  O         26.0780   14.6920   25.0330 O.3   169  THR169     -0.2187
    130  CB        28.5820   13.3150   26.5380 C.3   169  THR169      0.1721
    131  OG1       29.1750   12.6720   27.6570 O.3   169  THR169     -0.2215
    132  CG2       29.6450   14.0510   25.7330 C.3   169  THR169      0.0371
    133  N         28.4540   17.8280   23.0150 N.3   171  VAL171     -0.1245
    134  CA        29.6480   18.2480   22.2810 C.3   171  VAL171      0.1561
    135  C         29.2290   19.4950   21.4560 C.2   171  VAL171      0.2260
    136  O         28.4040   19.4050   20.5630 O.2   171  VAL171     -0.2867
    137  CB        30.1650   17.1270   21.3460 C.3   171  VAL171      0.0252
    138  CG1       31.3480   17.6450   20.5170 C.3   171  VAL171      0.0019
    139  CG2       30.5790   15.9010   22.1250 C.3   171  VAL171      0.0019
@<TRIPOS>BOND
     1     1     2    1
     2   107   106    2
     3   105   106    1
     4   105   104    1
     5     7     6    1
     6   106   108   am
     7     6     5    1
     8     6     8    1
     9     5     2    1
    10     2     3    1
    11     3     4    2
    12   111   110    2
    13   100   101    1
    14   108   109    1
    15   110   109    1
    16   109   112    1
    17     9    10    1
    18   101   102    1
    19    15    14    2
    20   102   103    2
    21    14    16   am
    22    14    13    1
    23    29    28   ar
    24    10    13    1
    25    10    11    1
    26   112   113    1
    27    30    28   ar
    28   138   137    1
    29   136   135    2
    30    17    11   am
    31    17    18    1
    32    28    27    1
    33    21    22    1
    34    21    18    1
    35   113   114   ar
    36   113   115   ar
    37    11    12    2
    38   114   116   ar
    39   115   117   ar
    40   137   139    1
    41   137   134    1
    42   135   134    1
    43    23    24    1
    44    18    19    1
    45    19    20    2
    46   116   118   ar
    47   117   118   ar
    48    27    24    1
    49   134   133    1
    50    24    25    1
    51    99    97    1
    52    49    46    1
    53    49    50    1
    54    97    98    1
    55    97    94    1
    56    52    50   ar
    57    45    46    1
    58    25    31   am
    59    25    26    2
    60    46    47    1
    61    31    32    1
    62    50    51   ar
    63   125   123    1
    64    94    95    1
    65    94    93    1
    66   129   128    1
    67    87    86    1
    68    95    96    2
    69    47    48    2
    70    32    35    1
    71    32    33    1
    72    88    86    1
    73   119   120    1
    74   132   130    1
    75    85    86    1
    76    85    82    1
    77   123   120    1
    78   123   124    1
    79   128   127    1
    80    33    34    2
    81    84    83    2
    82   120   121    1
    83    93    91   am
    84   130   127    1
    85   130   131    1
    86    92    91    2
    87    36    37    1
    88    91    90    1
    89    83    82    1
    90    83    89   am
    91    82    81    1
    92   127   126    1
    93   121   122    1
    94    72    71    1
    95    89    90    1
    96    37    40    1
    97    37    38    1
    98    71    70    1
    99    40    41    1
   100    53    54    1
   101    38    39    2
   102    70    69    1
   103    41    42    1
   104    59    57    1
   105    42    43    1
   106    61    62    1
   107    61    55   am
   108    76    75    2
   109    54    57    1
   110    54    55    1
   111    57    58    1
   112    62    63    1
   113    69    66    1
   114    64    63    2
   115    63    65   am
   116    55    56    2
   117    43    44    1
   118    75    74    1
   119    65    66    1
   120    66    67    1
   121    58    60    1
   122    77    74    1
   123    77    78    1
   124    74    73    1
   125    80    78   ar
   126    78    79   ar
   127    67    68    2
