@<TRIPOS>MOLECULE
tmp/5m4hA00.pdb
 124 114 0 0 0
SMALL
GASTEIGER

@<TRIPOS>ATOM
      1  N         30.4160   11.3120   15.5670 N.3    33  LEU33      -0.1245
      2  CA        29.7740   11.7810   16.7540 C.3    33  LEU33       0.1561
      3  C         28.4660   11.1080   17.0790 C.2    33  LEU33       0.2260
      4  O         28.1950   10.8420   18.2340 O.2    33  LEU33      -0.2867
      5  CB        29.5670   13.2800   16.6670 C.3    33  LEU33       0.0270
      6  CG        30.8600   14.0850   16.6130 C.3    33  LEU33       0.0019
      7  CD1       30.4490   15.5520   16.5130 C.3    33  LEU33       0.0001
      8  CD2       31.8060   13.7690   17.7850 C.3    33  LEU33       0.0001
      9  N         29.5780    7.7130   18.5070 N.3    36  ASN36      -0.1225
     10  CA        29.9480    7.8970   19.9000 C.3    36  ASN36       0.1785
     11  C         28.7590    7.9740   20.8010 C.2    36  ASN36       0.2597
     12  O         28.6780    7.2970   21.8210 O.2    36  ASN36      -0.2718
     13  CB        30.7510    9.1780   20.0510 C.3    36  ASN36       0.1169
     14  CG        32.2150    8.9560   19.7660 C.2    36  ASN36       0.2627
     15  OD1       33.0620    9.3280   20.5400 O.2    36  ASN36      -0.2716
     16  ND2       32.4980    8.2740   18.7100 N.am   36  ASN36      -0.0877
     17  N         27.8460    8.8320   20.4250 N.am   37  SER37      -0.1952
     18  CA        26.6080    8.9760   21.1240 C.3    37  SER37       0.1924
     19  C         25.8940    7.6280   21.2180 C.2    37  SER37       0.2314
     20  O         25.4210    7.2280   22.2800 O.2    37  SER37      -0.2863
     21  CB        25.7350    9.9610   20.3890 C.3    37  SER37       0.2116
     22  OG        26.1860   11.2790   20.5470 O.3    37  SER37      -0.2180
     23  N         27.2380    4.6330   21.1590 N.3    39  ASP39      -0.1225
     24  CA        27.9680    3.8390   22.0740 C.3    39  ASP39       0.1805
     25  C         27.7200    4.1780   23.5210 C.2    39  ASP39       0.2597
     26  O         27.6600    3.2970   24.3440 O.2    39  ASP39      -0.2718
     27  CB        29.4590    3.9030   21.7720 C.3    39  ASP39       0.1424
     28  CG        29.7880    3.3420   20.4390 C.2    39  ASP39       0.3668
     29  OD1       28.8850    2.7470   19.7570 O.co2  39  ASP39      -0.2456
     30  OD2       30.9390    3.5490   20.0250 O.co2  39  ASP39      -0.2456
     31  N         27.6560    5.4740   23.8270 N.am   40  ALA40      -0.1979
     32  CA        27.3160    5.9280   25.1710 C.3    40  ALA40       0.1597
     33  C         25.8570    5.6020   25.5090 C.2    40  ALA40       0.2287
     34  O         25.5410    5.2840   26.6180 O.2    40  ALA40      -0.2864
     35  CB        27.6420    7.4050   25.3080 C.3    40  ALA40       0.0319
     36  N         25.7690    1.9810   26.3040 N.3    43  LYS43      -0.1245
     37  CA        26.3830    1.8400   27.5790 C.3    43  LYS43       0.1561
     38  C         25.3950    2.1270   28.6630 C.2    43  LYS43       0.2260
     39  O         25.3160    1.3770   29.5870 O.2    43  LYS43      -0.2867
     40  CB        27.5590    2.8050   27.7350 C.3    43  LYS43       0.0271
     41  CG        28.9010    2.1540   27.8220 C.3    43  LYS43       0.0035
     42  CD        29.7940    2.8940   28.8250 C.3    43  LYS43       0.0206
     43  CE        30.6850    1.9860   29.6800 C.3    43  LYS43       0.1093
     44  NZ        32.0320    1.7440   29.0600 N.3    43  LYS43      -0.1314
     45  N         23.2310   13.4720   23.1650 N.3    78  ASP78      -0.1239
     46  CA        22.7440   12.1760   23.4480 C.3    78  ASP78       0.1674
     47  C         22.4000   12.1000   24.9250 C.2    78  ASP78       0.2266
     48  O         22.8970   12.8920   25.7630 O.2    78  ASP78      -0.2867
     49  CB        23.7390   11.1370   23.0350 C.3    78  ASP78       0.1410
     50  CG        24.9820   11.1770   23.8430 C.2    78  ASP78       0.3668
     51  OD1       24.9040   10.8940   25.0490 O.co2  78  ASP78      -0.2456
     52  OD2       26.0300   11.4320   23.2450 O.co2  78  ASP78      -0.2456
     53  N         25.4090    7.3910   28.5510 N.3    81  ILE81      -0.1231
     54  CA        25.9080    7.2470   29.8640 C.3    81  ILE81       0.1692
     55  C         26.5230    8.5470   30.4230 C.2    81  ILE81       0.2593
     56  O         26.6630    8.7030   31.6280 O.2    81  ILE81      -0.2718
     57  CB        26.8520    6.0280   29.9780 C.3    81  ILE81       0.0266
     58  CG1       27.0780    5.7390   31.4540 C.3    81  ILE81       0.0019
     59  CG2       28.1550    6.2280   29.2110 C.3    81  ILE81       0.0020
     60  CD1       27.6790    4.4290   31.6950 C.3    81  ILE81       0.0001
     61  N         26.9170    9.4670   29.5590 N.am   82  GLY82      -0.1942
     62  CA        27.6480   10.6010   30.0380 C.3    82  GLY82       0.2014
     63  C         29.0420   10.2550   30.4370 C.2    82  GLY82       0.2638
     64  O         29.4480    9.1250   30.4520 O.2    82  GLY82      -0.2714
     65  N         29.7800   11.2580   30.8000 N.am   83  MET83      -0.1976
     66  CA        31.1320   11.0420   31.1570 C.3    83  MET83       0.1605
     67  C         31.3830   11.7010   32.4780 C.2    83  MET83       0.2287
     68  O         30.8710   12.7900   32.7470 O.2    83  MET83      -0.2864
     69  CB        31.9780   11.6530   30.1000 C.3    83  MET83       0.0413
     70  CG        32.0430   10.7740   28.8820 C.3    83  MET83       0.0598
     71  SD        33.0520   11.4900   27.6450 S.3    83  MET83      -0.1393
     72  CE        31.9570   12.7480   27.0220 C.3    83  MET83       0.0692
     73  N         36.6890   10.4580   32.8630 N.3    87  ASP87      -0.1239
     74  CA        36.4950   10.1320   31.4850 C.3    87  ASP87       0.1674
     75  C         36.8010   11.2810   30.5590 C.2    87  ASP87       0.2266
     76  O         37.5020   11.0940   29.5870 O.2    87  ASP87      -0.2867
     77  CB        35.0570    9.7520   31.2250 C.3    87  ASP87       0.1410
     78  CG        34.6700    8.4860   31.8710 C.2    87  ASP87       0.3668
     79  OD1       35.4850    7.5130   31.8530 O.co2  87  ASP87      -0.2456
     80  OD2       33.5090    8.4600   32.3520 O.co2  87  ASP87      -0.2456
     81  N         37.7970   11.8690   26.8660 N.3    92  LEU92      -0.1231
     82  CA        36.3660   11.6480   26.7170 C.3    92  LEU92       0.1693
     83  C         36.0350   10.1460   26.6410 C.2    92  LEU92       0.2593
     84  O         35.2730    9.6670   25.7780 O.2    92  LEU92      -0.2718
     85  CB        35.8380   12.3630   25.4720 C.3    92  LEU92       0.0284
     86  CG        36.0920   13.8850   25.4580 C.3    92  LEU92       0.0019
     87  CD1       37.3770   14.1830   24.7550 C.3    92  LEU92       0.0001
     88  CD2       34.9790   14.5780   24.7350 C.3    92  LEU92       0.0001
     89  N         36.6070    9.4090   27.5790 N.am   93  GLY93      -0.1942
     90  CA        36.1800    8.0380   27.7520 C.3    93  GLY93       0.2014
     91  C         36.6900    7.0760   26.7100 C.2    93  GLY93       0.2639
     92  O         36.1190    6.0470   26.5310 O.2    93  GLY93      -0.2714
     93  N         37.7840    7.4100   26.0480 N.am   94  THR94      -0.1950
     94  CA        38.3600    6.5880   24.9850 C.3    94  THR94       0.1897
     95  C         39.7900    6.2500   25.2990 C.2    94  THR94       0.2313
     96  O         40.4080    6.8470   26.1710 O.2    94  THR94      -0.2863
     97  CB        38.3200    7.3090   23.6220 C.3    94  THR94       0.1794
     98  OG1       39.2580    8.3730   23.5980 O.3    94  THR94      -0.2208
     99  CG2       36.9180    7.8460   23.3690 C.3    94  THR94       0.0378
    100  N         35.7500   10.9220   17.7660 N.3   123  PHE123     -0.1241
    101  CA        35.3980   12.2500   18.3650 C.3   123  PHE123      0.1605
    102  C         36.2240   13.4070   17.7860 C.2   123  PHE123      0.2264
    103  O         35.6660   14.4960   17.5480 O.2   123  PHE123     -0.2867
    104  CB        35.5780   12.2570   19.8680 C.3   123  PHE123      0.0534
    105  CG        35.4160   13.5780   20.4620 C.ar  123  PHE123     -0.0203
    106  CD1       34.1600   14.1370   20.5690 C.ar  123  PHE123     -0.0042
    107  CD2       36.5240   14.3250   20.8470 C.ar  123  PHE123     -0.0042
    108  CE1       34.0110   15.4180   21.0740 C.ar  123  PHE123     -0.0003
    109  CE2       36.3700   15.5950   21.3710 C.ar  123  PHE123     -0.0003
    110  CZ        35.1010   16.1320   21.4700 C.ar  123  PHE123     -0.0000
    111  N         25.6490   13.4420   27.0440 N.3   169  THR169     -0.1218
    112  CA        26.6940   14.2370   26.5220 C.3   169  THR169      0.1862
    113  C         26.0960   15.0570   25.3580 C.2   169  THR169      0.2287
    114  O         25.2310   14.5890   24.5530 O.2   169  THR169     -0.2866
    115  CB        27.8090   13.3230   26.0430 C.3   169  THR169      0.1770
    116  OG1       28.3920   12.6650   27.1660 O.3   169  THR169     -0.2211
    117  CG2       28.8870   14.0280   25.2270 C.3   169  THR169      0.0375
    118  N         27.7140   17.5940   22.5620 N.3   171  VAL171     -0.1245
    119  CA        28.8820   18.0170   21.8780 C.3   171  VAL171      0.1561
    120  C         28.4870   19.2350   21.0470 C.2   171  VAL171      0.2260
    121  O         27.6310   19.1600   20.1640 O.2   171  VAL171     -0.2867
    122  CB        29.4020   16.8540   20.9950 C.3   171  VAL171      0.0252
    123  CG1       30.5410   17.3040   20.1590 C.3   171  VAL171      0.0019
    124  CG2       29.8450   15.7230   21.8940 C.3   171  VAL171      0.0019
@<TRIPOS>BOND
     1     1     2    1
     2     7     6    1
     3     6     5    1
     4     6     8    1
     5     5     2    1
     6     2     3    1
     7     3     4    2
     8   103   102    2
     9   100   101    1
    10   102   101    1
    11   101   104    1
    12     9    10    1
    13    16    14   am
    14    29    28   ar
    15    14    13    1
    16    14    15    2
    17   104   105    1
    18    10    13    1
    19    10    11    1
    20    30    28   ar
    21   123   122    1
    22   121   120    2
    23    21    22    1
    24    21    18    1
    25    17    11   am
    26    17    18    1
    27    28    27    1
    28   105   106   ar
    29   105   107   ar
    30   106   108   ar
    31    11    12    2
    32   107   109   ar
    33   122   119    1
    34   122   124    1
    35   120   119    1
    36   108   110   ar
    37    18    19    1
    38    23    24    1
    39    19    20    2
    40   109   110   ar
    41    27    24    1
    42   119   118    1
    43    24    25    1
    44    49    46    1
    45    49    50    1
    46    45    46    1
    47    52    50   ar
    48    99    97    1
    49    46    47    1
    50    25    31   am
    51    25    26    2
    52    98    97    1
    53    97    94    1
    54    31    32    1
    55    50    51   ar
    56   114   113    2
    57    88    86    1
    58    87    86    1
    59    47    48    2
    60    94    95    1
    61    94    93    1
    62    32    35    1
    63    32    33    1
    64   117   115    1
    65    95    96    2
    66   113   112    1
    67    86    85    1
    68    85    82    1
    69    33    34    2
    70    84    83    2
    71   115   112    1
    72   115   116    1
    73    93    91   am
    74    36    37    1
    75   112   111    1
    76    92    91    2
    77    83    82    1
    78    83    89   am
    79    91    90    1
    80    82    81    1
    81    72    71    1
    82    89    90    1
    83    37    40    1
    84    37    38    1
    85    71    70    1
    86    40    41    1
    87    41    42    1
    88    53    54    1
    89    38    39    2
    90    42    43    1
    91    70    69    1
    92    44    43    1
    93    59    57    1
    94    61    62    1
    95    61    55   am
    96    76    75    2
    97    54    57    1
    98    54    55    1
    99    57    58    1
   100    62    63    1
   101    69    66    1
   102    55    56    2
   103    63    64    2
   104    63    65   am
   105    75    74    1
   106    65    66    1
   107    66    67    1
   108    77    74    1
   109    77    78    1
   110    58    60    1
   111    74    73    1
   112    79    78   ar
   113    78    80   ar
   114    67    68    2
