@<TRIPOS>MOLECULE
tmp/5m4kA01.pdb
 121 109 0 0 0
SMALL
GASTEIGER

@<TRIPOS>ATOM
      1  N         40.9000  -39.7880   10.3900 N.3   229  LEU229     -0.1245
      2  CA        39.6310  -39.9190   11.0480 C.3   229  LEU229      0.1561
      3  C         39.6300  -39.2480   12.4150 C.2   229  LEU229      0.2260
      4  O         38.6470  -38.6100   12.7870 O.2   229  LEU229     -0.2867
      5  CB        39.2100  -41.3740   11.1100 C.3   229  LEU229      0.0270
      6  CG        38.8520  -41.9370    9.7380 C.3   229  LEU229      0.0019
      7  CD1       38.6110  -43.4430    9.8550 C.3   229  LEU229      0.0001
      8  CD2       37.6370  -41.2380    9.1460 C.3   229  LEU229      0.0001
      9  N         39.4410  -35.3880   12.0530 N.3   232  ASN232     -0.1225
     10  CA        38.1030  -34.9560   11.7260 C.3   232  ASN232      0.1785
     11  C         37.1620  -35.0000   12.8940 C.2   232  ASN232      0.2597
     12  O         36.3920  -34.0800   13.0930 O.2   232  ASN232     -0.2718
     13  CB        37.5150  -35.8610   10.6680 C.3   232  ASN232      0.1169
     14  CG        38.0610  -35.5750    9.2950 C.2   232  ASN232      0.2627
     15  OD1       38.5670  -34.4930    9.0210 O.2   232  ASN232     -0.2716
     16  ND2       37.9570  -36.5520    8.4150 N.am  232  ASN232     -0.0877
     17  N         37.2080  -36.0780   13.6660 N.am  233  ALA233     -0.1979
     18  CA        36.2420  -36.2630   14.7480 C.3   233  ALA233      0.1597
     19  C         36.5620  -35.4000   15.9470 C.2   233  ALA233      0.2287
     20  O         35.7330  -35.2260   16.8340 O.2   233  ALA233     -0.2864
     21  CB        36.1820  -37.7240   15.1580 C.3   233  ALA233      0.0319
     22  N         38.0940  -32.2650   15.4990 N.3   235  ARG235     -0.1231
     23  CA        37.7370  -30.9670   14.9880 C.3   235  ARG235      0.1694
     24  C         36.2580  -30.7350   15.1950 C.2   235  ARG235      0.2591
     25  O         35.8700  -29.7580   15.7850 O.2   235  ARG235     -0.2718
     26  CB        38.1240  -30.9000   13.5240 C.3   235  ARG235      0.0321
     27  CG        37.4360  -29.8200   12.7260 C.3   235  ARG235      0.0489
     28  CD        38.3370  -29.3150   11.5910 C.3   235  ARG235      0.2205
     29  NE        37.7120  -29.4970   10.2840 N.pl3 235  ARG235     -0.0865
     30  CZ        36.5460  -28.9570    9.9230 C.cat 235  ARG235      0.5346
     31  NH1       35.8680  -28.1800   10.7710 N.pl3 235  ARG235      0.1354
     32  NH2       36.0420  -29.2050    8.7110 N.pl3 235  ARG235      0.1354
     33  N         35.4470  -31.6700   14.7460 N.am  236  ALA236     -0.1980
     34  CA        34.0130  -31.5590   14.9090 C.3   236  ALA236      0.1597
     35  C         33.6220  -31.4980   16.3730 C.2   236  ALA236      0.2287
     36  O         32.8930  -30.6060   16.7880 O.2   236  ALA236     -0.2864
     37  CB        33.3290  -32.7420   14.2560 C.3   236  ALA236      0.0319
     38  N         34.5280  -27.9600   17.9000 N.3   239  GLU239     -0.1231
     39  CA        33.7170  -26.8270   17.4540 C.3   239  GLU239      0.1699
     40  C         32.2450  -26.9640   17.7430 C.2   239  GLU239      0.2592
     41  O         31.5780  -25.9690   18.0160 O.2   239  GLU239     -0.2718
     42  CB        33.9310  -26.5750   15.9850 C.3   239  GLU239      0.0402
     43  CG        35.3730  -26.1910   15.7740 C.3   239  GLU239      0.1161
     44  CD        35.7380  -26.1680   14.3550 C.2   239  GLU239      0.3649
     45  OE1       36.9100  -25.8340   14.0890 O.co2 239  GLU239     -0.2457
     46  OE2       34.8470  -26.4790   13.5300 O.co2 239  GLU239     -0.2457
     47  N         31.7410  -28.1930   17.7080 N.am  240  SER240     -0.1952
     48  CA        30.3600  -28.4210   18.0710 C.3   240  SER240      0.1924
     49  C         30.1160  -28.1320   19.5520 C.2   240  SER240      0.2314
     50  O         29.0260  -27.7240   19.8880 O.2   240  SER240     -0.2863
     51  CB        29.8940  -29.8280   17.6850 C.3   240  SER240      0.2116
     52  OG        30.3100  -30.8310   18.5980 O.3   240  SER240     -0.2180
     53  N         32.0060  -40.3590   17.3080 N.3   267  ASP267     -0.1239
     54  CA        32.1830  -39.0830   17.9350 C.3   267  ASP267      0.1674
     55  C         30.8650  -38.4140   18.0490 C.2   267  ASP267      0.2266
     56  O         29.9270  -38.7020   17.3090 O.2   267  ASP267     -0.2867
     57  CB        33.1360  -38.2270   17.1220 C.3   267  ASP267      0.1410
     58  CG        32.5160  -37.6900   15.8390 C.2   267  ASP267      0.3668
     59  OD1       31.5390  -36.9270   15.9370 O.co2 267  ASP267     -0.2456
     60  OD2       33.0200  -38.0180   14.7430 O.co2 267  ASP267     -0.2456
     61  N         30.3440  -35.1760   17.4870 N.3   269  GLY269     -0.1210
     62  CA        30.6130  -33.8470   16.9480 C.3   269  GLY269      0.1956
     63  C         29.4880  -33.0790   16.2780 C.2   269  GLY269      0.2612
     64  O         29.7600  -32.1430   15.5150 O.2   269  GLY269     -0.2717
     65  N         28.2330  -33.4440   16.5100 N.am  270  GLY270     -0.1942
     66  CA        27.1200  -32.7090   15.9030 C.3   270  GLY270      0.2014
     67  C         26.6900  -33.1220   14.5070 C.2   270  GLY270      0.2639
     68  O         25.7310  -32.5830   13.9650 O.2   270  GLY270     -0.2714
     69  N         27.4040  -34.0680   13.9140 N.am  271  GLY271     -0.1939
     70  CA        26.9590  -34.7060   12.7070 C.3   271  GLY271      0.2014
     71  C         27.0310  -33.8100   11.4920 C.2   271  GLY271      0.2638
     72  O         27.3620  -32.6040   11.5750 O.2   271  GLY271     -0.2714
     73  N         26.7090  -34.4520   10.3730 N.am  272  VAL272     -0.1977
     74  CA        26.7340  -33.8880    9.0480 C.3   272  VAL272      0.1596
     75  C         25.4690  -34.3950    8.3530 C.2   272  VAL272      0.2287
     76  O         25.1410  -35.5690    8.4910 O.2   272  VAL272     -0.2864
     77  CB        27.9600  -34.4160    8.3150 C.3   272  VAL272      0.0276
     78  CG1       27.8080  -34.2780    6.8080 C.3   272  VAL272      0.0022
     79  CG2       29.2010  -33.6940    8.8120 C.3   272  VAL272      0.0022
     80  N         32.1540  -35.0990    0.8840 N.3   280  LEU280     -0.1245
     81  CA        33.3620  -35.2770    1.6950 C.3   280  LEU280      0.1561
     82  C         34.3710  -36.2150    1.0460 C.2   280  LEU280      0.2260
     83  O         35.5990  -36.0400    1.2020 O.2   280  LEU280     -0.2867
     84  CB        33.0070  -35.7610    3.1230 C.3   280  LEU280      0.0270
     85  CG        32.2180  -34.8060    4.0450 C.3   280  LEU280      0.0019
     86  CD1       31.9780  -35.4050    5.4160 C.3   280  LEU280      0.0001
     87  CD2       32.9100  -33.4540    4.1850 C.3   280  LEU280      0.0001
     88  N         35.6650  -31.1660   -2.4970 N.3   286  SER286     -0.1217
     89  CA        36.4780  -30.7590   -1.3730 C.3   286  SER286      0.1889
     90  C         37.8210  -30.1800   -1.8440 C.2   286  SER286      0.2288
     91  O         38.8340  -30.4120   -1.2180 O.2   286  SER286     -0.2866
     92  CB        36.6440  -31.9430   -0.4120 C.3   286  SER286      0.2089
     93  OG        37.2540  -33.0190   -1.0640 O.3   286  SER286     -0.2183
     94  N         39.5560  -37.9380    3.5360 N.3   292  LEU292     -0.1245
     95  CA        38.7790  -39.1580    3.4830 C.3   292  LEU292      0.1561
     96  C         38.9830  -39.9810    2.2140 C.2   292  LEU292      0.2260
     97  O         39.1320  -41.2110    2.3060 O.2   292  LEU292     -0.2867
     98  CB        37.3130  -38.7980    3.5730 C.3   292  LEU292      0.0270
     99  CG        36.8840  -38.3970    4.9600 C.3   292  LEU292      0.0019
    100  CD1       35.8100  -37.3280    4.9420 C.3   292  LEU292      0.0001
    101  CD2       36.3940  -39.6340    5.6860 C.3   292  LEU292      0.0001
    102  N         31.1940  -43.9690    6.1570 N.3   308  LEU308     -0.1245
    103  CA        30.7320  -42.9100    7.0240 C.3   308  LEU308      0.1561
    104  C         29.2390  -42.9980    7.1720 C.2   308  LEU308      0.2260
    105  O         28.5600  -42.9790    6.1730 O.2   308  LEU308     -0.2867
    106  CB        30.9940  -41.5590    6.3800 C.3   308  LEU308      0.0270
    107  CG        32.2490  -40.7490    6.6730 C.3   308  LEU308      0.0019
    108  CD1       31.8630  -39.2730    6.6960 C.3   308  LEU308      0.0001
    109  CD2       32.9020  -41.1120    7.9850 C.3   308  LEU308      0.0001
    110  N         29.0750  -38.6310   14.3120 N.3   316  THR316     -0.1218
    111  CA        29.3900  -39.4420   13.1530 C.3   316  THR316      0.1862
    112  C         30.1680  -40.7020   13.5500 C.2   316  THR316      0.2287
    113  O         31.0930  -40.6560   14.3790 O.2   316  THR316     -0.2866
    114  CB        30.2180  -38.6620   12.1190 C.3   316  THR316      0.1770
    115  OG1       29.5650  -37.4430   11.7730 O.3   316  THR316     -0.2211
    116  CG2       30.3690  -39.4780   10.8690 C.3   316  THR316      0.0375
    117  N         32.5670  -43.5410   11.8400 N.3   318  ALA318     -0.1245
    118  CA        33.3740  -43.8580   10.6610 C.3   318  ALA318      0.1562
    119  C         33.9580  -45.2460   10.8260 C.2   318  ALA318      0.2260
    120  O         34.5330  -45.5490   11.8520 O.2   318  ALA318     -0.2867
    121  CB        34.4750  -42.8420   10.4910 C.3   318  ALA318      0.0290
@<TRIPOS>BOND
     1    88    89    1
     2    90    89    1
     3    90    91    2
     4    89    92    1
     5    93    92    1
     6    80    81    1
     7    82    83    2
     8    82    81    1
     9    81    84    1
    10    96    97    2
    11    96    95    1
    12    84    85    1
    13    95    94    1
    14    95    98    1
    15    98    99    1
    16    85    87    1
    17    85    86    1
    18   100    99    1
    19    99   101    1
    20   102   103    1
    21   105   104    2
    22   106   107    1
    23   106   103    1
    24   107   108    1
    25   107   109    1
    26    78    77    1
    27   103   104    1
    28    77    79    1
    29    77    74    1
    30    75    76    2
    31    75    74    1
    32    16    14   am
    33    32    30    1
    34    15    14    2
    35    74    73    1
    36     8     6    1
    37    14    13    1
    38     6     7    1
    39     6     5    1
    40    30    29    2
    41    30    31    1
    42    29    28    1
    43    73    71   am
    44     1     2    1
    45   121   118    1
    46   118   119    1
    47   118   117    1
    48    13    10    1
    49   119   120    2
    50   116   114    1
    51     2     5    1
    52     2     3    1
    53    71    72    2
    54    71    70    1
    55    28    27    1
    56    10     9    1
    57    10    11    1
    58   115   114    1
    59   114   111    1
    60     3     4    2
    61    70    69    1
    62    27    26    1
    63    11    12    2
    64    11    17   am
    65   111   112    1
    66   111   110    1
    67    26    23    1
    68    46    44   ar
    69   112   113    2
    70    17    18    1
    71    69    67   am
    72    68    67    2
    73    45    44   ar
    74    37    34    1
    75    44    43    1
    76    67    66    1
    77    60    58   ar
    78    33    34    1
    79    33    24   am
    80    18    21    1
    81    18    19    1
    82    34    35    1
    83    23    24    1
    84    23    22    1
    85    24    25    2
    86    64    63    2
    87    43    42    1
    88    58    59   ar
    89    58    57    1
    90    66    65    1
    91    19    20    2
    92    42    39    1
    93    63    65   am
    94    63    62    1
    95    35    36    2
    96    62    61    1
    97    57    54    1
    98    53    54    1
    99    56    55    2
   100    39    40    1
   101    39    38    1
   102    51    48    1
   103    51    52    1
   104    47    40   am
   105    47    48    1
   106    40    41    2
   107    54    55    1
   108    48    49    1
   109    49    50    2
