@<TRIPOS>MOLECULE
tmp/5m4lA00.pdb
 109 103 0 0 0
SMALL
GASTEIGER

@<TRIPOS>ATOM
      1  N         20.9350   33.2320   75.3500 N.3   236  TYR236     -0.1227
      2  CA        20.5010   33.5100   76.7280 C.3   236  TYR236      0.1736
      3  C         19.1230   32.8710   76.8670 C.2   236  TYR236      0.2596
      4  O         18.5010   32.5180   75.8720 O.2   236  TYR236     -0.2718
      5  CB        20.4260   35.0150   77.0220 C.3   236  TYR236      0.0548
      6  CG        19.6480   35.7390   75.9550 C.ar  236  TYR236     -0.0200
      7  CD1       20.2610   36.1090   74.7580 C.ar  236  TYR236     -0.0009
      8  CD2       18.2910   36.0290   76.1260 C.ar  236  TYR236     -0.0009
      9  CE1       19.5550   36.7480   73.7560 C.ar  236  TYR236      0.0417
     10  CE2       17.5650   36.6600   75.1270 C.ar  236  TYR236      0.0417
     11  CZ        18.2100   37.0250   73.9450 C.ar  236  TYR236      0.1957
     12  OH        17.5250   37.6810   72.9290 O.3   236  TYR236     -0.2866
     13  N         18.6570   32.7170   78.0910 N.am  237  THR237     -0.1953
     14  CA        17.3210   32.1590   78.3200 C.3   237  THR237      0.1897
     15  C         16.2560   33.0790   77.7210 C.2   237  THR237      0.2313
     16  O         16.2070   34.2800   77.9990 O.2   237  THR237     -0.2863
     17  CB        17.0710   31.9670   79.8130 C.3   237  THR237      0.1794
     18  OG1       18.0460   31.0620   80.3360 O.3   237  THR237     -0.2208
     19  CG2       15.6830   31.3810   80.0620 C.3   237  THR237      0.0378
     20  N         13.1120   35.2020   76.9570 N.3   239  ILE239     -0.1245
     21  CA        12.2540   36.0700   77.7400 C.3   239  ILE239      0.1561
     22  C         10.9400   36.1990   76.9680 C.2   239  ILE239      0.2260
     23  O         10.9030   36.8580   75.9210 O.2   239  ILE239     -0.2867
     24  CB        12.8950   37.4640   77.9490 C.3   239  ILE239      0.0252
     25  CG1       14.2520   37.3540   78.6860 C.3   239  ILE239      0.0019
     26  CG2       11.9250   38.4100   78.6710 C.3   239  ILE239      0.0019
     27  CD1       15.1390   38.5970   78.5520 C.3   239  ILE239      0.0001
     28  N         14.2280   40.5790   82.7950 N.3   250  HIS250     -0.1241
     29  CA        14.8500   39.2640   82.5280 C.3   250  HIS250      0.1621
     30  C         13.8840   38.1450   82.9050 C.2   250  HIS250      0.2264
     31  O         14.2900   37.0690   83.3680 O.2   250  HIS250     -0.2867
     32  CB        16.1600   39.0830   83.3070 C.3   250  HIS250      0.0745
     33  CG        17.2950   39.9200   82.8030 C.ar  250  HIS250      0.0817
     34  ND1       18.5520   39.8670   83.3680 N.ar  250  HIS250     -0.2268
     35  CD2       17.3740   40.8080   81.7820 C.ar  250  HIS250      0.1154
     36  CE1       19.3530   40.7070   82.7330 C.ar  250  HIS250      0.1986
     37  NE2       18.6650   41.2880   81.7640 N.ar  250  HIS250     -0.2212
     38  N         12.0210   38.5440   73.9270 N.3   271  ASP271     -0.1239
     39  CA        13.4330   38.8450   73.7800 C.3   271  ASP271      0.1674
     40  C         14.1260   37.5020   73.6900 C.2   271  ASP271      0.2266
     41  O         14.2170   36.7740   74.6890 O.2   271  ASP271     -0.2867
     42  CB        13.9000   39.6860   74.9760 C.3   271  ASP271      0.1410
     43  CG        15.3360   40.1190   74.8950 C.2   271  ASP271      0.3668
     44  OD1       16.0940   39.5530   74.0860 O.co2 271  ASP271     -0.2456
     45  OD2       15.6910   41.0310   75.6820 O.co2 271  ASP271     -0.2456
     46  N         20.5730   38.7090   69.5330 N.3   282  ASP282     -0.1239
     47  CA        19.7760   39.2390   70.6540 C.3   282  ASP282      0.1674
     48  C         18.7330   40.1930   70.1020 C.2   282  ASP282      0.2266
     49  O         19.0450   41.3180   69.7830 O.2   282  ASP282     -0.2867
     50  CB        20.6840   39.9410   71.6610 C.3   282  ASP282      0.1410
     51  CG        19.9770   40.3500   72.9460 C.2   282  ASP282      0.3668
     52  OD1       18.7620   40.1730   73.0800 O.co2 282  ASP282     -0.2456
     53  OD2       20.6690   40.8900   73.8270 O.co2 282  ASP282     -0.2456
     54  N         24.2960   47.2430   74.4310 N.3   365  HIS365     -0.1241
     55  CA        25.5590   46.6810   74.8620 C.3   365  HIS365      0.1621
     56  C         26.2940   46.0440   73.6950 C.2   365  HIS365      0.2264
     57  O         25.6770   45.6930   72.6630 O.2   365  HIS365     -0.2867
     58  CB        25.2890   45.6170   75.9520 C.3   365  HIS365      0.0745
     59  CG        24.2960   44.5780   75.5390 C.ar  365  HIS365      0.0817
     60  ND1       24.6280   43.4900   74.7570 N.ar  365  HIS365     -0.2268
     61  CD2       22.9730   44.4520   75.8100 C.ar  365  HIS365      0.1154
     62  CE1       23.5500   42.7540   74.5490 C.ar  365  HIS365      0.1986
     63  NE2       22.5330   43.3090   75.1850 N.ar  365  HIS365     -0.2212
     64  N         26.4620   37.3210   74.5890 N.3   371  VAL371     -0.1231
     65  CA        25.3930   38.2810   74.3190 C.3   371  VAL371      0.1692
     66  C         25.7190   39.6230   74.9730 C.2   371  VAL371      0.2592
     67  O         25.5330   40.6740   74.3390 O.2   371  VAL371     -0.2718
     68  CB        24.0000   37.7340   74.7710 C.3   371  VAL371      0.0266
     69  CG1       23.9500   37.3550   76.2420 C.3   371  VAL371      0.0020
     70  CG2       22.9120   38.7380   74.4800 C.3   371  VAL371      0.0020
     71  N         26.1980   39.5950   76.2110 N.am  372  HIS372     -0.1976
     72  CA        26.7830   40.7910   76.8340 C.3   372  HIS372      0.1656
     73  C         28.2850   40.6990   76.6390 C.2   372  HIS372      0.2291
     74  O         29.0150   40.1230   77.4580 O.2   372  HIS372     -0.2864
     75  CB        26.4430   40.9080   78.3180 C.3   372  HIS372      0.0771
     76  CG        24.9860   41.1240   78.5610 C.ar  372  HIS372      0.0820
     77  ND1       24.3960   40.9500   79.7900 N.ar  372  HIS372     -0.2267
     78  CD2       24.0070   41.5350   77.7220 C.ar  372  HIS372      0.1154
     79  CE1       23.1020   41.2150   79.6910 C.ar  372  HIS372      0.1986
     80  NE2       22.8440   41.5850   78.4500 N.ar  372  HIS372     -0.2212
     81  N         18.3850   48.9270   72.1440 N.3   407  GLU407     -0.1245
     82  CA        17.2080   48.3600   72.7590 C.3   407  GLU407      0.1567
     83  C         16.5430   49.2910   73.7560 C.2   407  GLU407      0.2260
     84  O         16.3760   48.9660   74.9360 O.2   407  GLU407     -0.2867
     85  CB        17.5560   47.0290   73.4170 C.3   407  GLU407      0.0388
     86  CG        18.6980   47.0510   74.4240 C.3   407  GLU407      0.1160
     87  CD        18.9430   45.6820   75.0290 C.2   407  GLU407      0.3649
     88  OE1       17.9660   45.0150   75.4280 O.co2 407  GLU407     -0.2457
     89  OE2       20.1190   45.2610   75.0360 O.co2 407  GLU407     -0.2457
     90  N          9.7880   46.8680   74.3820 N.3   445  ARG445     -0.1245
     91  CA        11.2030   46.9890   74.0490 C.3   445  ARG445      0.1563
     92  C         11.3690   46.5880   72.5970 C.2   445  ARG445      0.2260
     93  O         10.7770   45.6010   72.1360 O.2   445  ARG445     -0.2867
     94  CB        12.0750   46.1260   74.9690 C.3   445  ARG445      0.0307
     95  CG        13.5170   46.1530   74.6030 C.3   445  ARG445      0.0489
     96  CD        14.4590   45.5770   75.6870 C.3   445  ARG445      0.2205
     97  NE        14.3230   44.1610   76.0160 N.pl3 445  ARG445     -0.0865
     98  CZ        13.7920   43.6520   77.1170 C.cat 445  ARG445      0.5346
     99  NH1       13.1940   44.4060   78.0330 N.pl3 445  ARG445      0.1354
    100  NH2       13.8230   42.3430   77.2930 N.pl3 445  ARG445      0.1354
    101  N         14.4150   45.8180   70.0940 N.3   447  GLU447     -0.1245
    102  CA        15.8520   45.5710   70.1120 C.3   447  GLU447      0.1567
    103  C         16.3480   45.0800   68.7670 C.2   447  GLU447      0.2260
    104  O         15.9460   44.0140   68.2750 O.2   447  GLU447     -0.2867
    105  CB        16.2230   44.5820   71.2120 C.3   447  GLU447      0.0388
    106  CG        17.7080   44.1610   71.1670 C.3   447  GLU447      0.1160
    107  CD        18.0890   43.2130   72.2760 C.2   447  GLU447      0.3649
    108  OE1       17.2530   42.3720   72.6710 O.co2 447  GLU447     -0.2457
    109  OE2       19.2260   43.3330   72.7590 O.co2 447  GLU447     -0.2457
@<TRIPOS>BOND
     1   104   103    2
     2   103   102    1
     3    46    47    1
     4    49    48    2
     5   101   102    1
     6    48    47    1
     7   102   105    1
     8    47    50    1
     9   106   105    1
    10   106   107    1
    11    50    51    1
    12    93    92    2
    13    81    82    1
    14   107   108   ar
    15   107   109   ar
    16    92    91    1
    17    57    56    2
    18    82    85    1
    19    82    83    1
    20    12    11    1
    21    51    52   ar
    22    51    53   ar
    23    85    86    1
    24    40    39    1
    25    40    41    2
    26    56    55    1
    27     9    11   ar
    28     9     7   ar
    29    83    84    2
    30    39    38    1
    31    39    42    1
    32    11    10   ar
    33    91    90    1
    34    91    94    1
    35    44    43   ar
    36    65    64    1
    37    65    68    1
    38    65    66    1
    39    67    66    2
    40    86    87    1
    41    54    55    1
    42    70    68    1
    43    62    60   ar
    44    62    63   ar
    45    95    94    1
    46    95    96    1
    47    60    59   ar
    48     7     6   ar
    49    68    69    1
    50    55    58    1
    51    43    42    1
    52    43    45   ar
    53    66    71   am
    54    87    89   ar
    55    87    88   ar
    56    10     8   ar
    57    63    61   ar
    58     1     2    1
    59    59    61   ar
    60    59    58    1
    61    96    97    1
    62     4     3    2
    63    23    22    2
    64     6     8   ar
    65     6     5    1
    66    97    98    2
    67    71    72    1
    68    73    72    1
    69    73    74    2
    70     2     3    1
    71     2     5    1
    72    72    75    1
    73     3    13   am
    74    20    21    1
    75    22    21    1
    76    98   100    1
    77    98    99    1
    78    15    16    2
    79    15    14    1
    80    78    80   ar
    81    78    76   ar
    82    21    24    1
    83    24    26    1
    84    24    25    1
    85    13    14    1
    86    75    76    1
    87    14    17    1
    88    80    79   ar
    89    27    25    1
    90    76    77   ar
    91    79    77   ar
    92    17    19    1
    93    17    18    1
    94    37    35   ar
    95    37    36   ar
    96    35    33   ar
    97    29    28    1
    98    29    30    1
    99    29    32    1
   100    36    34   ar
   101    33    32    1
   102    33    34   ar
   103    30    31    2
