@<TRIPOS>MOLECULE
tmp/5m4mA00.pdb
 189 178 0 0 0
SMALL
GASTEIGER

@<TRIPOS>ATOM
      1  N         40.2080  -38.4990  -10.3810 N.3   231  LEU231     -0.1245
      2  CA        39.4900  -39.5980  -10.9840 C.3   231  LEU231      0.1561
      3  C         40.0960  -39.9500  -12.3340 C.2   231  LEU231      0.2260
      4  O         40.4130  -41.1130  -12.5870 O.2   231  LEU231     -0.2867
      5  CB        38.0090  -39.2850  -11.0510 C.3   231  LEU231      0.0270
      6  CG        37.3200  -39.2810   -9.6690 C.3   231  LEU231      0.0019
      7  CD1       35.9510  -38.6020   -9.7950 C.3   231  LEU231      0.0001
      8  CD2       37.2040  -40.6790   -9.0440 C.3   231  LEU231      0.0001
      9  N         43.1870  -42.0400  -11.9550 N.3   234  ASN234     -0.1225
     10  CA        42.9280  -43.4490  -11.6150 C.3   234  ASN234      0.1785
     11  C         42.3970  -44.2160  -12.8010 C.2   234  ASN234      0.2597
     12  O         42.7590  -45.3720  -13.0300 O.2   234  ASN234     -0.2718
     13  CB        41.8990  -43.5750  -10.4720 C.3   234  ASN234      0.1169
     14  CG        42.4120  -43.0560   -9.1280 C.2   234  ASN234      0.2627
     15  OD1       43.6250  -42.9760   -8.8790 O.2   234  ASN234     -0.2716
     16  ND2       41.4710  -42.7050   -8.2420 N.am  234  ASN234     -0.0877
     17  N         41.5000  -43.5820  -13.5320 N.am  235  ALA235     -0.1979
     18  CA        40.8630  -44.2710  -14.6260 C.3   235  ALA235      0.1597
     19  C         41.9260  -44.4630  -15.7160 C.2   235  ALA235      0.2287
     20  O         41.9200  -45.4780  -16.4240 O.2   235  ALA235     -0.2864
     21  CB        39.6070  -43.5290  -15.1170 C.3   235  ALA235      0.0319
     22  N         45.3470  -44.8460  -15.1350 N.3   237  ARG237     -0.1231
     23  CA        46.1850  -45.9530  -14.6720 C.3   237  ARG237      0.1694
     24  C         45.5150  -47.2320  -15.0470 C.2   237  ARG237      0.2591
     25  O         46.1380  -48.1090  -15.6160 O.2   237  ARG237     -0.2718
     26  CB        46.4300  -45.9480  -13.1540 C.3   237  ARG237      0.0321
     27  CG        46.9950  -47.2800  -12.6150 C.3   237  ARG237      0.0489
     28  CD        47.9380  -47.1610  -11.4030 C.3   237  ARG237      0.2205
     29  NE        47.2590  -47.5350  -10.1670 N.pl3 237  ARG237     -0.0865
     30  CZ        47.5550  -48.5690   -9.3830 C.cat 237  ARG237      0.5346
     31  NH1       48.5490  -49.3950   -9.6670 N.pl3 237  ARG237      0.1354
     32  NH2       46.8230  -48.8030   -8.2820 N.pl3 237  ARG237      0.1354
     33  N         44.2370  -47.3380  -14.7360 N.am  238  ALA238     -0.1980
     34  CA        43.5930  -48.6310  -14.8480 C.3   238  ALA238      0.1597
     35  C         43.4240  -49.0100  -16.2880 C.2   238  ALA238      0.2287
     36  O         43.7090  -50.1420  -16.6900 O.2   238  ALA238     -0.2864
     37  CB        42.2530  -48.6450  -14.1330 C.3   238  ALA238      0.0319
     38  N         47.0210  -49.8810  -17.7640 N.3   241  GLU241     -0.1231
     39  CA        47.6990  -51.0630  -17.2340 C.3   241  GLU241      0.1699
     40  C         46.9570  -52.3610  -17.5490 C.2   241  GLU241      0.2592
     41  O         47.5840  -53.4300  -17.7080 O.2   241  GLU241     -0.2718
     42  CB        47.9390  -50.9640  -15.7160 C.3   241  GLU241      0.0402
     43  CG        48.9080  -49.8620  -15.3100 C.3   241  GLU241      0.1161
     44  CD        49.4340  -50.0060  -13.8950 C.2   241  GLU241      0.3649
     45  OE1       50.1400  -49.0910  -13.4370 O.co2 241  GLU241     -0.2457
     46  OE2       49.1670  -51.0390  -13.2500 O.co2 241  GLU241     -0.2457
     47  N         45.6320  -52.2720  -17.6550 N.am  242  SER242     -0.1952
     48  CA        44.8330  -53.4480  -17.8920 C.3   242  SER242      0.1924
     49  C         44.9230  -53.8850  -19.3500 C.2   242  SER242      0.2314
     50  O         44.4430  -54.9440  -19.7160 O.2   242  SER242     -0.2863
     51  CB        43.3880  -53.1790  -17.4890 C.3   242  SER242      0.2116
     52  OG        42.7100  -52.3500  -18.4120 O.3   242  SER242     -0.2180
     53  N         32.3780  -40.7850  -14.5430 N.3   267  MET267     -0.1245
     54  CA        33.5610  -41.0470  -15.3200 C.3   267  MET267      0.1570
     55  C         33.6660  -42.5500  -15.3950 C.2   267  MET267      0.2261
     56  O         33.9690  -43.1920  -14.4220 O.2   267  MET267     -0.2867
     57  CB        34.7960  -40.4520  -14.6620 C.3   267  MET267      0.0387
     58  CG        36.0730  -40.8010  -15.3890 C.3   267  MET267      0.0595
     59  SD        37.5480  -40.1680  -14.6060 S.3   267  MET267     -0.1393
     60  CE        37.1100  -38.4370  -14.4240 C.3   267  MET267      0.0692
     61  N         35.2940  -45.9530  -16.9860 N.3   269  ASP269     -0.1239
     62  CA        36.4760  -46.5330  -17.6560 C.3   269  ASP269      0.1674
     63  C         36.2660  -48.0080  -17.8840 C.2   269  ASP269      0.2266
     64  O         35.3730  -48.6140  -17.2660 O.2   269  ASP269     -0.2867
     65  CB        37.7740  -46.3200  -16.8510 C.3   269  ASP269      0.1410
     66  CG        37.7940  -47.0640  -15.5080 C.2   269  ASP269      0.3668
     67  OD1       37.7690  -48.3160  -15.4540 O.co2 269  ASP269     -0.2456
     68  OD2       37.8340  -46.3730  -14.4930 O.co2 269  ASP269     -0.2456
     69  N         38.8350  -50.2760  -17.2440 N.3   271  GLY271     -0.1210
     70  CA        40.1190  -50.7250  -16.6840 C.3   271  GLY271      0.1956
     71  C         40.1770  -52.0940  -16.0520 C.2   271  GLY271      0.2612
     72  O         41.1840  -52.4620  -15.4360 O.2   271  GLY271     -0.2717
     73  N         39.0910  -52.8420  -16.1620 N.am  272  GLY272     -0.1942
     74  CA        39.0220  -54.2100  -15.5980 C.3   272  GLY272      0.2014
     75  C         38.4740  -54.2800  -14.2030 C.2   272  GLY272      0.2639
     76  O         38.2860  -55.3490  -13.6610 O.2   272  GLY272     -0.2714
     77  N         38.2700  -53.1220  -13.6010 N.am  273  GLY273     -0.1939
     78  CA        37.4850  -53.0060  -12.3990 C.3   273  GLY273      0.2014
     79  C         38.2630  -53.4020  -11.1660 C.2   273  GLY273      0.2638
     80  O         39.4730  -53.6940  -11.2360 O.2   273  GLY273     -0.2714
     81  N         37.5230  -53.3800  -10.0530 N.am  274  VAL274     -0.1977
     82  CA        37.9300  -53.8340   -8.7320 C.3   274  VAL274      0.1596
     83  C         36.8160  -54.7750   -8.2100 C.2   274  VAL274      0.2287
     84  O         35.6360  -54.4630   -8.3990 O.2   274  VAL274     -0.2864
     85  CB        37.9760  -52.6440   -7.7630 C.3   274  VAL274      0.0276
     86  CG1       38.6150  -53.0800   -6.4640 C.3   274  VAL274      0.0022
     87  CG2       38.7080  -51.4460   -8.3520 C.3   274  VAL274      0.0022
     88  N         39.6440  -48.4490   -0.9000 N.3   282  LEU282     -0.1245
     89  CA        40.0910  -47.3500   -1.7190 C.3   282  LEU282      0.1561
     90  C         39.8300  -46.0040   -1.0940 C.2   282  LEU282      0.2260
     91  O         40.4450  -45.0350   -1.4820 O.2   282  LEU282     -0.2867
     92  CB        39.4140  -47.3950   -3.0960 C.3   282  LEU282      0.0270
     93  CG        39.8140  -48.5620   -4.0120 C.3   282  LEU282      0.0019
     94  CD1       38.8480  -48.6740   -5.1780 C.3   282  LEU282      0.0001
     95  CD2       41.2400  -48.4520   -4.5200 C.3   282  LEU282      0.0001
     96  N         44.5290  -47.7040    4.6350 N.3   287  TYR287     -0.1227
     97  CA        44.9170  -48.7940    3.7110 C.3   287  TYR287      0.1736
     98  C         45.6600  -48.2010    2.5480 C.2   287  TYR287      0.2596
     99  O         46.5220  -48.8610    1.9790 O.2   287  TYR287     -0.2718
    100  CB        43.7470  -49.6950    3.2530 C.3   287  TYR287      0.0548
    101  CG        43.1020  -50.5400    4.3720 C.ar  287  TYR287     -0.0200
    102  CD1       43.8340  -51.4870    5.0980 C.ar  287  TYR287     -0.0009
    103  CD2       41.7410  -50.3910    4.7020 C.ar  287  TYR287     -0.0009
    104  CE1       43.2290  -52.2440    6.1270 C.ar  287  TYR287      0.0417
    105  CE2       41.1350  -51.1310    5.7290 C.ar  287  TYR287      0.0417
    106  CZ        41.8650  -52.0620    6.4360 C.ar  287  TYR287      0.1957
    107  OH        41.2260  -52.7850    7.4340 O.3   287  TYR287     -0.2866
    108  N         45.3840  -46.9280    2.2630 N.am  288  SER288     -0.1938
    109  CA        46.0890  -46.1930    1.2280 C.3   288  SER288      0.2055
    110  C         47.1850  -45.2790    1.8210 C.2   288  SER288      0.2644
    111  O         47.4250  -44.1490    1.3480 O.2   288  SER288     -0.2714
    112  CB        45.0610  -45.4400    0.3640 C.3   288  SER288      0.2130
    113  OG        44.6220  -44.2880    1.0060 O.3   288  SER288     -0.2179
    114  N         47.8390  -45.7900    2.8690 N.am  289  THR289     -0.1936
    115  CA        49.0580  -45.1960    3.4480 C.3   289  THR289      0.2028
    116  C         50.1840  -46.2560    3.4490 C.2   289  THR289      0.2642
    117  O         49.9610  -47.4230    3.8160 O.2   289  THR289     -0.2714
    118  CB        48.8360  -44.6840    4.8950 C.3   289  THR289      0.1808
    119  OG1       47.5950  -43.9790    4.9890 O.3   289  THR289     -0.2208
    120  CG2       49.9830  -43.7420    5.3120 C.3   289  THR289      0.0379
    121  N         51.3790  -45.8310    3.0380 N.am  290  ALA290     -0.1977
    122  CA        52.5310  -46.7220    2.8480 C.3   290  ALA290      0.1597
    123  C         53.8380  -45.9350    3.0660 C.2   290  ALA290      0.2287
    124  O         53.8180  -44.6970    3.0430 O.2   290  ALA290     -0.2864
    125  CB        52.4850  -47.3530    1.4480 C.3   290  ALA290      0.0319
    126  N         49.6900  -42.9820  -10.4280 N.3   294  ALA294     -0.1231
    127  CA        48.9070  -43.2420   -9.2430 C.3   294  ALA294      0.1694
    128  C         49.4260  -44.5040   -8.4400 C.2   294  ALA294      0.2593
    129  O         50.4090  -45.1380   -8.8370 O.2   294  ALA294     -0.2718
    130  CB        47.4380  -43.3220   -9.6390 C.3   294  ALA294      0.0304
    131  N         48.7660  -44.8280   -7.3180 N.am  295  GLY295     -0.1942
    132  CA        49.3180  -45.5980   -6.1690 C.3   295  GLY295      0.2014
    133  C         49.6260  -44.5700   -5.0580 C.2   295  GLY295      0.2639
    134  O         50.2010  -44.9150   -4.0190 O.2   295  GLY295     -0.2714
    135  N         49.1160  -43.3360   -5.2730 N.am  296  PHE296     -0.1959
    136  CA        49.5440  -42.0150   -4.7360 C.3   296  PHE296      0.1771
    137  C         48.5090  -41.5240   -3.6710 C.2   296  PHE296      0.2620
    138  O         47.4850  -40.8960   -4.0420 O.2   296  PHE296     -0.2715
    139  CB        49.5180  -41.0050   -5.9360 C.3   296  PHE296      0.0574
    140  CG        50.7930  -40.2360   -6.1740 C.ar  296  PHE296     -0.0200
    141  CD1       51.9190  -40.8800   -6.6810 C.ar  296  PHE296     -0.0042
    142  CD2       50.8380  -38.8380   -5.9800 C.ar  296  PHE296     -0.0042
    143  CE1       53.0940  -40.1630   -6.9330 C.ar  296  PHE296     -0.0003
    144  CE2       52.0020  -38.1190   -6.2240 C.ar  296  PHE296     -0.0003
    145  CZ        53.1340  -38.7820   -6.7010 C.ar  296  PHE296     -0.0000
    146  N         48.7850  -41.7560   -2.3780 N.am  297  GLY297     -0.1940
    147  CA        47.7790  -41.6640   -1.2840 C.3   297  GLY297      0.2014
    148  C         46.9090  -40.4060   -1.1040 C.2   297  GLY297      0.2638
    149  O         47.4110  -39.2680   -1.1480 O.2   297  GLY297     -0.2714
    150  N         45.5960  -40.6500   -0.9630 N.am  298  TYR298     -0.1973
    151  CA        44.5480  -39.7730   -0.3330 C.3   298  TYR298      0.1639
    152  C         43.5970  -39.0590   -1.2740 C.2   298  TYR298      0.2290
    153  O         42.5340  -38.5990   -0.8530 O.2   298  TYR298     -0.2864
    154  CB        45.0490  -38.8040    0.7790 C.3   298  TYR298      0.0560
    155  CG        45.5850  -39.4530    2.0630 C.ar  298  TYR298     -0.0198
    156  CD1       45.7410  -40.8380    2.1730 C.ar  298  TYR298     -0.0009
    157  CD2       46.0180  -38.6720    3.1520 C.ar  298  TYR298     -0.0009
    158  CE1       46.2780  -41.4200    3.3050 C.ar  298  TYR298      0.0417
    159  CE2       46.5610  -39.2630    4.3000 C.ar  298  TYR298      0.0417
    160  CZ        46.6860  -40.6470    4.3580 C.ar  298  TYR298      0.1957
    161  OH        47.2090  -41.3200    5.4330 O.3   298  TYR298     -0.2866
    162  N         41.3390  -40.0010   -3.4190 N.3   300  LEU300     -0.1245
    163  CA        39.9210  -40.4010   -3.3560 C.3   300  LEU300      0.1561
    164  C         39.1330  -39.8750   -2.1380 C.2   300  LEU300      0.2260
    165  O         38.1470  -39.1150   -2.3100 O.2   300  LEU300     -0.2867
    166  CB        39.7790  -41.9160   -3.4200 C.3   300  LEU300      0.0270
    167  CG        39.7790  -42.4470   -4.8340 C.3   300  LEU300      0.0019
    168  CD1       39.7160  -43.9730   -4.8450 C.3   300  LEU300      0.0001
    169  CD2       38.5860  -41.8490   -5.5530 C.3   300  LEU300      0.0001
    170  N         31.9950  -44.7650   -5.9200 N.3   316  LEU316     -0.1245
    171  CA        32.5580  -45.5880   -6.9400 C.3   316  LEU316      0.1561
    172  C         31.7710  -46.8540   -6.9630 C.2   316  LEU316      0.2260
    173  O         31.5960  -47.4560   -5.9230 O.2   316  LEU316     -0.2867
    174  CB        33.9800  -46.0070   -6.6020 C.3   316  LEU316      0.0270
    175  CG        35.2230  -45.1100   -6.5320 C.3   316  LEU316      0.0019
    176  CD1       36.4030  -46.0840   -6.5210 C.3   316  LEU316      0.0001
    177  CD2       35.4150  -44.0430   -7.6220 C.3   316  LEU316      0.0001
    178  N         35.4540  -49.4260  -14.0210 N.3   324  THR324     -0.1218
    179  CA        34.9150  -48.7200  -12.8780 C.3   324  THR324      0.1862
    180  C         34.1700  -47.4460  -13.2530 C.2   324  THR324      0.2287
    181  O         34.6410  -46.6650  -14.0510 O.2   324  THR324     -0.2866
    182  CB        36.0550  -48.3880  -11.9230 C.3   324  THR324      0.1770
    183  OG1       36.6880  -49.6020  -11.5250 O.3   324  THR324     -0.2211
    184  CG2       35.5390  -47.6790  -10.7180 C.3   324  THR324      0.0375
    185  N         32.6160  -43.7920  -11.7710 N.3   326  ALA326     -0.1245
    186  CA        32.8280  -42.9280  -10.6250 C.3   326  ALA326      0.1562
    187  C         31.9630  -41.7120  -10.7280 C.2   326  ALA326      0.2260
    188  O         31.9320  -41.0170  -11.7320 O.2   326  ALA326     -0.2867
    189  CB        34.2830  -42.5350  -10.4920 C.3   326  ALA326      0.0290
@<TRIPOS>BOND
     1    50    49    2
     2    49    48    1
     3    52    51    1
     4    48    47    1
     5    48    51    1
     6    63    62    1
     7    63    64    2
     8    38    39    1
     9    41    40    2
    10    62    61    1
    11    62    65    1
    12    47    40   am
    13    40    39    1
    14    69    70    1
    15    39    42    1
    16    65    66    1
    17    36    35    2
    18    70    71    1
    19    20    19    2
    20    35    34    1
    21    73    71   am
    22    73    74    1
    23    71    72    2
    24    42    43    1
    25    19    18    1
    26    25    24    2
    27    74    75    1
    28    66    67   ar
    29    66    68   ar
    30    55    54    1
    31    55    56    2
    32    58    57    1
    33    58    59    1
    34    54    57    1
    35    54    53    1
    36    43    44    1
    37    22    23    1
    38    21    18    1
    39    24    33   am
    40    24    23    1
    41    34    33    1
    42    34    37    1
    43    23    26    1
    44    18    17    1
    45    59    60    1
    46    75    76    2
    47    75    77   am
    48   181   180    2
    49   178   179    1
    50    44    45   ar
    51    44    46   ar
    52    77    78    1
    53    17    11   am
    54   180   179    1
    55    26    27    1
    56    12    11    2
    57   179   182    1
    58    11    10    1
    59    27    28    1
    60     4     3    2
    61    78    79    1
    62     3     2    1
    63     9    10    1
    64   182   183    1
    65   182   184    1
    66   185   186    1
    67   188   187    2
    68    10    13    1
    69    28    29    1
    70    80    79    2
    71    79    81   am
    72     5     2    1
    73     5     6    1
    74     2     1    1
    75   187   186    1
    76   186   189    1
    77    13    14    1
    78   126   127    1
    79    29    30    2
    80    81    82    1
    81     7     6    1
    82     6     8    1
    83    31    30    1
    84   130   127    1
    85    30    32    1
    86   127   128    1
    87    14    15    2
    88    14    16   am
    89   129   128    2
    90    82    83    1
    91    82    85    1
    92   128   131   am
    93    84    83    2
    94    87    85    1
    95    85    86    1
    96   177   175    1
    97   131   132    1
    98   172   171    1
    99   172   173    2
   100   171   174    1
   101   171   170    1
   102   143   145   ar
   103   143   141   ar
   104   145   144   ar
   105   141   140   ar
   106   174   175    1
   107   175   176    1
   108   144   142   ar
   109   140   142   ar
   110   140   139    1
   111   132   133    1
   112   139   136    1
   113   169   167    1
   114   135   133   am
   115   135   136    1
   116    94    93    1
   117   133   134    2
   118   168   167    1
   119   167   166    1
   120   136   137    1
   121    95    93    1
   122   138   137    2
   123    93    92    1
   124   137   146   am
   125   166   163    1
   126   162   163    1
   127   163   164    1
   128    92    89    1
   129   146   147    1
   130   165   164    2
   131    89    90    1
   132    89    88    1
   133    91    90    2
   134   147   148    1
   135   152   153    2
   136   152   151    1
   137   149   148    2
   138   148   150   am
   139   150   151    1
   140   151   154    1
   141   112   113    1
   142   112   109    1
   143   154   155    1
   144   109   110    1
   145   109   108    1
   146   111   110    2
   147   125   122    1
   148   110   114   am
   149    99    98    2
   150   155   156   ar
   151   155   157   ar
   152   156   158   ar
   153   108    98   am
   154    98    97    1
   155   122   121    1
   156   122   123    1
   157   114   115    1
   158   121   116   am
   159   124   123    2
   160   157   159   ar
   161   100    97    1
   162   100   101    1
   163   158   160   ar
   164   115   116    1
   165   115   118    1
   166   116   117    2
   167    97    96    1
   168   159   160   ar
   169   160   161    1
   170   101   103   ar
   171   101   102   ar
   172   103   105   ar
   173   118   119    1
   174   118   120    1
   175   102   104   ar
   176   105   106   ar
   177   104   106   ar
   178   106   107    1
