@<TRIPOS>MOLECULE
tmp/5m4nA00.pdb
 117 106 0 0 0
SMALL
GASTEIGER

@<TRIPOS>ATOM
      1  N         43.7910  -39.4470   10.1890 N.3   228  GLU228     -0.1231
      2  CA        42.7730  -38.5980    9.4980 C.3   228  GLU228      0.1699
      3  C         41.4370  -38.6180   10.2420 C.2   228  GLU228      0.2592
      4  O         40.7760  -37.5700   10.4530 O.2   228  GLU228     -0.2718
      5  CB        42.4670  -39.0820    8.0720 C.3   228  GLU228      0.0402
      6  CG        42.8810  -38.1780    6.9340 C.3   228  GLU228      0.1161
      7  CD        42.4720  -36.6970    7.0480 C.2   228  GLU228      0.3649
      8  OE1       43.4060  -35.8460    6.9710 O.co2 228  GLU228     -0.2457
      9  OE2       41.2450  -36.3840    7.1740 O.co2 228  GLU228     -0.2457
     10  N         41.0300  -39.8290   10.6100 N.am  229  LEU229     -0.1980
     11  CA        39.7600  -39.9790   11.2530 C.3   229  LEU229      0.1596
     12  C         39.7280  -39.2700   12.5830 C.2   229  LEU229      0.2287
     13  O         38.7630  -38.5910   12.8750 O.2   229  LEU229     -0.2864
     14  CB        39.4000  -41.4490   11.3730 C.3   229  LEU229      0.0297
     15  CG        39.0540  -42.0600   10.0040 C.3   229  LEU229      0.0022
     16  CD1       38.9040  -43.5690   10.1390 C.3   229  LEU229      0.0001
     17  CD2       37.7910  -41.4510    9.3820 C.3   229  LEU229      0.0001
     18  N         39.3090  -35.5050   12.2070 N.3   232  ASN232     -0.1225
     19  CA        37.9670  -35.0910   11.8580 C.3   232  ASN232      0.1785
     20  C         37.0640  -35.1640   13.0710 C.2   232  ASN232      0.2597
     21  O         36.3800  -34.1910   13.4100 O.2   232  ASN232     -0.2718
     22  CB        37.4300  -35.9410   10.7140 C.3   232  ASN232      0.1169
     23  CG        38.2120  -35.7370    9.4190 C.2   232  ASN232      0.2627
     24  OD1       38.8420  -34.6930    9.2130 O.2   232  ASN232     -0.2716
     25  ND2       38.1790  -36.7390    8.5370 N.am  232  ASN232     -0.0877
     26  N         37.0980  -36.2940   13.7490 N.am  233  ALA233     -0.1979
     27  CA        36.3290  -36.4480   14.9890 C.3   233  ALA233      0.1597
     28  C         36.6540  -35.3950   16.0670 C.2   233  ALA233      0.2287
     29  O         35.7420  -34.8770   16.7180 O.2   233  ALA233     -0.2864
     30  CB        36.4950  -37.8570   15.5570 C.3   233  ALA233      0.0319
     31  N         38.0850  -32.1750   15.5810 N.3   235  ARG235     -0.1231
     32  CA        37.5020  -30.9330   15.0210 C.3   235  ARG235      0.1694
     33  C         36.0270  -30.8170   15.3940 C.2   235  ARG235      0.2591
     34  O         35.6310  -29.8970   16.0880 O.2   235  ARG235     -0.2718
     35  CB        37.5620  -30.9030   13.4780 C.3   235  ARG235      0.0321
     36  CG        38.5610  -29.9690   12.8160 C.3   235  ARG235      0.0489
     37  CD        39.7780  -30.7160   12.2660 C.3   235  ARG235      0.2205
     38  NE        40.0700  -30.4260   10.8560 N.pl3 235  ARG235     -0.0865
     39  CZ        41.1230  -30.9120   10.1870 C.cat 235  ARG235      0.5346
     40  NH1       41.2950  -30.5900    8.9150 N.pl3 235  ARG235      0.1354
     41  NH2       42.0110  -31.7110   10.7800 N.pl3 235  ARG235      0.1354
     42  N         35.2130  -31.7660   14.9420 N.am  236  ALA236     -0.1980
     43  CA        33.7730  -31.6260   15.1100 C.3   236  ALA236      0.1597
     44  C         33.3920  -31.5870   16.5840 C.2   236  ALA236      0.2287
     45  O         32.6400  -30.7060   16.9880 O.2   236  ALA236     -0.2864
     46  CB        33.0160  -32.7310   14.3850 C.3   236  ALA236      0.0319
     47  N         34.9720  -45.5970   14.9190 N.3   265  MET265     -0.1196
     48  CA        35.3820  -44.4440   15.6690 C.3   265  MET265      0.1786
     49  C         34.1630  -43.5300   15.7630 C.2   265  MET265      0.2306
     50  O         33.8730  -42.7670   14.8420 O.2   265  MET265     -0.2863
     51  CB        36.5990  -43.7350   15.0140 C.2   265  MET265      0.0070
     52  CG        36.9460  -42.3340   15.5790 C.2   265  MET265      0.0282
     53  SD        38.2770  -41.4210   14.7900 S.3   265  MET265     -0.1125
     54  CE        39.5860  -42.6680   14.9160 C.3   265  MET265      0.0742
     55  N         32.0110  -40.3900   17.4470 N.3   267  ASP267     -0.1239
     56  CA        32.1600  -39.0750   18.1160 C.3   267  ASP267      0.1674
     57  C         30.8070  -38.4370   18.3050 C.2   267  ASP267      0.2266
     58  O         29.8400  -38.9040   17.7400 O.2   267  ASP267     -0.2867
     59  CB        33.0540  -38.1220   17.3030 C.3   267  ASP267      0.1410
     60  CG        32.4220  -37.6810   15.9510 C.2   267  ASP267      0.3668
     61  OD1       31.2240  -37.2830   15.8900 O.co2 267  ASP267     -0.2456
     62  OD2       33.1550  -37.7100   14.9410 O.co2 267  ASP267     -0.2456
     63  N         30.2520  -34.9440   17.6360 N.3   269  GLY269     -0.1210
     64  CA        30.5680  -33.6110   17.1080 C.3   269  GLY269      0.1956
     65  C         29.3980  -32.9990   16.3770 C.2   269  GLY269      0.2612
     66  O         29.5440  -31.9920   15.6870 O.2   269  GLY269     -0.2717
     67  N         28.2320  -33.6300   16.4740 N.am  270  GLY270     -0.1942
     68  CA        26.9810  -33.0370   15.9550 C.3   270  GLY270      0.2014
     69  C         26.6200  -33.2980   14.5140 C.2   270  GLY270      0.2639
     70  O         25.5860  -32.8640   14.0700 O.2   270  GLY270     -0.2714
     71  N         27.4980  -33.9470   13.7700 N.am  271  GLY271     -0.1939
     72  CA        27.1080  -34.6780   12.5870 C.3   271  GLY271      0.2014
     73  C         27.2050  -33.9130   11.2880 C.2   271  GLY271      0.2638
     74  O         27.6530  -32.7640   11.2870 O.2   271  GLY271     -0.2714
     75  N         26.7760  -34.6080   10.2150 N.am  272  VAL272     -0.1977
     76  CA        26.6590  -34.1310    8.8380 C.3   272  VAL272      0.1596
     77  C         25.3310  -34.6510    8.2830 C.2   272  VAL272      0.2287
     78  O         24.9740  -35.7980    8.5450 O.2   272  VAL272     -0.2864
     79  CB        27.6950  -34.7740    7.8750 C.3   272  VAL272      0.0276
     80  CG1       28.2400  -33.7110    6.9610 C.3   272  VAL272      0.0022
     81  CG2       28.8120  -35.4890    8.5910 C.3   272  VAL272      0.0022
     82  N         32.4350  -35.1420    1.0360 N.3   280  LEU280     -0.1245
     83  CA        33.6090  -35.3290    1.8430 C.3   280  LEU280      0.1561
     84  C         34.6000  -36.2470    1.1550 C.2   280  LEU280      0.2260
     85  O         35.8040  -36.0890    1.3630 O.2   280  LEU280     -0.2867
     86  CB        33.2200  -35.8710    3.2060 C.3   280  LEU280      0.0270
     87  CG        32.4630  -34.8780    4.0930 C.3   280  LEU280      0.0019
     88  CD1       32.0720  -35.5560    5.3990 C.3   280  LEU280      0.0001
     89  CD2       33.3020  -33.6130    4.3500 C.3   280  LEU280      0.0001
     90  N         40.2890  -37.8530    3.4580 N.3   292  LEU292     -0.1245
     91  CA        39.3690  -38.9710    3.4610 C.3   292  LEU292      0.1561
     92  C         39.4870  -39.8530    2.2120 C.2   292  LEU292      0.2260
     93  O         39.6770  -41.0980    2.3470 O.2   292  LEU292     -0.2867
     94  CB        37.9310  -38.4580    3.5690 C.3   292  LEU292      0.0270
     95  CG        37.4710  -38.1290    4.9700 C.3   292  LEU292      0.0019
     96  CD1       36.1920  -37.3150    4.9410 C.3   292  LEU292      0.0001
     97  CD2       37.2600  -39.4210    5.7250 C.3   292  LEU292      0.0001
     98  N         31.4420  -43.8090    6.0240 N.3   308  LEU308     -0.1245
     99  CA        30.9220  -42.8280    6.9940 C.3   308  LEU308      0.1561
    100  C         29.4210  -42.8910    7.0900 C.2   308  LEU308      0.2260
    101  O         28.7130  -42.8320    6.0640 O.2   308  LEU308     -0.2867
    102  CB        31.2620  -41.3660    6.6190 C.3   308  LEU308      0.0270
    103  CG        32.6870  -40.7970    6.7190 C.3   308  LEU308      0.0019
    104  CD1       32.6950  -39.3050    6.9980 C.3   308  LEU308      0.0001
    105  CD2       33.5070  -41.4840    7.7860 C.3   308  LEU308      0.0001
    106  N         29.1400  -38.4830   14.3040 N.3   316  THR316     -0.1218
    107  CA        29.5150  -39.2800   13.1610 C.3   316  THR316      0.1862
    108  C         30.3190  -40.5270   13.5910 C.2   316  THR316      0.2287
    109  O         31.2160  -40.4780   14.4690 O.2   316  THR316     -0.2866
    110  CB        30.3210  -38.4120   12.1800 C.3   316  THR316      0.1770
    111  OG1       29.4610  -37.4290   11.5720 O.3   316  THR316     -0.2211
    112  CG2       30.9740  -39.2440   11.1150 C.3   316  THR316      0.0375
    113  N         32.6700  -43.6040   11.9000 N.3   318  ALA318     -0.1245
    114  CA        33.5400  -43.9020   10.7960 C.3   318  ALA318      0.1562
    115  C         34.1340  -45.2830   10.9530 C.2   318  ALA318      0.2260
    116  O         34.8750  -45.5260   11.8740 O.2   318  ALA318     -0.2867
    117  CB        34.6410  -42.8910   10.7630 C.3   318  ALA318      0.0290
@<TRIPOS>BOND
     1    82    83    1
     2    84    85    2
     3    84    83    1
     4    83    86    1
     5    92    93    2
     6    92    91    1
     7    86    87    1
     8    90    91    1
     9    91    94    1
    10    94    95    1
    11    87    89    1
    12    87    88    1
    13    96    95    1
    14    95    97    1
    15    98    99    1
    16   101   100    2
    17   102   103    1
    18   102    99    1
    19   103   104    1
    20   103   105    1
    21     6     7    1
    22     6     5    1
    23    80    79    1
    24     8     7   ar
    25    99   100    1
    26     7     9   ar
    27    79    81    1
    28    79    76    1
    29     5     2    1
    30    77    78    2
    31    77    76    1
    32    25    23   am
    33    76    75    1
    34    40    39    1
    35    24    23    2
    36    17    15    1
    37    23    22    1
    38     2     1    1
    39     2     3    1
    40    15    16    1
    41    15    14    1
    42    39    41    1
    43    39    38    2
    44    75    73   am
    45     3     4    2
    46     3    10   am
    47    10    11    1
    48    22    19    1
    49   117   114    1
    50   114   115    1
    51   114   113    1
    52    38    37    1
    53   115   116    2
    54   112   110    1
    55    11    14    1
    56    11    12    1
    57    74    73    2
    58    73    72    1
    59   111   110    1
    60    19    18    1
    61    19    20    1
    62   110   107    1
    63    37    36    1
    64    12    13    2
    65    72    71    1
    66    36    35    1
    67    20    21    2
    68    20    26   am
    69   107   108    1
    70   107   106    1
    71    35    32    1
    72   108   109    2
    73    26    27    1
    74    71    69   am
    75    70    69    2
    76    46    43    1
    77    69    68    1
    78    53    54    1
    79    53    52    1
    80    50    49    2
    81    47    48    1
    82    62    60   ar
    83    42    43    1
    84    42    33   am
    85    27    30    1
    86    27    28    1
    87    51    52    2
    88    51    48    1
    89    32    33    1
    90    32    31    1
    91    43    44    1
    92    33    34    2
    93    48    49    1
    94    66    65    2
    95    61    60   ar
    96    60    59    1
    97    68    67    1
    98    28    29    2
    99    65    67   am
   100    65    64    1
   101    44    45    2
   102    64    63    1
   103    59    56    1
   104    55    56    1
   105    58    57    2
   106    56    57    1
