@<TRIPOS>MOLECULE
tmp/5m4oF00.pdb
 147 145 0 0 0
SMALL
GASTEIGER

@<TRIPOS>ATOM
      1  N        -55.8120   29.6250    3.2400 N.3    60  TRP60      -0.1241
      2  CA       -56.5990   30.6130    2.4970 C.3    60  TRP60       0.1605
      3  C        -57.2530   30.0660    1.2330 C.2    60  TRP60       0.2264
      4  O        -57.9790   30.7880    0.5530 O.2    60  TRP60      -0.2867
      5  CB       -55.7760   31.8720    2.1670 C.3    60  TRP60       0.0550
      6  CG       -55.1820   32.5430    3.3750 C.ar   60  TRP60       0.0003
      7  CD1      -55.6000   32.4190    4.6750 C.ar   60  TRP60       0.0946
      8  CD2      -54.0770   33.4470    3.3960 C.ar   60  TRP60       0.0152
      9  NE1      -54.8130   33.1790    5.5030 N.ar   60  TRP60      -0.2442
     10  CE2      -53.8700   33.8220    4.7480 C.ar   60  TRP60       0.0810
     11  CE3      -53.2280   33.9670    2.4090 C.ar   60  TRP60       0.0012
     12  CZ2      -52.8560   34.7060    5.1390 C.ar   60  TRP60       0.0191
     13  CZ3      -52.2110   34.8520    2.7960 C.ar   60  TRP60       0.0001
     14  CH2      -52.0390   35.2140    4.1520 C.ar   60  TRP60       0.0015
     15  N        -56.2830   32.0900   -1.5930 N.3    63  PHE63      -0.1241
     16  CA       -56.5290   33.5190   -1.3080 C.3    63  PHE63       0.1605
     17  C        -57.0380   34.2680   -2.5530 C.2    63  PHE63       0.2264
     18  O        -57.7510   33.6960   -3.3840 O.2    63  PHE63      -0.2867
     19  CB       -55.2460   34.1550   -0.7160 C.3    63  PHE63       0.0534
     20  CG       -55.4820   35.3560    0.1810 C.ar   63  PHE63      -0.0203
     21  CD1      -56.5710   35.4170    1.0520 C.ar   63  PHE63      -0.0042
     22  CD2      -54.5730   36.4100    0.1920 C.ar   63  PHE63      -0.0042
     23  CE1      -56.7660   36.5170    1.8850 C.ar   63  PHE63      -0.0003
     24  CE2      -54.7660   37.5080    1.0230 C.ar   63  PHE63      -0.0003
     25  CZ       -55.8690   37.5610    1.8690 C.ar   63  PHE63      -0.0000
     26  N        -51.7910   36.4590   11.1810 N.3   217  TRP217     -0.1227
     27  CA       -51.9250   36.7390    9.7460 C.3   217  TRP217      0.1737
     28  C        -52.9410   35.7960    9.0790 C.2   217  TRP217      0.2595
     29  O        -52.5750   34.9510    8.2450 O.2   217  TRP217     -0.2718
     30  CB       -50.5690   36.6730    9.0210 C.3   217  TRP217      0.0564
     31  CG       -49.4620   37.4940    9.6610 C.ar  217  TRP217      0.0003
     32  CD1      -48.4660   37.0340   10.4790 C.ar  217  TRP217      0.0946
     33  CD2      -49.2450   38.9130    9.5280 C.ar  217  TRP217      0.0152
     34  NE1      -47.6410   38.0730   10.8550 N.ar  217  TRP217     -0.2442
     35  CE2      -48.1020   39.2360   10.2930 C.ar  217  TRP217      0.0810
     36  CE3      -49.9100   39.9420    8.8380 C.ar  217  TRP217      0.0012
     37  CZ2      -47.6080   40.5440   10.3860 C.ar  217  TRP217      0.0191
     38  CZ3      -49.4240   41.2310    8.9340 C.ar  217  TRP217      0.0001
     39  CH2      -48.2800   41.5210    9.6930 C.ar  217  TRP217      0.0015
     40  N        -54.2100   35.9420    9.4600 N.am  218  ASN218     -0.1961
     41  CA       -55.2770   35.0810    8.9510 C.3   218  ASN218      0.1804
     42  C        -56.6250   35.8040    8.8600 C.2   218  ASN218      0.2463
     43  O        -57.4820   35.6370    9.7270 O.2   218  ASN218     -0.2730
     44  CB       -55.3950   33.8280    9.8160 C.3   218  ASN218      0.1195
     45  CG       -56.2620   32.7610    9.1810 C.2   218  ASN218      0.2630
     46  OD1      -56.1900   32.5120    7.9780 O.2   218  ASN218     -0.2716
     47  ND2      -57.0840   32.1180    9.9950 N.am  218  ASN218     -0.0877
     48  N        -56.8090   36.6190    7.8030 N.am  219  PRO219     -0.2727
     49  CA       -58.0470   37.3830    7.6360 C.3   219  PRO219      0.1402
     50  C        -59.2530   36.4560    7.7150 C.2   219  PRO219      0.2269
     51  O        -59.3300   35.4780    6.9810 O.2   219  PRO219     -0.2865
     52  CB       -57.9040   37.9760    6.2320 C.3   219  PRO219      0.0296
     53  CG       -56.4270   38.1120    6.0590 C.3   219  PRO219      0.0237
     54  CD       -55.8600   36.8800    6.7050 C.3   219  PRO219      0.0939
     55  N        -57.9920   40.1780   11.8970 N.3   233  THR233     -0.1218
     56  CA       -57.0120   39.1520   12.2600 C.3   233  THR233      0.1862
     57  C        -56.0270   39.7330   13.2700 C.2   233  THR233      0.2287
     58  O        -55.9270   40.9490   13.4240 O.2   233  THR233     -0.2866
     59  CB       -56.2570   38.6380   11.0000 C.3   233  THR233      0.1770
     60  OG1      -55.2740   37.6440   11.3510 O.3   233  THR233     -0.2211
     61  CG2      -55.6000   39.7830   10.2470 C.3   233  THR233      0.0375
     62  N        -51.9830   39.9770   14.2030 N.3   235  GLU235     -0.1245
     63  CA       -50.7320   39.9160   13.4250 C.3   235  GLU235      0.1567
     64  C        -49.5240   40.1190   14.3180 C.2   235  GLU235      0.2260
     65  O        -49.5520   40.9970   15.1720 O.2   235  GLU235     -0.2867
     66  CB       -50.6840   41.0440   12.3870 C.3   235  GLU235      0.0388
     67  CG       -52.0010   41.4250   11.7620 C.3   235  GLU235      0.1160
     68  CD       -52.4640   40.3790   10.7930 C.2   235  GLU235      0.3649
     69  OE1      -52.6900   39.2280   11.2240 O.co2 235  GLU235     -0.2457
     70  OE2      -52.6040   40.7120    9.6000 O.co2 235  GLU235     -0.2457
     71  N        -45.7790   39.2020    7.8780 N.3   239  LEU239     -0.1245
     72  CA       -46.6980   38.5080    6.9780 C.3   239  LEU239      0.1561
     73  C        -45.8490   37.5650    6.1050 C.2   239  LEU239      0.2260
     74  O        -44.9490   38.0180    5.4040 O.2   239  LEU239     -0.2867
     75  CB       -47.4920   39.5050    6.1210 C.3   239  LEU239      0.0270
     76  CG       -48.3650   38.9110    5.0010 C.3   239  LEU239      0.0019
     77  CD1      -49.4990   38.0850    5.5860 C.3   239  LEU239      0.0001
     78  CD2      -48.9180   39.9550    4.0400 C.3   239  LEU239      0.0001
     79  N        -48.4220   39.7720   -1.0060 N.3   243  HIS243     -0.1241
     80  CA       -49.7230   39.6490   -1.6520 C.3   243  HIS243      0.1621
     81  C        -49.8920   40.6850   -2.7550 C.2   243  HIS243      0.2264
     82  O        -49.8710   41.9020   -2.5020 O.2   243  HIS243     -0.2867
     83  CB       -50.8240   39.7830   -0.5920 C.3   243  HIS243      0.0745
     84  CG       -52.2130   39.5520   -1.1080 C.ar  243  HIS243      0.0817
     85  ND1      -53.2630   40.3960   -0.8120 N.ar  243  HIS243     -0.2268
     86  CD2      -52.7300   38.5690   -1.8860 C.ar  243  HIS243      0.1154
     87  CE1      -54.3660   39.9420   -1.3820 C.ar  243  HIS243      0.1986
     88  NE2      -54.0690   38.8380   -2.0450 N.ar  243  HIS243     -0.2212
     89  N        -57.9740   46.7770   -2.0260 N.3   249  GLU249     -0.1245
     90  CA       -58.3380   46.3360   -0.6850 C.3   249  GLU249      0.1567
     91  C        -57.8940   47.3860    0.3090 C.2   249  GLU249      0.2260
     92  O        -57.0940   48.2550   -0.0310 O.2   249  GLU249     -0.2867
     93  CB       -57.7220   44.9730   -0.3540 C.3   249  GLU249      0.0388
     94  CG       -56.2020   44.9150   -0.3750 C.3   249  GLU249      0.1160
     95  CD       -55.6820   43.5430    0.0050 C.2   249  GLU249      0.3649
     96  OE1      -54.7260   43.0540   -0.6350 O.co2 249  GLU249     -0.2457
     97  OE2      -56.2420   42.9400    0.9400 O.co2 249  GLU249     -0.2457
     98  N        -56.8950   48.5740    4.5220 N.3   251  PHE251     -0.1241
     99  CA       -56.3840   48.2220    5.8310 C.3   251  PHE251      0.1605
    100  C        -56.7970   49.2750    6.8400 C.2   251  PHE251      0.2264
    101  O        -56.6330   50.4690    6.6000 O.2   251  PHE251     -0.2867
    102  CB       -54.8490   48.1440    5.8310 C.3   251  PHE251      0.0534
    103  CG       -54.2770   47.0300    4.9940 C.ar  251  PHE251     -0.0203
    104  CD1      -54.9620   45.8390    4.8060 C.ar  251  PHE251     -0.0042
    105  CD2      -53.0060   47.1700    4.4220 C.ar  251  PHE251     -0.0042
    106  CE1      -54.4050   44.8220    4.0410 C.ar  251  PHE251     -0.0003
    107  CE2      -52.4450   46.1510    3.6630 C.ar  251  PHE251     -0.0003
    108  CZ       -53.1520   44.9800    3.4640 C.ar  251  PHE251     -0.0000
    109  N        -46.1260   48.5610    6.2070 N.3   260  TRP260     -0.1241
    110  CA       -46.2850   47.8080    4.9700 C.3   260  TRP260      0.1605
    111  C        -45.1900   48.1440    3.9800 C.2   260  TRP260      0.2264
    112  O        -45.0680   49.2840    3.5310 O.2   260  TRP260     -0.2867
    113  CB       -47.6630   48.0300    4.3460 C.3   260  TRP260      0.0550
    114  CG       -48.7640   47.6570    5.2660 C.ar  260  TRP260      0.0003
    115  CD1      -49.4150   48.4800    6.1360 C.ar  260  TRP260      0.0946
    116  CD2      -49.3320   46.3570    5.4360 C.ar  260  TRP260      0.0152
    117  NE1      -50.3680   47.7710    6.8260 N.ar  260  TRP260     -0.2442
    118  CE2      -50.3300   46.4640    6.4170 C.ar  260  TRP260      0.0810
    119  CE3      -49.0940   45.1110    4.8470 C.ar  260  TRP260      0.0012
    120  CZ2      -51.1000   45.3690    6.8260 C.ar  260  TRP260      0.0191
    121  CZ3      -49.8540   44.0260    5.2590 C.ar  260  TRP260      0.0001
    122  CH2      -50.8460   44.1660    6.2380 C.ar  260  TRP260      0.0015
    123  N        -47.7080   43.6950   -1.3020 N.3   290  HIS290     -0.1241
    124  CA       -47.4900   44.2200    0.0530 C.3   290  HIS290      0.1621
    125  C        -47.1290   43.1450    1.0830 C.2   290  HIS290      0.2264
    126  O        -47.5240   41.9860    0.9590 O.2   290  HIS290     -0.2867
    127  CB       -48.7160   45.0180    0.5250 C.3   290  HIS290      0.0745
    128  CG       -50.0190   44.3380    0.2430 C.ar  290  HIS290      0.0817
    129  ND1      -50.7150   44.5200   -0.9330 N.ar  290  HIS290     -0.2268
    130  CD2      -50.7420   43.4570    0.9720 C.ar  290  HIS290      0.1154
    131  CE1      -51.8130   43.7860   -0.9120 C.ar  290  HIS290      0.1986
    132  NE2      -51.8540   43.1310    0.2320 N.ar  290  HIS290     -0.2212
    133  N        -55.6490   44.1350   13.2660 N.3   300  LEU300     -0.1245
    134  CA       -55.8150   44.7650   11.9830 C.3   300  LEU300      0.1561
    135  C        -57.1350   44.3080   11.3750 C.2   300  LEU300      0.2260
    136  O        -57.5080   43.1340   11.4890 O.2   300  LEU300     -0.2867
    137  CB       -54.6570   44.3700   11.0690 C.3   300  LEU300      0.0270
    138  CG       -54.8190   44.6010    9.5630 C.3   300  LEU300      0.0019
    139  CD1      -54.5990   46.0690    9.2330 C.3   300  LEU300      0.0001
    140  CD2      -53.8760   43.7250    8.7580 C.3   300  LEU300      0.0001
    141  N        -58.7720   43.8140    7.7310 N.3   302  VAL302     -0.1245
    142  CA       -58.6690   43.7890    6.2760 C.3   302  VAL302      0.1561
    143  C        -60.0870   43.8240    5.7020 C.2   302  VAL302      0.2260
    144  O        -60.9190   42.9790    6.0460 O.2   302  VAL302     -0.2867
    145  CB       -57.9540   42.5260    5.7760 C.3   302  VAL302      0.0252
    146  CG1      -57.9140   42.5090    4.2570 C.3   302  VAL302      0.0019
    147  CG2      -56.5460   42.4410    6.3580 C.3   302  VAL302      0.0019
@<TRIPOS>BOND
     1    18    17    2
     2    81    82    2
     3    81    80    1
     4    17    16    1
     5    88    86   ar
     6    88    87   ar
     7    89    90    1
     8    86    84   ar
     9    80    79    1
    10    80    83    1
    11    15    16    1
    12    87    85   ar
    13    16    19    1
    14   123   124    1
    15    84    85   ar
    16    84    83    1
    17   129   131   ar
    18   129   128   ar
    19   131   132   ar
    20    19    20    1
    21    90    93    1
    22    90    91    1
    23    96    95   ar
    24    94    93    1
    25    94    95    1
    26    92    91    2
    27    95    97   ar
    28   124   127    1
    29   124   125    1
    30    20    22   ar
    31    20    21   ar
    32    22    24   ar
    33   132   130   ar
    34   128   127    1
    35   128   130   ar
    36     4     3    2
    37   126   125    2
    38    24    25   ar
    39    21    23   ar
    40     3     2    1
    41    25    23   ar
    42     5     2    1
    43     5     6    1
    44    11    13   ar
    45    11     8   ar
    46     2     1    1
    47    13    14   ar
    48     6     8   ar
    49     6     7   ar
    50     8    10   ar
    51   108   107   ar
    52   108   106   ar
    53   112   111    2
    54   107   105   ar
    55   111   110    1
    56    78    76    1
    57   106   104   ar
    58    14    12   ar
    59   146   145    1
    60   113   110    1
    61   113   114    1
    62   105   103   ar
    63    98    99    1
    64     7     9   ar
    65    10    12   ar
    66    10     9   ar
    67   104   103   ar
    68   119   121   ar
    69   119   116   ar
    70   110   109    1
    71   103   102    1
    72    76    77    1
    73    76    75    1
    74   121   122   ar
    75   114   116   ar
    76   114   115   ar
    77    74    73    2
    78   116   118   ar
    79   143   144    2
    80   143   142    1
    81   145   142    1
    82   145   147    1
    83    99   102    1
    84    99   100    1
    85    53    52    1
    86    53    54    1
    87    73    72    1
    88    75    72    1
    89   115   117   ar
    90    52    49    1
    91   122   120   ar
    92   142   141    1
    93   118   117   ar
    94   118   120   ar
    95   101   100    2
    96    54    48    1
    97    72    71    1
    98    51    50    2
    99    49    50    1
   100    49    48    1
   101    48    42   am
   102    46    45    2
   103    29    28    2
   104   140   138    1
   105    36    38   ar
   106    36    33   ar
   107    42    41    1
   108    42    43    2
   109    38    39   ar
   110    41    40    1
   111    41    44    1
   112    30    31    1
   113    30    27    1
   114    28    40   am
   115    28    27    1
   116    45    44    1
   117    45    47   am
   118   139   138    1
   119    33    31   ar
   120    33    35   ar
   121   138   137    1
   122    70    68   ar
   123    31    32   ar
   124    39    37   ar
   125    27    26    1
   126    61    59    1
   127    35    37   ar
   128    35    34   ar
   129    32    34   ar
   130    68    69   ar
   131    68    67    1
   132    59    60    1
   133    59    56    1
   134   137   134    1
   135   135   136    2
   136   135   134    1
   137    67    66    1
   138    55    56    1
   139   134   133    1
   140    56    57    1
   141    66    63    1
   142    57    58    2
   143    63    62    1
   144    63    64    1
   145    64    65    2
