@<TRIPOS>MOLECULE
tmp/5m4pA00.pdb
 146 134 0 0 0
SMALL
GASTEIGER

@<TRIPOS>ATOM
      1  N         44.0480  -40.0520   10.1970 N.3   230  GLU230     -0.1231
      2  CA        43.1430  -39.1320    9.4990 C.3   230  GLU230      0.1699
      3  C         41.7630  -39.1480   10.1690 C.2   230  GLU230      0.2592
      4  O         41.1350  -38.1040   10.2990 O.2   230  GLU230     -0.2718
      5  CB        43.0510  -39.5560    8.0410 C.3   230  GLU230      0.0402
      6  CG        41.9550  -38.9010    7.2550 C.3   230  GLU230      0.1161
      7  CD        42.2440  -37.4550    6.9270 C.2   230  GLU230      0.3649
      8  OE1       43.4590  -37.0840    6.9920 O.co2 230  GLU230     -0.2457
      9  OE2       41.2630  -36.7220    6.5900 O.co2 230  GLU230     -0.2457
     10  N         41.3320  -40.3240   10.6020 N.am  231  LEU231     -0.1980
     11  CA        40.0700  -40.4810   11.3070 C.3   231  LEU231      0.1596
     12  C         40.0470  -39.7870   12.6450 C.2   231  LEU231      0.2287
     13  O         39.1130  -39.0820   12.9480 O.2   231  LEU231     -0.2864
     14  CB        39.6970  -41.9820   11.3990 C.3   231  LEU231      0.0297
     15  CG        39.3930  -42.5490    9.9830 C.3   231  LEU231      0.0022
     16  CD1       38.9340  -43.9950    9.9760 C.3   231  LEU231      0.0001
     17  CD2       38.3720  -41.7090    9.2170 C.3   231  LEU231      0.0001
     18  N         41.9420  -37.2800   13.6010 N.3   233  LYS233     -0.1231
     19  CA        41.9820  -35.8360   13.4140 C.3   233  LYS233      0.1693
     20  C         40.6210  -35.2730   13.0960 C.2   233  LYS233      0.2592
     21  O         40.2630  -34.2440   13.6260 O.2   233  LYS233     -0.2718
     22  CB        43.0520  -35.4500   12.4090 C.3   233  LYS233      0.0285
     23  CG        42.6760  -34.3900   11.4170 C.3   233  LYS233      0.0035
     24  CD        43.7290  -34.3550   10.3220 C.3   233  LYS233      0.0206
     25  CE        43.1280  -33.7740    9.0540 C.3   233  LYS233      0.1093
     26  NZ        42.2100  -34.7450    8.4220 N.3   233  LYS233     -0.1314
     27  N         39.8580  -35.9630   12.2690 N.am  234  ASN234     -0.1960
     28  CA        38.4970  -35.5380   11.9370 C.3   234  ASN234      0.1819
     29  C         37.5560  -35.5920   13.1360 C.2   234  ASN234      0.2621
     30  O         36.8950  -34.6110   13.4330 O.2   234  ASN234     -0.2715
     31  CB        37.9240  -36.3720   10.7710 C.3   234  ASN234      0.1195
     32  CG        38.6700  -36.1370    9.4750 C.2   234  ASN234      0.2630
     33  OD1       39.3120  -35.1110    9.3260 O.2   234  ASN234     -0.2716
     34  ND2       38.6310  -37.1010    8.5530 N.am  234  ASN234     -0.0877
     35  N         37.4950  -36.7370   13.8040 N.am  235  ALA235     -0.1977
     36  CA        36.6790  -36.8990   14.9820 C.3   235  ALA235      0.1597
     37  C         37.0020  -35.8340   16.1010 C.2   235  ALA235      0.2287
     38  O         36.0790  -35.3260   16.8310 O.2   235  ALA235     -0.2864
     39  CB        36.8460  -38.3310   15.5060 C.3   235  ALA235      0.0319
     40  N         38.4250  -32.7370   15.7210 N.3   237  ARG237     -0.1231
     41  CA        37.9090  -31.4610   15.3130 C.3   237  ARG237      0.1694
     42  C         36.3990  -31.4210   15.4490 C.2   237  ARG237      0.2591
     43  O         35.8620  -30.4820   16.0110 O.2   237  ARG237     -0.2718
     44  CB        38.3630  -31.1450   13.9130 C.3   237  ARG237      0.0321
     45  CG        37.2460  -30.6590   13.0430 C.3   237  ARG237      0.0489
     46  CD        37.6990  -29.5680   12.1880 C.3   237  ARG237      0.2205
     47  NE        36.5980  -28.7690   11.7050 N.pl3 237  ARG237     -0.0865
     48  CZ        36.2400  -28.6680   10.4430 C.cat 237  ARG237      0.5346
     49  NH1       35.3310  -27.7800   10.1220 N.pl3 237  ARG237      0.1354
     50  NH2       36.7500  -29.4550    9.5130 N.pl3 237  ARG237      0.1354
     51  N         35.6940  -32.4300   14.9470 N.am  238  ALA238     -0.1980
     52  CA        34.2530  -32.4360   15.1260 C.3   238  ALA238      0.1597
     53  C         33.8940  -32.3330   16.6230 C.2   238  ALA238      0.2287
     54  O         33.0700  -31.4970   17.0150 O.2   238  ALA238     -0.2864
     55  CB        33.6110  -33.6750   14.5140 C.3   238  ALA238      0.0319
     56  N         35.2550  -28.6700   18.3100 N.3   241  GLU241     -0.1231
     57  CA        34.5330  -27.4940   17.8290 C.3   241  GLU241      0.1699
     58  C         33.0510  -27.5530   18.1060 C.2   241  GLU241      0.2592
     59  O         32.4090  -26.5130   18.2920 O.2   241  GLU241     -0.2718
     60  CB        34.7530  -27.2320   16.3480 C.3   241  GLU241      0.0402
     61  CG        36.1940  -27.2060   15.8960 C.3   241  GLU241      0.1161
     62  CD        36.3350  -26.7480   14.4730 C.2   241  GLU241      0.3649
     63  OE1       37.4830  -26.5610   14.0490 O.co2 241  GLU241     -0.2457
     64  OE2       35.3110  -26.5600   13.7810 O.co2 241  GLU241     -0.2457
     65  N         32.4740  -28.7460   18.1420 N.am  242  SER242     -0.1952
     66  CA        31.0220  -28.8070   18.4060 C.3   242  SER242      0.1924
     67  C         30.6780  -28.6500   19.9040 C.2   242  SER242      0.2314
     68  O         29.5070  -28.5420   20.2270 O.2   242  SER242     -0.2863
     69  CB        30.4050  -30.0920   17.8450 C.3   242  SER242      0.2116
     70  OG        30.9080  -31.2320   18.5180 O.3   242  SER242     -0.2180
     71  N         32.2500  -40.9740   17.2290 N.3   269  ASP269     -0.1239
     72  CA        32.3950  -39.6580   17.8020 C.3   269  ASP269      0.1674
     73  C         31.0550  -39.0030   18.0040 C.2   269  ASP269      0.2266
     74  O         30.0390  -39.4720   17.4450 O.2   269  ASP269     -0.2867
     75  CB        33.3770  -38.8400   16.9560 C.3   269  ASP269      0.1410
     76  CG        32.8110  -38.2760   15.6250 C.2   269  ASP269      0.3668
     77  OD1       31.7330  -37.6220   15.6160 O.co2 269  ASP269     -0.2456
     78  OD2       33.5730  -38.3670   14.6160 O.co2 269  ASP269     -0.2456
     79  N         30.4370  -35.6160   17.5070 N.3   271  GLY271     -0.1210
     80  CA        30.8050  -34.2850   17.0050 C.3   271  GLY271      0.1956
     81  C         29.6550  -33.5780   16.3180 C.2   271  GLY271      0.2612
     82  O         29.8500  -32.5620   15.7200 O.2   271  GLY271     -0.2717
     83  N         28.4430  -34.1010   16.3820 N.am  272  GLY272     -0.1942
     84  CA        27.3320  -33.4520   15.6410 C.3   272  GLY272      0.2014
     85  C         27.0120  -33.9500   14.2260 C.2   272  GLY272      0.2639
     86  O         25.9230  -33.7190   13.7090 O.2   272  GLY272     -0.2714
     87  N         27.9340  -34.6720   13.6020 N.am  273  GLY273     -0.1939
     88  CA        27.5980  -35.3990   12.3930 C.3   273  GLY273      0.2014
     89  C         27.5410  -34.4800   11.1890 C.2   273  GLY273      0.2638
     90  O         27.8690  -33.2820   11.2660 O.2   273  GLY273     -0.2714
     91  N         27.1430  -35.1070   10.0840 N.am  274  VAL274     -0.1977
     92  CA        27.0260  -34.5480    8.7350 C.3   274  VAL274      0.1596
     93  C         25.6800  -35.0770    8.1990 C.2   274  VAL274      0.2287
     94  O         25.4050  -36.2750    8.3030 O.2   274  VAL274     -0.2864
     95  CB        28.0090  -35.2380    7.7570 C.3   274  VAL274      0.0276
     96  CG1       28.2120  -34.4200    6.5000 C.3   274  VAL274      0.0022
     97  CG2       29.2710  -35.6130    8.4250 C.3   274  VAL274      0.0022
     98  N         32.8550  -35.7570    1.0430 N.3   282  LEU282     -0.1245
     99  CA        34.0560  -35.9340    1.8370 C.3   282  LEU282      0.1561
    100  C         35.0230  -36.9010    1.1680 C.2   282  LEU282      0.2260
    101  O         36.1900  -36.8750    1.4750 O.2   282  LEU282     -0.2867
    102  CB        33.7370  -36.4510    3.2410 C.3   282  LEU282      0.0270
    103  CG        32.8090  -35.5920    4.0860 C.3   282  LEU282      0.0019
    104  CD1       32.5140  -36.2840    5.4230 C.3   282  LEU282      0.0001
    105  CD2       33.4260  -34.2090    4.2530 C.3   282  LEU282      0.0001
    106  N         44.8210  -27.7010   12.1840 N.3   292  LEU292     -0.1231
    107  CA        44.7280  -29.1880   12.1340 C.3   292  LEU292      0.1693
    108  C         44.4990  -29.7530   10.6880 C.2   292  LEU292      0.2591
    109  O         44.9340  -30.8560   10.3510 O.2   292  LEU292     -0.2718
    110  CB        43.6250  -29.6770   13.1110 C.3   292  LEU292      0.0284
    111  CG        43.6520  -31.0840   13.7510 C.3   292  LEU292      0.0019
    112  CD1       45.0480  -31.5460   14.1040 C.3   292  LEU292      0.0001
    113  CD2       42.7900  -31.1870   14.9990 C.3   292  LEU292      0.0001
    114  N         43.8210  -28.9620    9.8540 N.am  293  ALA293     -0.1980
    115  CA        43.5670  -29.2600    8.4340 C.3   293  ALA293      0.1597
    116  C         44.8140  -29.6670    7.5980 C.2   293  ALA293      0.2287
    117  O         44.6740  -30.4290    6.6290 O.2   293  ALA293     -0.2864
    118  CB        42.8560  -28.0590    7.7840 C.3   293  ALA293      0.0319
    119  N         40.6780  -38.2740    3.5280 N.3   299  LEU299     -0.1245
    120  CA        39.7440  -39.3910    3.4280 C.3   299  LEU299      0.1561
    121  C         39.8710  -40.2670    2.1260 C.2   299  LEU299      0.2260
    122  O         40.0510  -41.4950    2.1920 O.2   299  LEU299     -0.2867
    123  CB        38.3210  -38.8540    3.6230 C.3   299  LEU299      0.0270
    124  CG        38.0240  -38.5830    5.0810 C.3   299  LEU299      0.0019
    125  CD1       36.8040  -37.6900    5.1890 C.3   299  LEU299      0.0001
    126  CD2       37.8150  -39.9300    5.7740 C.3   299  LEU299      0.0001
    127  N         31.9220  -44.2190    5.9120 N.3   315  LEU315     -0.1245
    128  CA        31.4410  -43.3050    6.9150 C.3   315  LEU315      0.1561
    129  C         29.9570  -43.4080    7.0440 C.2   315  LEU315      0.2260
    130  O         29.2940  -43.4360    6.0270 O.2   315  LEU315     -0.2867
    131  CB        31.7480  -41.8520    6.5550 C.3   315  LEU315      0.0270
    132  CG        33.1760  -41.3240    6.4520 C.3   315  LEU315      0.0019
    133  CD1       33.0900  -39.8500    6.0250 C.3   315  LEU315      0.0001
    134  CD2       33.9660  -41.4940    7.7470 C.3   315  LEU315      0.0001
    135  N         29.3770  -39.2110   14.1080 N.3   323  THR323     -0.1218
    136  CA        29.7720  -40.0150   12.9870 C.3   323  THR323      0.1862
    137  C         30.5630  -41.2790   13.4170 C.2   323  THR323      0.2287
    138  O         31.4210  -41.2230   14.2800 O.2   323  THR323     -0.2866
    139  CB        30.6710  -39.1720   12.0580 C.3   323  THR323      0.1770
    140  OG1       29.9740  -38.0130   11.5440 O.3   323  THR323     -0.2211
    141  CG2       31.1410  -39.9640   10.9270 C.3   323  THR323      0.0375
    142  N         33.1620  -44.0020   11.6930 N.3   325  ALA325     -0.1245
    143  CA        33.9920  -44.2790   10.5750 C.3   325  ALA325      0.1562
    144  C         34.4700  -45.6710   10.8360 C.2   325  ALA325      0.2260
    145  O         34.8260  -45.9880   11.9450 O.2   325  ALA325     -0.2867
    146  CB        35.1480  -43.3410   10.5520 C.3   325  ALA325      0.0290
@<TRIPOS>BOND
     1    98    99    1
     2   100   101    2
     3   100    99    1
     4    99   102    1
     5   121   122    2
     6   121   120    1
     7   102   103    1
     8   120   119    1
     9   120   123    1
    10   123   124    1
    11   103   105    1
    12   103   104    1
    13   124   125    1
    14   124   126    1
    15   127   128    1
    16   133   132    1
    17   130   129    2
    18   132   131    1
    19   132   134    1
    20    96    95    1
    21   131   128    1
    22     9     7   ar
    23   117   116    2
    24   128   129    1
    25     7     8   ar
    26     7     6    1
    27     6     5    1
    28   116   115    1
    29    95    97    1
    30    95    92    1
    31   118   115    1
    32     5     2    1
    33    93    94    2
    34    93    92    1
    35    26    25    1
    36   115   114    1
    37    34    32   am
    38    92    91    1
    39    25    24    1
    40    17    15    1
    41    33    32    2
    42    32    31    1
    43     2     3    1
    44     2     1    1
    45    50    48    1
    46   114   108   am
    47    16    15    1
    48    15    14    1
    49    91    89   am
    50    49    48    1
    51     3     4    2
    52     3    10   am
    53    24    23    1
    54   109   108    2
    55    48    47    2
    56   146   143    1
    57   143   144    1
    58   143   142    1
    59    10    11    1
    60   108   107    1
    61    31    28    1
    62   144   145    2
    63   141   139    1
    64    89    90    2
    65    89    88    1
    66    11    14    1
    67    11    12    1
    68    23    22    1
    69   140   139    1
    70    47    46    1
    71    28    27    1
    72    28    29    1
    73   139   136    1
    74   107   106    1
    75   107   110    1
    76    46    45    1
    77    27    20   am
    78    88    87    1
    79    22    19    1
    80    12    13    2
    81   136   137    1
    82   136   135    1
    83    45    44    1
    84    20    19    1
    85    20    21    2
    86   110   111    1
    87    29    30    2
    88    29    35   am
    89    19    18    1
    90   137   138    2
    91    87    85   am
    92    86    85    2
    93   111   112    1
    94   111   113    1
    95    64    62   ar
    96    35    36    1
    97    44    41    1
    98    63    62   ar
    99    85    84    1
   100    62    61    1
   101    55    52    1
   102    78    76   ar
   103    51    52    1
   104    51    42   am
   105    36    39    1
   106    36    37    1
   107    52    53    1
   108    41    42    1
   109    41    40    1
   110    42    43    2
   111    77    76   ar
   112    76    75    1
   113    84    83    1
   114    82    81    2
   115    61    60    1
   116    37    38    2
   117    81    83   am
   118    81    80    1
   119    60    57    1
   120    53    54    2
   121    75    72    1
   122    80    79    1
   123    71    72    1
   124    74    73    2
   125    72    73    1
   126    57    58    1
   127    57    56    1
   128    69    66    1
   129    69    70    1
   130    58    65   am
   131    58    59    2
   132    65    66    1
   133    66    67    1
   134    67    68    2
