@<TRIPOS>MOLECULE
tmp/5m4zA00.pdb
 145 142 0 0 0
SMALL
GASTEIGER

@<TRIPOS>ATOM
      1  N         57.4050   28.0130    7.4890 N.3    61  GLU61      -0.1245
      2  CA        56.8550   28.9170    8.4950 C.3    61  GLU61       0.1567
      3  C         57.7590   29.0020    9.7090 C.2    61  GLU61       0.2260
      4  O         57.9640   30.0860   10.2750 O.2    61  GLU61      -0.2867
      5  CB        55.4430   28.5010    8.9050 C.3    61  GLU61       0.0388
      6  CG        54.7820   29.5110    9.8290 C.3    61  GLU61       0.1160
      7  CD        53.7100   28.9410   10.7110 C.2    61  GLU61       0.3649
      8  OE1       53.8980   27.8540   11.2910 O.co2  61  GLU61      -0.2457
      9  OE2       52.6770   29.6210   10.8460 O.co2  61  GLU61      -0.2457
     10  N         49.4580   32.5260    5.6870 N.3    83  TRP83      -0.1241
     11  CA        49.2000   33.7630    6.4180 C.3    83  TRP83       0.1605
     12  C         48.6440   34.8650    5.5200 C.2    83  TRP83       0.2264
     13  O         48.4300   35.9820    5.9900 O.2    83  TRP83      -0.2867
     14  CB        50.4680   34.2420    7.1560 C.3    83  TRP83       0.0550
     15  CG        50.7540   33.4540    8.3740 C.ar   83  TRP83       0.0003
     16  CD1       51.6930   32.4980    8.5470 C.ar   83  TRP83       0.0946
     17  CD2       50.0470   33.5370    9.5960 C.ar   83  TRP83       0.0152
     18  NE1       51.6320   31.9730    9.8110 N.ar   83  TRP83      -0.2442
     19  CE2       50.6180   32.6020   10.4750 C.ar   83  TRP83       0.0810
     20  CE3       48.9700   34.3080   10.0290 C.ar   83  TRP83       0.0012
     21  CZ2       50.1600   32.4240   11.7740 C.ar   83  TRP83       0.0191
     22  CZ3       48.5090   34.1380   11.3170 C.ar   83  TRP83       0.0001
     23  CH2       49.1050   33.2000   12.1780 C.ar   83  TRP83       0.0015
     24  N         54.3090   36.0680   16.2900 N.3   109  TYR109     -0.1241
     25  CA        55.2800   35.1060   16.8120 C.3   109  TYR109      0.1605
     26  C         56.7340   35.5380   16.6510 C.2   109  TYR109      0.2264
     27  O         57.4650   35.6520   17.6350 O.2   109  TYR109     -0.2867
     28  CB        55.0600   33.7430   16.1470 C.3   109  TYR109      0.0534
     29  CG        53.6810   33.1790   16.3300 C.ar  109  TYR109     -0.0201
     30  CD1       53.3230   32.5310   17.4990 C.ar  109  TYR109     -0.0009
     31  CD2       52.7250   33.3220   15.3510 C.ar  109  TYR109     -0.0009
     32  CE1       52.0670   32.0190   17.6550 C.ar  109  TYR109      0.0417
     33  CE2       51.4560   32.8090   15.5020 C.ar  109  TYR109      0.0417
     34  CZ        51.1340   32.1510   16.6640 C.ar  109  TYR109      0.1957
     35  OH        49.8690   31.6050   16.8490 O.3   109  TYR109     -0.2866
     36  N         46.1510   38.9560   14.2310 N.3   166  LEU166     -0.1231
     37  CA        45.5380   37.8310   14.9170 C.3   166  LEU166      0.1678
     38  C         46.3940   37.6330   16.1660 C.2   166  LEU166      0.2434
     39  O         47.6140   37.5310   16.0590 O.2   166  LEU166     -0.2733
     40  CB        45.5800   36.5670   14.0370 C.3   166  LEU166      0.0284
     41  CG        44.9480   35.2780   14.5740 C.3   166  LEU166      0.0019
     42  CD1       43.4490   35.4650   14.7390 C.3   166  LEU166      0.0001
     43  CD2       45.2420   34.0810   13.6730 C.3   166  LEU166      0.0001
     44  N         45.8150   37.5290   17.3470 N.am  167  PRO167     -0.2729
     45  CA        46.6230   37.2320   18.5400 C.3   167  PRO167      0.1401
     46  C         47.1900   35.8310   18.4500 C.2   167  PRO167      0.2269
     47  O         46.4970   34.9080   18.0050 O.2   167  PRO167     -0.2865
     48  CB        45.5990   37.3580   19.6770 C.3   167  PRO167      0.0296
     49  CG        44.6220   38.3260   19.1260 C.3   167  PRO167      0.0237
     50  CD        44.4470   37.8870   17.7100 C.3   167  PRO167      0.0939
     51  N         48.0010   32.0830   18.7880 N.3   169  CYS169     -0.1221
     52  CA        47.2790   30.9090   19.2730 C.3   169  CYS169      0.1808
     53  C         48.1940   30.0200   20.1040 C.2   169  CYS169      0.2601
     54  O         47.8050   29.5130   21.1460 O.2   169  CYS169     -0.2717
     55  CB        46.7500   30.0810   18.0820 C.3   169  CYS169      0.0970
     56  SG        45.3730   30.7330   17.0550 S.3   169  CYS169     -0.0800
     57  N         49.4020   29.7740   19.6280 N.am  170  HIS170     -0.1975
     58  CA        50.4020   28.9960   20.3540 C.3   170  HIS170      0.1656
     59  C         51.2140   30.0180   21.1560 C.2   170  HIS170      0.2291
     60  O         52.0850   30.6990   20.6270 O.2   170  HIS170     -0.2864
     61  CB        51.1930   28.0220   19.4480 C.3   170  HIS170      0.0771
     62  CG        51.5020   28.4680   18.0510 C.ar  170  HIS170      0.0820
     63  ND1       52.7490   28.9370   17.7180 N.ar  170  HIS170     -0.2267
     64  CD2       50.8070   28.4150   16.8890 C.ar  170  HIS170      0.1154
     65  CE1       52.8080   29.1900   16.4220 C.ar  170  HIS170      0.1986
     66  NE2       51.6280   28.9080   15.9000 N.ar  170  HIS170     -0.2212
     67  N         48.5430   26.1900   23.9430 N.3   188  GLN188     -0.1231
     68  CA        47.8050   26.7520   22.8220 C.3   188  GLN188      0.1698
     69  C         46.4210   27.1750   23.3150 C.2   188  GLN188      0.2592
     70  O         45.6260   26.3360   23.7230 O.2   188  GLN188     -0.2718
     71  CB        47.7070   25.6920   21.7320 C.3   188  GLN188      0.0381
     72  CG        46.9710   26.1440   20.5040 C.3   188  GLN188      0.0905
     73  CD        47.2950   25.3200   19.2600 C.2   188  GLN188      0.2608
     74  OE1       48.0630   24.3700   19.2890 O.2   188  GLN188     -0.2717
     75  NE2       46.6930   25.6930   18.1560 N.am  188  GLN188     -0.0878
     76  N         46.1370   28.4760   23.2750 N.am  189  ARG189     -0.1966
     77  CA        44.8750   28.9690   23.8250 C.3   189  ARG189      0.1729
     78  C         43.6640   28.5160   23.0200 C.2   189  ARG189      0.2616
     79  O         42.5470   28.4640   23.5540 O.2   189  ARG189     -0.2715
     80  CB        44.9070   30.4980   23.9010 C.3   189  ARG189      0.0348
     81  CG        44.9940   31.1850   22.5590 C.3   189  ARG189      0.0492
     82  CD        44.8600   32.7180   22.6470 C.3   189  ARG189      0.2205
     83  NE        44.9080   33.2910   21.3160 N.pl3 189  ARG189     -0.0865
     84  CZ        43.9160   33.2780   20.4430 C.cat 189  ARG189      0.5346
     85  NH1       42.7210   32.8040   20.7760 N.pl3 189  ARG189      0.1354
     86  NH2       44.1430   33.7250   19.2190 N.pl3 189  ARG189      0.1354
     87  N         43.8640   28.2420   21.7360 N.am  190  SER190     -0.1950
     88  CA        42.7870   27.9860   20.8010 C.3   190  SER190      0.1924
     89  C         43.3400   27.0900   19.7150 C.2   190  SER190      0.2314
     90  O         44.3580   27.4280   19.1070 O.2   190  SER190     -0.2863
     91  CB        42.3240   29.3120   20.2080 C.3   190  SER190      0.2116
     92  OG        41.2800   29.0940   19.2870 O.3   190  SER190     -0.2180
     93  N         42.2230   24.5230   16.4270 N.3   192  ASP192     -0.1239
     94  CA        41.3430   23.8640   15.4880 C.3   192  ASP192      0.1674
     95  C         41.8850   22.4570   15.3390 C.2   192  ASP192      0.2266
     96  O         42.9500   22.2450   14.7480 O.2   192  ASP192     -0.2867
     97  CB        41.3690   24.6040   14.1560 C.3   192  ASP192      0.1410
     98  CG        40.4880   23.9560   13.1020 C.2   192  ASP192      0.3668
     99  OD1       40.0800   22.8000   13.3100 O.co2 192  ASP192     -0.2456
    100  OD2       40.1890   24.6190   12.0830 O.co2 192  ASP192     -0.2456
    101  N         44.4490   22.8500   12.2710 N.3   196  GLY196     -0.1225
    102  CA        45.5740   23.4880   12.9090 C.3   196  GLY196      0.1811
    103  C         46.4420   22.5330   13.6880 C.2   196  GLY196      0.2280
    104  O         47.6560   22.5390   13.5170 O.2   196  GLY196     -0.2866
    105  N         49.3780   20.4570   12.1900 N.3   199  PHE199     -0.1227
    106  CA        50.4370   21.3580   11.7490 C.3   199  PHE199      0.1736
    107  C         51.2230   21.8820   12.9420 C.2   199  PHE199      0.2595
    108  O         52.4550   21.9010   12.9430 O.2   199  PHE199     -0.2718
    109  CB        49.7620   22.4750   10.9390 C.3   199  PHE199      0.0547
    110  CG        50.6930   23.3970   10.2020 C.ar  199  PHE199     -0.0202
    111  CD1       51.3310   24.4310   10.8570 C.ar  199  PHE199     -0.0042
    112  CD2       50.8870   23.2690    8.8310 C.ar  199  PHE199     -0.0042
    113  CE1       52.1570   25.2980   10.1750 C.ar  199  PHE199     -0.0003
    114  CE2       51.7000   24.1460    8.1490 C.ar  199  PHE199     -0.0003
    115  CZ        52.3340   25.1600    8.8050 C.ar  199  PHE199     -0.0000
    116  N         50.5110   22.2930   13.9920 N.am  200  ASN200     -0.1974
    117  CA        51.1440   22.8510   15.1830 C.3   200  ASN200      0.1688
    118  C         52.0000   21.8170   15.9290 C.2   200  ASN200      0.2292
    119  O         53.0730   22.1560   16.4440 O.2   200  ASN200     -0.2864
    120  CB        50.0490   23.3680   16.1360 C.3   200  ASN200      0.1181
    121  CG        49.1110   24.4150   15.5160 C.2   200  ASN200      0.2629
    122  OD1       47.9170   24.4400   15.8540 O.2   200  ASN200     -0.2716
    123  ND2       49.6320   25.2970   14.6830 N.am  200  ASN200     -0.0877
    124  N         38.7630   22.6590   19.5840 N.3   230  HIS230     -0.1241
    125  CA        37.4720   22.7000   18.9050 C.3   230  HIS230      0.1621
    126  C         37.5400   22.1510   17.4880 C.2   230  HIS230      0.2264
    127  O         38.5950   22.0320   16.8750 O.2   230  HIS230     -0.2867
    128  CB        36.8910   24.1290   18.9150 C.3   230  HIS230      0.0745
    129  CG        37.8100   25.1530   18.3390 C.ar  230  HIS230      0.0817
    130  ND1       38.6920   25.8760   19.1110 N.ar  230  HIS230     -0.2268
    131  CD2       38.0490   25.5180   17.0570 C.ar  230  HIS230      0.1154
    132  CE1       39.4080   26.6720   18.3340 C.ar  230  HIS230      0.1986
    133  NE2       39.0370   26.4740   17.0810 N.ar  230  HIS230     -0.2212
    134  N         35.1200   22.7380   13.8380 N.3   232  TYR232     -0.1241
    135  CA        34.0410   23.4950   13.2230 C.3   232  TYR232      0.1605
    136  C         32.9230   22.5570   12.7750 C.2   232  TYR232      0.2264
    137  O         33.1820   21.4710   12.2500 O.2   232  TYR232     -0.2867
    138  CB        34.5960   24.3210   12.0650 C.3   232  TYR232      0.0534
    139  CG        35.4060   25.4720   12.5950 C.ar  232  TYR232     -0.0201
    140  CD1       34.7840   26.6520   12.9510 C.ar  232  TYR232     -0.0009
    141  CD2       36.7780   25.3550   12.8220 C.ar  232  TYR232     -0.0009
    142  CE1       35.4980   27.7060   13.4720 C.ar  232  TYR232      0.0417
    143  CE2       37.4960   26.4070   13.3450 C.ar  232  TYR232      0.0417
    144  CZ        36.8380   27.5750   13.6680 C.ar  232  TYR232      0.1957
    145  OH        37.5230   28.6350   14.1850 O.3   232  TYR232     -0.2866
@<TRIPOS>BOND
     1    12    13    2
     2    12    11    1
     3    10    11    1
     4    11    14    1
     5    14    15    1
     6     1     2    1
     7   114   115   ar
     8   114   112   ar
     9    15    16   ar
    10    15    17   ar
    11     2     5    1
    12     2     3    1
    13    16    18   ar
    14   115   113   ar
    15   112   110   ar
    16     5     6    1
    17    17    20   ar
    18    17    19   ar
    19     3     4    2
    20    18    19   ar
    21     6     7    1
    22    20    22   ar
    23   113   111   ar
    24   110   111   ar
    25   110   109    1
    26    19    21   ar
    27     7     9   ar
    28     7     8   ar
    29   109   106    1
    30    22    23   ar
    31   106   105    1
    32   106   107    1
    33    21    23   ar
    34   138   139    1
    35   138   135    1
    36   100    98   ar
    37   137   136    2
    38   101   102    1
    39   139   141   ar
    40   139   140   ar
    41   136   135    1
    42   141   143   ar
    43   102   103    1
    44   107   108    2
    45   107   116   am
    46   140   142   ar
    47    98    99   ar
    48    98    97    1
    49   135   134    1
    50   143   144   ar
    51   142   144   ar
    52   104   103    2
    53   144   145    1
    54    43    41    1
    55   116   117    1
    56    40    41    1
    57    40    37    1
    58    97    94    1
    59    36    37    1
    60    41    42    1
    61   123   121   am
    62    96    95    2
    63    37    38    1
    64   117   118    1
    65   117   120    1
    66    95    94    1
    67    31    33   ar
    68    31    29   ar
    69    94    93    1
    70    33    34   ar
    71   121   122    2
    72   121   120    1
    73    66    65   ar
    74    66    64   ar
    75   118   119    2
    76    39    38    2
    77    28    29    1
    78    28    25    1
    79    38    44   am
    80    24    25    1
    81    29    30   ar
    82    65    63   ar
    83    26    25    1
    84    26    27    2
    85    34    35    1
    86    34    32   ar
    87   127   126    2
    88    64    62   ar
    89    56    55    1
    90   131   133   ar
    91   131   129   ar
    92   133   132   ar
    93    44    50    1
    94    44    45    1
    95   126   125    1
    96    30    32   ar
    97    50    49    1
    98    63    62   ar
    99    47    46    2
   100    62    61    1
   101    55    52    1
   102    75    73   am
   103   132   130   ar
   104   129   128    1
   105   129   130   ar
   106    46    45    1
   107    45    48    1
   108    51    52    1
   109   125   128    1
   110   125   124    1
   111    90    89    2
   112    49    48    1
   113    86    84    1
   114    73    74    2
   115    73    72    1
   116    52    53    1
   117    92    91    1
   118    61    58    1
   119    57    53   am
   120    57    58    1
   121    89    88    1
   122    53    54    2
   123    91    88    1
   124    58    59    1
   125    84    85    1
   126    84    83    2
   127    72    71    1
   128    60    59    2
   129    88    87    1
   130    83    82    1
   131    71    68    1
   132    87    78   am
   133    81    82    1
   134    81    80    1
   135    68    69    1
   136    68    67    1
   137    78    79    2
   138    78    77    1
   139    76    69   am
   140    76    77    1
   141    69    70    2
   142    77    80    1
