@<TRIPOS>MOLECULE
tmp/5m51A00.pdb
 158 150 0 0 0
SMALL
GASTEIGER

@<TRIPOS>ATOM
      1  N         32.5830  -10.9330   18.0130 N.3    12  ILE12      -0.1231
      2  CA        31.8100   -9.7140   17.7930 C.3    12  ILE12       0.1692
      3  C         30.3970  -10.0640   17.3520 C.2    12  ILE12       0.2593
      4  O         29.4390   -9.8460   18.0910 O.2    12  ILE12      -0.2718
      5  CB        32.4610   -8.8000   16.7300 C.3    12  ILE12       0.0266
      6  CG1       33.8560   -8.3730   17.1770 C.3    12  ILE12       0.0019
      7  CG2       31.6070   -7.5790   16.4850 C.3    12  ILE12       0.0020
      8  CD1       34.5780   -7.4780   16.1740 C.3    12  ILE12       0.0001
      9  N         30.2750  -10.6110   16.1460 N.am   13  GLY13      -0.1942
     10  CA        28.9880  -11.0370   15.6220 C.3    13  GLY13       0.2014
     11  C         29.1350  -11.8430   14.3440 C.2    13  GLY13       0.2640
     12  O         30.2540  -12.1730   13.9330 O.2    13  GLY13      -0.2714
     13  N         28.0090  -12.1540   13.7090 N.am   14  THR14      -0.1936
     14  CA        28.0030  -12.9860   12.5080 C.3    14  THR14       0.2028
     15  C         27.2690  -12.3150   11.3510 C.2    14  THR14       0.2642
     16  O         26.1270  -11.8970   11.5060 O.2    14  THR14      -0.2714
     17  CB        27.3450  -14.3570   12.7790 C.3    14  THR14       0.1808
     18  OG1       28.1450  -15.1020   13.7060 O.3    14  THR14      -0.2208
     19  CG2       27.2140  -15.1520   11.4900 C.3    14  THR14       0.0379
     20  N         27.9190  -12.2300   10.1920 N.am   15  GLY15      -0.1954
     21  CA        27.3250  -11.5990    9.0230 C.3    15  GLY15       0.1869
     22  C         27.2080  -12.4900    7.7950 C.2    15  GLY15       0.2309
     23  O         26.9070  -13.6750    7.9090 O.2    15  GLY15      -0.2863
     24  N         29.4480  -13.4860    4.9860 N.3    17  TYR17      -0.1241
     25  CA        30.4970  -14.4790    4.7680 C.3    17  TYR17       0.1605
     26  C         30.5600  -15.5000    5.8980 C.2    17  TYR17       0.2264
     27  O         30.9770  -16.6370    5.6980 O.2    17  TYR17      -0.2867
     28  CB        31.8340  -13.7570    4.6510 C.3    17  TYR17       0.0534
     29  CG        31.8710  -12.6050    5.6210 C.ar   17  TYR17      -0.0201
     30  CD1       31.4780  -11.3260    5.2330 C.ar   17  TYR17      -0.0009
     31  CD2       32.2280  -12.8090    6.9430 C.ar   17  TYR17      -0.0009
     32  CE1       31.4740  -10.2850    6.1280 C.ar   17  TYR17       0.0417
     33  CE2       32.2280  -11.7800    7.8420 C.ar   17  TYR17       0.0417
     34  CZ        31.8540  -10.5180    7.4310 C.ar   17  TYR17       0.1957
     35  OH        31.8550   -9.4920    8.3380 O.3    17  TYR17      -0.2866
     36  N         32.5440  -13.1310   12.7000 N.3    20  CYS20      -0.1235
     37  CA        33.6150  -12.1430   12.8580 C.3    20  CYS20       0.1677
     38  C         34.0510  -12.0410   14.3210 C.2    20  CYS20       0.2270
     39  O         33.2150  -11.9030   15.2180 O.2    20  CYS20      -0.2867
     40  CB        33.1650  -10.7690   12.3440 C.3    20  CYS20       0.0956
     41  SG        34.3400   -9.4200   12.6870 S.3    20  CYS20      -0.0801
     42  N         40.4840   -7.7680   13.5810 N.3    33  VAL33      -0.1245
     43  CA        39.3950   -8.7470   13.4840 C.3    33  VAL33       0.1561
     44  C         39.7170   -9.7830   12.4180 C.2    33  VAL33       0.2260
     45  O         40.5720   -9.5580   11.5650 O.2    33  VAL33      -0.2867
     46  CB        38.0260   -8.1220   13.1120 C.3    33  VAL33       0.0252
     47  CG1       37.6330   -7.0030   14.0910 C.3    33  VAL33       0.0019
     48  CG2       38.0560   -7.6150   11.6840 C.3    33  VAL33       0.0019
     49  N         37.4770  -12.4710    9.6050 N.3    35  LYS35      -0.1245
     50  CA        36.2280  -12.9440    9.0600 C.3    35  LYS35       0.1561
     51  C         36.3770  -14.3930    8.6410 C.2    35  LYS35       0.2260
     52  O         37.2650  -14.7270    7.8590 O.2    35  LYS35      -0.2867
     53  CB        35.8140  -12.0990    7.8570 C.3    35  LYS35       0.0271
     54  CG        36.0160  -10.5950    8.0300 C.3    35  LYS35       0.0035
     55  CD        34.9110   -9.9640    8.8440 C.3    35  LYS35       0.0206
     56  CE        34.7560   -8.4950    8.4610 C.3    35  LYS35       0.1093
     57  NZ        33.5400   -7.8430    9.0000 N.3    35  LYS35      -0.1314
     58  N         38.6000   -0.4070    4.8870 N.3    66  VAL66      -0.1245
     59  CA        39.0850   -1.2980    5.9440 C.3    66  VAL66       0.1561
     60  C         40.3400   -2.0270    5.4450 C.2    66  VAL66       0.2260
     61  O         40.3340   -2.6270    4.3780 O.2    66  VAL66      -0.2867
     62  CB        37.9980   -2.3010    6.3830 C.3    66  VAL66       0.0252
     63  CG1       38.5710   -3.3700    7.3060 C.3    66  VAL66       0.0019
     64  CG2       36.8310   -1.5570    7.0600 C.3    66  VAL66       0.0019
     65  N         41.6680   -8.4150    9.2550 N.3    84  MET84      -0.1230
     66  CA        41.5470   -7.0290    8.8370 C.3    84  MET84       0.1702
     67  C         41.5570   -6.0700   10.0080 C.2    84  MET84       0.2592
     68  O         41.4170   -6.4590   11.1690 O.2    84  MET84      -0.2718
     69  CB        40.2590   -6.8380    8.0240 C.3    84  MET84       0.0401
     70  CG        40.3570   -7.3430    6.5780 C.3    84  MET84       0.0596
     71  SD        38.7900   -7.1580    5.7150 S.3    84  MET84      -0.1393
     72  CE        37.6910   -7.6010    7.0550 C.3    84  MET84       0.0692
     73  N         41.7410   -4.8030    9.6700 N.am   85  GLU85      -0.1966
     74  CA        41.6380   -3.7030   10.6090 C.3    85  GLU85       0.1733
     75  C         40.3880   -3.7870   11.4970 C.2    85  GLU85       0.2616
     76  O         39.2730   -4.0270   11.0180 O.2    85  GLU85      -0.2715
     77  CB        41.6530   -2.3950    9.8130 C.3    85  GLU85       0.0429
     78  CG        41.3870   -1.1260   10.5910 C.3    85  GLU85       0.1163
     79  CD        41.5040    0.1040    9.6970 C.2    85  GLU85       0.3649
     80  OE1       41.4690   -0.0450    8.4490 O.co2  85  GLU85      -0.2457
     81  OE2       41.6520    1.2210   10.2400 O.co2  85  GLU85      -0.2457
     82  N         40.6040   -3.6180   12.7980 N.am   86  TYR86      -0.1960
     83  CA        39.5350   -3.4470   13.7650 C.3    86  TYR86       0.1771
     84  C         39.1060   -1.9830   13.7840 C.2    86  TYR86       0.2620
     85  O         39.9530   -1.0970   13.8570 O.2    86  TYR86      -0.2715
     86  CB        39.9930   -3.8860   15.1620 C.3    86  TYR86       0.0574
     87  CG        38.9910   -3.5740   16.2440 C.ar   86  TYR86      -0.0198
     88  CD1       37.7340   -4.1500   16.2250 C.ar   86  TYR86      -0.0009
     89  CD2       39.2990   -2.7020   17.2800 C.ar   86  TYR86      -0.0009
     90  CE1       36.8060   -3.8680   17.2020 C.ar   86  TYR86       0.0417
     91  CE2       38.3720   -2.4140   18.2670 C.ar   86  TYR86       0.0417
     92  CZ        37.1280   -3.0020   18.2200 C.ar   86  TYR86       0.1957
     93  OH        36.1880   -2.7320   19.1900 O.3    86  TYR86      -0.2866
     94  N         37.8010   -1.7290   13.7070 N.am   87  CYS87      -0.1954
     95  CA        37.2950   -0.3530   13.6400 C.3    87  CYS87       0.1843
     96  C         36.5890    0.0160   14.9340 C.2    87  CYS87       0.2625
     97  O         35.4450   -0.3680   15.1670 O.2    87  CYS87      -0.2714
     98  CB        36.3630   -0.1770   12.4410 C.3    87  CYS87       0.0997
     99  SG        37.2390   -0.2750   10.8670 S.3    87  CYS87      -0.0797
    100  N         37.3050    0.7640   15.7660 N.am   88  GLU88      -0.1963
    101  CA        36.9140    1.0430   17.1400 C.3    88  GLU88       0.1733
    102  C         35.5570    1.7450   17.2500 C.2    88  GLU88       0.2617
    103  O         34.8030    1.5060   18.1970 O.2    88  GLU88      -0.2715
    104  CB        38.0130    1.8770   17.8060 C.3    88  GLU88       0.0429
    105  CG        37.7390    2.2950   19.2300 C.3    88  GLU88       0.1163
    106  CD        38.7460    3.3200   19.7420 C.2    88  GLU88       0.3649
    107  OE1       39.7380    3.6180   19.0290 O.co2  88  GLU88      -0.2457
    108  OE2       38.5430    3.8250   20.8670 O.co2  88  GLU88      -0.2457
    109  N         35.2410    2.5880   16.2690 N.am   89  GLY89      -0.1940
    110  CA        34.0340    3.3880   16.3210 C.3    89  GLY89       0.2014
    111  C         32.7410    2.7040   15.9080 C.2    89  GLY89       0.2639
    112  O         31.6940    3.3470   15.8910 O.2    89  GLY89      -0.2714
    113  N         32.7920    1.4180   15.5650 N.am   90  GLY90      -0.1939
    114  CA        31.5800    0.7030   15.1750 C.3    90  GLY90       0.2014
    115  C         31.1210    1.0190   13.7530 C.2    90  GLY90       0.2638
    116  O         31.9230    1.4380   12.9250 O.2    90  GLY90      -0.2714
    117  N         29.8380    0.8240   13.4560 N.am   91  ASP91      -0.1971
    118  CA        29.3320    1.1130   12.1060 C.3    91  ASP91       0.1709
    119  C         28.3500    2.2870   12.0620 C.2    91  ASP91       0.2293
    120  O         27.9250    2.7920   13.1070 O.2    91  ASP91      -0.2864
    121  CB        28.6840   -0.1470   11.4880 C.3    91  ASP91       0.1436
    122  CG        27.5500   -0.7190   12.3240 C.2    91  ASP91       0.3671
    123  OD1       26.5900    0.0020   12.6610 O.co2  91  ASP91      -0.2456
    124  OD2       27.6100   -1.9280   12.6280 O.co2  91  ASP91      -0.2456
    125  N         24.5250    1.9760   13.5090 N.3    94  SER94      -0.1217
    126  CA        24.4170    2.2620   14.9380 C.3    94  SER94       0.1889
    127  C         24.3200    3.7550   15.2000 C.2    94  SER94       0.2288
    128  O         23.5960    4.1770   16.0930 O.2    94  SER94      -0.2866
    129  CB        25.6160    1.6820   15.6920 C.3    94  SER94       0.2089
    130  OG        25.6680    0.2700   15.5390 O.3    94  SER94      -0.2183
    131  N         25.5290   -0.6370    7.5010 N.3   143  ALA143     -0.1245
    132  CA        26.1750   -1.6990    8.2690 C.3   143  ALA143      0.1562
    133  C         27.5330   -2.0930    7.6940 C.2   143  ALA143      0.2260
    134  O         28.3340   -2.7350    8.3740 O.2   143  ALA143     -0.2867
    135  CB        25.2680   -2.9210    8.3480 C.3   143  ALA143      0.0290
    136  N         32.1170    1.3320    8.4520 N.3   146  PHE146     -0.1241
    137  CA        32.6360    1.3510    9.8090 C.3   146  PHE146      0.1605
    138  C         33.3410    2.6590   10.1080 C.2   146  PHE146      0.2264
    139  O         33.5950    3.4600    9.2100 O.2   146  PHE146     -0.2867
    140  CB        33.5850    0.1750   10.0170 C.3   146  PHE146      0.0534
    141  CG        32.9830   -1.1450    9.6600 C.ar  146  PHE146     -0.0203
    142  CD1       33.2660   -1.7490    8.4450 C.ar  146  PHE146     -0.0042
    143  CD2       32.1150   -1.7760   10.5300 C.ar  146  PHE146     -0.0042
    144  CE1       32.6920   -2.9640    8.1170 C.ar  146  PHE146     -0.0003
    145  CE2       31.5510   -2.9910   10.2110 C.ar  146  PHE146     -0.0003
    146  CZ        31.8370   -3.5840    9.0030 C.ar  146  PHE146     -0.0000
    147  N         33.9560   -1.2470    4.3320 N.3   156  GLY156     -0.1210
    148  CA        34.3680   -2.6380    4.4180 C.3   156  GLY156      0.1956
    149  C         33.3800   -3.5970    3.8120 C.2   156  GLY156      0.2611
    150  O         32.4260   -3.1790    3.1640 O.2   156  GLY156     -0.2717
    151  N         33.6210   -4.8910    4.0310 N.am  157  ASP157     -0.1973
    152  CA        32.6900   -5.9510    3.6570 C.3   157  ASP157      0.1709
    153  C         32.1740   -5.7770    2.2370 C.2   157  ASP157      0.2293
    154  O         30.9970   -5.4920    2.0160 O.2   157  ASP157     -0.2864
    155  CB        31.5200   -6.0080    4.6370 C.3   157  ASP157      0.1436
    156  CG        31.9300   -6.5180    6.0120 C.2   157  ASP157      0.3671
    157  OD1       33.1440   -6.6830    6.2590 O.co2 157  ASP157     -0.2456
    158  OD2       31.0390   -6.7560    6.8490 O.co2 157  ASP157     -0.2456
@<TRIPOS>BOND
     1   154   153    2
     2   153   152    1
     3   150   149    2
     4   152   151    1
     5   152   155    1
     6   149   151   am
     7   149   148    1
     8   147   148    1
     9    61    60    2
    10   155   156    1
    11    28    25    1
    12    28    29    1
    13    25    24    1
    14    25    26    1
    15    58    59    1
    16    30    29   ar
    17    30    32   ar
    18    60    59    1
    19    29    31   ar
    20    27    26    2
    21    71    70    1
    22    71    72    1
    23    59    62    1
    24   156   157   ar
    25   156   158   ar
    26    32    34   ar
    27    62    64    1
    28    62    63    1
    29    70    69    1
    30    31    33   ar
    31    34    33   ar
    32    34    35    1
    33   131   132    1
    34   133   132    1
    35   133   134    2
    36    22    23    2
    37    22    21    1
    38    53    54    1
    39    53    50    1
    40    52    51    2
    41    69    66    1
    42    54    55    1
    43   144   142   ar
    44   144   146   ar
    45   132   135    1
    46   142   141   ar
    47    80    79   ar
    48   136   137    1
    49    56    55    1
    50    56    57    1
    51    51    50    1
    52    66    65    1
    53    66    67    1
    54   146   145   ar
    55    21    20    1
    56    50    49    1
    57   139   138    2
    58   141   140    1
    59   141   143   ar
    60    73    67   am
    61    73    74    1
    62    79    81   ar
    63    79    78    1
    64   137   140    1
    65   137   138    1
    66    77    78    1
    67    77    74    1
    68    67    68    2
    69    20    15   am
    70   145   143   ar
    71    74    75    1
    72    99    98    1
    73    76    75    2
    74    15    16    2
    75    15    14    1
    76   121   118    1
    77   121   122    1
    78    19    17    1
    79    75    82   am
    80    45    44    2
    81    48    46    1
    82   119   118    1
    83   119   120    2
    84   118   117    1
    85   122   124   ar
    86   122   123   ar
    87    40    41    1
    88    40    37    1
    89    44    43    1
    90    98    95    1
    91    14    17    1
    92    14    13    1
    93    36    37    1
    94    17    18    1
    95    82    83    1
    96    37    38    1
    97   116   115    2
    98    46    43    1
    99    46    47    1
   100   117   115   am
   101    43    42    1
   102   125   126    1
   103    95    94    1
   104    95    96    1
   105    94    84   am
   106    13    11   am
   107   115   114    1
   108    83    84    1
   109    83    86    1
   110    84    85    2
   111    12    11    2
   112    38    39    2
   113    11    10    1
   114    96    97    2
   115    96   100   am
   116   126   127    1
   117   126   129    1
   118    86    87    1
   119   114   113    1
   120   127   128    2
   121   130   129    1
   122   113   111   am
   123    10     9    1
   124   100   101    1
   125   112   111    2
   126   111   110    1
   127     9     3   am
   128     8     6    1
   129    88    87   ar
   130    88    90   ar
   131    87    89   ar
   132   109   110    1
   133   109   102   am
   134     7     5    1
   135     5     6    1
   136     5     2    1
   137   101   102    1
   138   101   104    1
   139    90    92   ar
   140   102   103    2
   141    89    91   ar
   142     3     2    1
   143     3     4    2
   144     2     1    1
   145   104   105    1
   146    92    91   ar
   147    92    93    1
   148   107   106   ar
   149   105   106    1
   150   106   108   ar
