@<TRIPOS>MOLECULE
tmp/5m53A01.pdb
 101 100 0 0 0
SMALL
GASTEIGER

@<TRIPOS>ATOM
      1  N         38.2630  -13.1060   -5.5730 N.3    46  GLU46      -0.1245
      2  CA        37.5950  -11.9470   -4.9850 C.3    46  GLU46       0.1567
      3  C         38.3900  -11.3730   -3.8290 C.2    46  GLU46       0.2260
      4  O         38.5860  -10.1650   -3.7340 O.2    46  GLU46      -0.2867
      5  CB        36.1840  -12.2960   -4.5060 C.3    46  GLU46       0.0388
      6  CG        35.1880  -12.5970   -5.5980 C.3    46  GLU46       0.1160
      7  CD        33.7980  -12.8700   -5.0430 C.2    46  GLU46       0.3649
      8  OE1       33.6290  -13.8340   -4.2590 O.co2  46  GLU46      -0.2457
      9  OE2       32.8740  -12.0990   -5.3780 O.co2  46  GLU46      -0.2457
     10  N         41.3370   -9.5710   -5.0340 N.3    49  LEU49      -0.1231
     11  CA        40.9120   -8.2840   -5.5870 C.3    49  LEU49       0.1693
     12  C         40.7300   -7.2670   -4.4560 C.2    49  LEU49       0.2591
     13  O         41.3590   -6.2070   -4.4370 O.2    49  LEU49      -0.2718
     14  CB        39.6260   -8.4610   -6.3870 C.3    49  LEU49       0.0284
     15  CG        39.0780   -7.2220   -7.0700 C.3    49  LEU49       0.0019
     16  CD1       40.0760   -6.6670   -8.0720 C.3    49  LEU49       0.0001
     17  CD2       37.7690   -7.5590   -7.7450 C.3    49  LEU49       0.0001
     18  N         39.8960   -7.6230   -3.4870 N.am   50  LEU50      -0.1980
     19  CA        39.5740   -6.7180   -2.3930 C.3    50  LEU50       0.1596
     20  C         40.7840   -6.3860   -1.5150 C.2    50  LEU50       0.2287
     21  O         40.8890   -5.2700   -1.0000 O.2    50  LEU50      -0.2864
     22  CB        38.4360   -7.3120   -1.5570 C.3    50  LEU50       0.0297
     23  CG        37.1780   -7.4500   -2.4210 C.3    50  LEU50       0.0022
     24  CD1       36.1850   -8.4340   -1.8520 C.3    50  LEU50       0.0001
     25  CD2       36.5180   -6.0780   -2.6110 C.3    50  LEU50       0.0001
     26  N         42.0910   -3.3470  -11.0020 N.3   126  HIS126     -0.1226
     27  CA        40.7640   -3.6630  -11.5220 C.3   126  HIS126      0.1752
     28  C         39.6800   -2.9520  -10.7100 C.2   126  HIS126      0.2597
     29  O         39.7420   -2.9330   -9.4840 O.2   126  HIS126     -0.2718
     30  CB        40.5260   -5.1770  -11.5120 C.3   126  HIS126      0.0759
     31  CG        39.3820   -5.6100  -12.3660 C.ar  126  HIS126      0.0818
     32  ND1       39.5230   -5.9290  -13.6950 N.ar  126  HIS126     -0.2268
     33  CD2       38.0820   -5.8170  -12.0660 C.ar  126  HIS126      0.1154
     34  CE1       38.3690   -6.3520  -14.1770 C.ar  126  HIS126      0.1986
     35  NE2       37.4760   -6.2970  -13.2060 N.ar  126  HIS126     -0.2212
     36  N         38.7100   -2.3620  -11.4050 N.am  127  THR127     -0.1939
     37  CA        37.5570   -1.7000  -10.7780 C.3   127  THR127      0.2028
     38  C         36.8410   -2.6210   -9.7900 C.2   127  THR127      0.2642
     39  O         36.6220   -3.7880  -10.0860 O.2   127  THR127     -0.2714
     40  CB        36.5330   -1.2250  -11.8490 C.3   127  THR127      0.1808
     41  OG1       37.0780   -0.1200  -12.5780 O.3   127  THR127     -0.2208
     42  CG2       35.2100   -0.7850  -11.2100 C.3   127  THR127      0.0379
     43  N         36.4920   -2.1160   -8.6090 N.am  128  VAL128     -0.1963
     44  CA        35.5910   -2.8810   -7.7610 C.3   128  VAL128      0.1727
     45  C         34.3560   -2.0520   -7.4120 C.2   128  VAL128      0.2616
     46  O         34.4140   -0.8250   -7.3020 O.2   128  VAL128     -0.2715
     47  CB        36.2860   -3.4210   -6.4720 C.3   128  VAL128      0.0290
     48  CG1       37.8040   -3.3090   -6.5620 C.3   128  VAL128      0.0023
     49  CG2       35.7460   -2.7710   -5.2030 C.3   128  VAL128      0.0023
     50  N         33.2330   -2.7490   -7.2990 N.am  129  LEU129     -0.1963
     51  CA        31.9850   -2.1640   -6.8530 C.3   129  LEU129      0.1728
     52  C         31.7310   -2.6850   -5.4510 C.2   129  LEU129      0.2616
     53  O         32.0830   -3.8260   -5.1560 O.2   129  LEU129     -0.2715
     54  CB        30.8370   -2.5380   -7.7950 C.3   129  LEU129      0.0311
     55  CG        31.0710   -2.1740   -9.2600 C.3   129  LEU129      0.0022
     56  CD1       29.8820   -2.5610  -10.1290 C.3   129  LEU129      0.0001
     57  CD2       31.3710   -0.6930   -9.3760 C.3   129  LEU129      0.0001
     58  N         31.1410   -1.8750   -4.5770 N.am  130  HIS130     -0.1959
     59  CA        30.9670   -2.3390   -3.2070 C.3   130  HIS130      0.1787
     60  C         29.8900   -3.4220   -3.1160 C.2   130  HIS130      0.2620
     61  O         30.1150   -4.4750   -2.5000 O.2   130  HIS130     -0.2715
     62  CB        30.6300   -1.1910   -2.2520 C.3   130  HIS130      0.0785
     63  CG        30.6340   -1.6120   -0.8170 C.ar  130  HIS130      0.0821
     64  ND1       29.5440   -2.2060   -0.2140 N.ar  130  HIS130     -0.2267
     65  CD2       31.6190   -1.6050    0.1130 C.ar  130  HIS130      0.1154
     66  CE1       29.8450   -2.5050    1.0360 C.ar  130  HIS130      0.1986
     67  NE2       31.1000   -2.1500    1.2610 N.ar  130  HIS130     -0.2212
     68  N         28.7270   -3.1430   -3.7120 N.am  131  ARG131     -0.1977
     69  CA        27.6200   -4.1020   -3.8630 C.3   131  ARG131      0.1597
     70  C         26.8110   -4.3810   -2.5930 C.2   131  ARG131      0.2287
     71  O         25.8420   -5.1290   -2.6440 O.2   131  ARG131     -0.2864
     72  CB        28.1160   -5.4500   -4.4210 C.3   131  ARG131      0.0334
     73  CG        28.8300   -5.3540   -5.7630 C.3   131  ARG131      0.0492
     74  CD        29.3320   -6.7250   -6.2510 C.3   131  ARG131      0.2205
     75  NE        30.1680   -6.5980   -7.4480 N.pl3 131  ARG131     -0.0865
     76  CZ        29.6920   -6.6160   -8.6880 C.cat 131  ARG131      0.5346
     77  NH1       28.3950   -6.7660   -8.8900 N.pl3 131  ARG131      0.1354
     78  NH2       30.5060   -6.4860   -9.7270 N.pl3 131  ARG131      0.1354
     79  N         32.7070   -5.5560    2.0280 N.3   151  PHE151     -0.1227
     80  CA        32.3940   -5.5350    0.6020 C.3   151  PHE151      0.1736
     81  C         31.5560   -6.7520    0.2080 C.2   151  PHE151      0.2596
     82  O         31.7620   -7.8440    0.7260 O.2   151  PHE151     -0.2718
     83  CB        33.6790   -5.4840   -0.2210 C.3   151  PHE151      0.0547
     84  CG        34.2770   -4.1070   -0.3130 C.ar  151  PHE151     -0.0202
     85  CD1       34.7780   -3.4700    0.8220 C.ar  151  PHE151     -0.0042
     86  CD2       34.3220   -3.4460   -1.5250 C.ar  151  PHE151     -0.0042
     87  CE1       35.3360   -2.2000    0.7410 C.ar  151  PHE151     -0.0003
     88  CE2       34.8670   -2.1750   -1.6170 C.ar  151  PHE151     -0.0003
     89  CZ        35.3750   -1.5470   -0.4830 C.ar  151  PHE151     -0.0000
     90  N         30.5940   -6.5470   -0.6880 N.am  152  GLY152     -0.1942
     91  CA        29.6810   -7.6060   -1.0760 C.3   152  GLY152      0.2014
     92  C         30.3990   -8.6780   -1.8790 C.2   152  GLY152      0.2638
     93  O         31.0330   -8.3840   -2.8940 O.2   152  GLY152     -0.2714
     94  N         30.3010   -9.9230   -1.4250 N.am  153  LEU153     -0.1977
     95  CA        30.9800  -11.0330   -2.0910 C.3   153  LEU153      0.1596
     96  C         30.0530  -11.7640   -3.0560 C.2   153  LEU153      0.2287
     97  O         28.9420  -12.1390   -2.6890 O.2   153  LEU153     -0.2864
     98  CB        31.5330  -12.0080   -1.0560 C.3   153  LEU153      0.0297
     99  CG        32.6050  -11.4350   -0.1330 C.3   153  LEU153      0.0022
    100  CD1       33.2110  -12.5300    0.7320 C.3   153  LEU153      0.0001
    101  CD2       33.6780  -10.7510   -0.9500 C.3   153  LEU153      0.0001
@<TRIPOS>BOND
     1    34    32   ar
     2    34    35   ar
     3    32    31   ar
     4    35    33   ar
     5    41    40    1
     6    31    33   ar
     7    31    30    1
     8    40    42    1
     9    40    37    1
    10    27    30    1
    11    27    26    1
    12    27    28    1
    13    36    37    1
    14    36    28   am
    15    37    38    1
    16    28    29    2
    17    56    55    1
    18    39    38    2
    19    38    43   am
    20    78    76    1
    21    57    55    1
    22    55    54    1
    23    77    76    1
    24    76    75    2
    25    43    44    1
    26    16    15    1
    27    54    51    1
    28    44    45    1
    29    44    47    1
    30    17    15    1
    31    75    74    1
    32    45    46    2
    33    45    50   am
    34    50    51    1
    35    15    14    1
    36    51    52    1
    37    48    47    1
    38    47    49    1
    39    14    11    1
    40    74    73    1
    41    73    72    1
    42     6     7    1
    43     6     5    1
    44    11    10    1
    45    11    12    1
    46     1     2    1
    47    52    53    2
    48    52    58   am
    49     9     7   ar
    50     7     8   ar
    51     2     5    1
    52     2     3    1
    53    58    59    1
    54    12    13    2
    55    12    18   am
    56    72    69    1
    57    69    68    1
    58    69    70    1
    59     3     4    2
    60    68    60   am
    61    18    19    1
    62    59    60    1
    63    59    62    1
    64    60    61    2
    65    96    97    2
    66    96    95    1
    67    93    92    2
    68    71    70    2
    69    25    23    1
    70    23    24    1
    71    23    22    1
    72    19    22    1
    73    19    20    1
    74    62    63    1
    75    95    94    1
    76    95    98    1
    77    92    94   am
    78    92    91    1
    79    88    86   ar
    80    88    89   ar
    81    86    84   ar
    82    20    21    2
    83    91    90    1
    84    98    99    1
    85   101    99    1
    86    63    64   ar
    87    63    65   ar
    88    90    81   am
    89    89    87   ar
    90    84    83    1
    91    84    85   ar
    92    83    80    1
    93    64    66   ar
    94    99   100    1
    95    65    67   ar
    96    81    80    1
    97    81    82    2
    98    80    79    1
    99    87    85   ar
   100    66    67   ar
