@<TRIPOS>MOLECULE
tmp/5m53A00.pdb
 158 150 0 0 0
SMALL
GASTEIGER

@<TRIPOS>ATOM
      1  N         31.9720  -10.5720   17.6120 N.3     8  ILE8       -0.1231
      2  CA        31.2100   -9.3390   17.4750 C.3     8  ILE8        0.1692
      3  C         29.8250   -9.6480   16.9390 C.2     8  ILE8        0.2593
      4  O         28.8270   -9.1340   17.4420 O.2     8  ILE8       -0.2718
      5  CB        31.9200   -8.3330   16.5450 C.3     8  ILE8        0.0266
      6  CG1       33.2860   -7.9610   17.1300 C.3     8  ILE8        0.0019
      7  CG2       31.0430   -7.0980   16.3190 C.3     8  ILE8        0.0020
      8  CD1       34.1820   -7.1450   16.1930 C.3     8  ILE8        0.0001
      9  N         29.7720  -10.4950   15.9160 N.am    9  GLY9       -0.1942
     10  CA        28.5160  -10.9290   15.3250 C.3     9  GLY9        0.2014
     11  C         28.7350  -11.7780   14.0840 C.2     9  GLY9        0.2640
     12  O         29.8680  -12.1390   13.7530 O.2     9  GLY9       -0.2714
     13  N         27.6490  -12.0920   13.3850 N.am   10  THR10      -0.1936
     14  CA        27.7260  -12.9140   12.1860 C.3    10  THR10       0.2028
     15  C         27.1590  -12.1830   10.9690 C.2    10  THR10       0.2642
     16  O         25.9930  -11.8080   10.9540 O.2    10  THR10      -0.2714
     17  CB        26.9750  -14.2480   12.3820 C.3    10  THR10       0.1808
     18  OG1       27.6970  -15.0750   13.3030 O.3    10  THR10      -0.2208
     19  CG2       26.8230  -14.9820   11.0590 C.3    10  THR10       0.0379
     20  N         27.9880  -11.9720    9.9520 N.am   11  GLY11      -0.1954
     21  CA        27.5240  -11.3580    8.7200 C.3    11  GLY11       0.1869
     22  C         27.1310  -12.4120    7.7020 C.2    11  GLY11       0.2309
     23  O         27.2450  -13.6030    7.9700 O.2    11  GLY11      -0.2863
     24  N         28.6420  -13.2240    5.1490 N.3    13  TYR13      -0.1241
     25  CA        29.8580  -13.8790    4.6620 C.3    13  TYR13       0.1605
     26  C         30.4110  -14.8740    5.6810 C.2    13  TYR13       0.2264
     27  O         31.3180  -15.6540    5.3800 O.2    13  TYR13      -0.2867
     28  CB        30.9210  -12.8290    4.3470 C.3    13  TYR13       0.0534
     29  CG        31.1000  -11.8510    5.4820 C.ar   13  TYR13      -0.0201
     30  CD1       31.8290  -12.1970    6.6150 C.ar   13  TYR13      -0.0009
     31  CD2       30.5170  -10.5900    5.4370 C.ar   13  TYR13      -0.0009
     32  CE1       31.9850  -11.3100    7.6680 C.ar   13  TYR13       0.0417
     33  CE2       30.6720   -9.6930    6.4790 C.ar   13  TYR13       0.0417
     34  CZ        31.4070  -10.0560    7.5960 C.ar   13  TYR13       0.1957
     35  OH        31.5670   -9.1690    8.6460 O.3    13  TYR13      -0.2866
     36  N         32.3980  -12.7280   12.4040 N.3    16  CYS16      -0.1235
     37  CA        33.4310  -11.7070   12.6020 C.3    16  CYS16       0.1677
     38  C         33.7740  -11.6470   14.0890 C.2    16  CYS16       0.2270
     39  O         32.8890  -11.5290   14.9360 O.2    16  CYS16      -0.2867
     40  CB        32.9640  -10.3380   12.0950 C.3    16  CYS16       0.0956
     41  SG        34.1260   -8.9600   12.3640 S.3    16  CYS16      -0.0801
     42  N         40.1710   -7.2680   13.8010 N.3    26  VAL26      -0.1245
     43  CA        39.1080   -8.2520   13.6440 C.3    26  VAL26       0.1561
     44  C         39.5450   -9.2290   12.5650 C.2    26  VAL26       0.2260
     45  O         40.4380   -8.9220   11.7780 O.2    26  VAL26      -0.2867
     46  CB        37.7480   -7.6330   13.2450 C.3    26  VAL26       0.0252
     47  CG1       37.3710   -6.4990   14.1780 C.3    26  VAL26       0.0019
     48  CG2       37.7870   -7.1700   11.7930 C.3    26  VAL26       0.0019
     49  N         37.6030  -11.8250    9.5550 N.3    28  LYS28      -0.1245
     50  CA        36.3930  -12.3600    8.9390 C.3    28  LYS28       0.1561
     51  C         36.6300  -13.8310    8.6180 C.2    28  LYS28       0.2260
     52  O         37.6150  -14.1770    7.9500 O.2    28  LYS28      -0.2867
     53  CB        36.0340  -11.5850    7.6680 C.3    28  LYS28       0.0271
     54  CG        36.0440  -10.0750    7.8370 C.3    28  LYS28       0.0035
     55  CD        34.7760   -9.5850    8.5270 C.3    28  LYS28       0.0206
     56  CE        34.8920   -8.1080    8.8560 C.3    28  LYS28       0.1093
     57  NZ        33.6340   -7.4640    9.2910 N.3    28  LYS28      -0.1314
     58  N         38.1220    0.1410    5.1820 N.3    59  VAL59      -0.1245
     59  CA        38.6450   -0.7100    6.2490 C.3    59  VAL59       0.1561
     60  C         39.9380   -1.3470    5.7660 C.2    59  VAL59       0.2260
     61  O         39.9680   -1.9280    4.6860 O.2    59  VAL59      -0.2867
     62  CB        37.6440   -1.8120    6.6640 C.3    59  VAL59       0.0252
     63  CG1       38.3310   -2.8220    7.5820 C.3    59  VAL59       0.0019
     64  CG2       36.4140   -1.2000    7.3390 C.3    59  VAL59       0.0019
     65  N         41.6020   -7.7150    9.5620 N.3    77  MET77      -0.1230
     66  CA        41.3480   -6.3290    9.1900 C.3    77  MET77       0.1702
     67  C         41.2810   -5.3690   10.3670 C.2    77  MET77       0.2592
     68  O         41.1050   -5.7580   11.5320 O.2    77  MET77      -0.2718
     69  CB        40.0350   -6.2080    8.4180 C.3    77  MET77       0.0401
     70  CG        39.9530   -6.9840    7.1260 C.3    77  MET77       0.0596
     71  SD        38.2620   -6.9180    6.4950 S.3    77  MET77      -0.1393
     72  CE        37.4540   -6.2810    7.9260 C.3    77  MET77       0.0692
     73  N         41.3920   -4.0940   10.0150 N.am   78  GLU78      -0.1966
     74  CA        41.2380   -2.9820   10.9320 C.3    78  GLU78       0.1733
     75  C         40.0000   -3.1320   11.8110 C.2    78  GLU78       0.2616
     76  O         38.9210   -3.4790   11.3270 O.2    78  GLU78      -0.2715
     77  CB        41.1810   -1.6770   10.1200 C.3    78  GLU78       0.0429
     78  CG        40.8880   -0.4180   10.9170 C.3    78  GLU78       0.1163
     79  CD        40.9130    0.8390   10.0510 C.2    78  GLU78       0.3649
     80  OE1       41.1420    0.7330    8.8210 O.co2  78  GLU78      -0.2457
     81  OE2       40.6980    1.9330   10.6090 O.co2  78  GLU78      -0.2457
     82  N         40.1620   -2.8960   13.1090 N.am   79  TYR79      -0.1960
     83  CA        39.0260   -2.8030   14.0190 C.3    79  TYR79       0.1771
     84  C         38.5900   -1.3510   14.0460 C.2    79  TYR79       0.2620
     85  O         39.4340   -0.4560   14.0880 O.2    79  TYR79      -0.2715
     86  CB        39.3920   -3.2890   15.4330 C.3    79  TYR79       0.0574
     87  CG        38.3100   -3.0760   16.4740 C.ar   79  TYR79      -0.0198
     88  CD1       37.1560   -3.8510   16.4760 C.ar   79  TYR79      -0.0009
     89  CD2       38.4440   -2.1020   17.4640 C.ar   79  TYR79      -0.0009
     90  CE1       36.1660   -3.6620   17.4290 C.ar   79  TYR79       0.0417
     91  CE2       37.4530   -1.9050   18.4230 C.ar   79  TYR79       0.0417
     92  CZ        36.3220   -2.6880   18.4040 C.ar   79  TYR79       0.1957
     93  OH        35.3340   -2.5040   19.3490 O.3    79  TYR79      -0.2866
     94  N         37.2840   -1.1120   13.9980 N.am   80  CYS80      -0.1954
     95  CA        36.7650    0.2540   13.9920 C.3    80  CYS80       0.1843
     96  C         36.0400    0.5500   15.2920 C.2    80  CYS80       0.2625
     97  O         34.8880    0.1730   15.4900 O.2    80  CYS80      -0.2714
     98  CB        35.8450    0.4710   12.7850 C.3    80  CYS80       0.0997
     99  SG        36.7060    0.2730   11.2150 S.3    80  CYS80      -0.0797
    100  N         36.7430    1.2390   16.1780 N.am   81  GLU81      -0.1963
    101  CA        36.2850    1.4990   17.5410 C.3    81  GLU81       0.1733
    102  C         34.9150    2.1790   17.6380 C.2    81  GLU81       0.2617
    103  O         34.1710    1.9380   18.5830 O.2    81  GLU81      -0.2715
    104  CB        37.3520    2.3380   18.2430 C.3    81  GLU81       0.0429
    105  CG        37.1330    2.6420   19.7040 C.3    81  GLU81       0.1163
    106  CD        38.1480    3.6580   20.2030 C.2    81  GLU81       0.3649
    107  OE1       39.1970    3.8070   19.5320 O.co2  81  GLU81      -0.2457
    108  OE2       37.9060    4.2970   21.2530 O.co2  81  GLU81      -0.2457
    109  N         34.5720    3.0100   16.6590 N.am   82  GLY82      -0.1940
    110  CA        33.3140    3.7420   16.7100 C.3    82  GLY82       0.2014
    111  C         32.0290    2.9900   16.3540 C.2    82  GLY82       0.2639
    112  O         30.9370    3.5520   16.4510 O.2    82  GLY82      -0.2714
    113  N         32.1340    1.7310   15.9470 N.am   83  GLY83      -0.1939
    114  CA        30.9400    0.9790   15.5810 C.3    83  GLY83       0.2014
    115  C         30.4860    1.2770   14.1560 C.2    83  GLY83       0.2638
    116  O         31.2950    1.6740   13.3250 O.2    83  GLY83      -0.2714
    117  N         29.1970    1.0930   13.8740 N.am   84  ASP84      -0.1971
    118  CA        28.6780    1.3160   12.5240 C.3    84  ASP84       0.1709
    119  C         27.7720    2.5610   12.4400 C.2    84  ASP84       0.2293
    120  O         27.3350    3.1020   13.4600 O.2    84  ASP84      -0.2864
    121  CB        27.9220    0.0660   12.0160 C.3    84  ASP84       0.1436
    122  CG        26.6720   -0.2590   12.8260 C.2    84  ASP84       0.3671
    123  OD1       26.2400    0.5410   13.6850 O.co2  84  ASP84      -0.2456
    124  OD2       26.0970   -1.3420   12.5820 O.co2  84  ASP84      -0.2456
    125  N         24.0250    2.4060   13.9790 N.3    87  SER87      -0.1217
    126  CA        23.8100    2.7190   15.3860 C.3    87  SER87       0.1889
    127  C         23.7190    4.2240   15.6170 C.2    87  SER87       0.2288
    128  O         23.0050    4.6800   16.5070 O.2    87  SER87      -0.2866
    129  CB        24.9310    2.1170   16.2350 C.3    87  SER87       0.2089
    130  OG        24.9590    0.7030   16.0960 O.3    87  SER87      -0.2183
    131  N         24.9680   -0.4640    7.9830 N.3   136  ALA136     -0.1245
    132  CA        25.6200   -1.5330    8.7430 C.3   136  ALA136      0.1562
    133  C         27.0090   -1.8930    8.2060 C.2   136  ALA136      0.2260
    134  O         27.7900   -2.5500    8.9050 O.2   136  ALA136     -0.2867
    135  CB        24.7290   -2.7860    8.7730 C.3   136  ALA136      0.0290
    136  N         31.6160    1.6650    8.8340 N.3   139  PHE139     -0.1241
    137  CA        32.1580    1.6620   10.1850 C.3   139  PHE139      0.1605
    138  C         32.8060    3.0030   10.4860 C.2   139  PHE139      0.2264
    139  O         33.0080    3.8250    9.5780 O.2   139  PHE139     -0.2867
    140  CB        33.1340    0.4830   10.3560 C.3   139  PHE139      0.0534
    141  CG        32.4950   -0.8520   10.0510 C.ar  139  PHE139     -0.0203
    142  CD1       31.5580   -1.4010   10.9160 C.ar  139  PHE139     -0.0042
    143  CD2       32.7870   -1.5240    8.8780 C.ar  139  PHE139     -0.0042
    144  CE1       30.9400   -2.6120   10.6290 C.ar  139  PHE139     -0.0003
    145  CE2       32.1750   -2.7320    8.5830 C.ar  139  PHE139     -0.0003
    146  CZ        31.2460   -3.2740    9.4600 C.ar  139  PHE139     -0.0000
    147  N         33.4220   -0.8750    4.7700 N.3   149  GLY149     -0.1210
    148  CA        33.8810   -2.2470    4.8700 C.3   149  GLY149      0.1956
    149  C         32.8430   -3.2520    4.4330 C.2   149  GLY149      0.2611
    150  O         31.8090   -2.8920    3.8760 O.2   149  GLY149     -0.2717
    151  N         33.1440   -4.5210    4.6950 N.am  150  ASP150     -0.1973
    152  CA        32.2700   -5.6370    4.3900 C.3   150  ASP150      0.1709
    153  C         31.7540   -5.5480    2.9620 C.2   150  ASP150      0.2293
    154  O         30.5400   -5.4660    2.7160 O.2   150  ASP150     -0.2864
    155  CB        31.1290   -5.7140    5.4120 C.3   150  ASP150      0.1436
    156  CG        31.5520   -6.4430    6.6960 C.2   150  ASP150      0.3671
    157  OD1       32.6940   -6.9640    6.7330 O.co2 150  ASP150     -0.2456
    158  OD2       30.7500   -6.5100    7.6570 O.co2 150  ASP150     -0.2456
@<TRIPOS>BOND
     1   154   153    2
     2   153   152    1
     3   150   149    2
     4    28    25    1
     5    28    29    1
     6   152   151    1
     7   152   155    1
     8   149   151   am
     9   149   148    1
    10    25    24    1
    11    25    26    1
    12    61    60    2
    13   147   148    1
    14    58    59    1
    15    27    26    2
    16   155   156    1
    17    31    29   ar
    18    31    33   ar
    19    29    30   ar
    20    60    59    1
    21    59    62    1
    22    33    34   ar
    23    71    70    1
    24    71    72    1
    25    30    32   ar
    26    62    64    1
    27    62    63    1
    28   156   157   ar
    29   156   158   ar
    30    70    69    1
    31    34    32   ar
    32    34    35    1
    33    53    54    1
    34    53    50    1
    35    22    23    2
    36    22    21    1
    37    54    55    1
    38    52    51    2
    39   131   132    1
    40   133   132    1
    41   133   134    2
    42    69    66    1
    43    55    56    1
    44   145   143   ar
    45   145   146   ar
    46    51    50    1
    47    21    20    1
    48   132   135    1
    49    80    79   ar
    50   136   137    1
    51    56    57    1
    52   143   141   ar
    53    50    49    1
    54    66    65    1
    55    66    67    1
    56   146   144   ar
    57   139   138    2
    58    20    15   am
    59    73    67   am
    60    73    74    1
    61    79    81   ar
    62    79    78    1
    63   141   140    1
    64   141   142   ar
    65    77    78    1
    66    77    74    1
    67   137   140    1
    68   137   138    1
    69    67    68    2
    70   144   142   ar
    71    74    75    1
    72    16    15    2
    73    15    14    1
    74    19    17    1
    75    99    98    1
    76    76    75    2
    77    45    44    2
    78    48    46    1
    79    75    82   am
    80   121   118    1
    81   121   122    1
    82    40    41    1
    83    40    37    1
    84    14    17    1
    85    14    13    1
    86    17    18    1
    87    36    37    1
    88   119   118    1
    89   119   120    2
    90   118   117    1
    91    44    43    1
    92   124   122   ar
    93    37    38    1
    94    98    95    1
    95   122   123   ar
    96    82    83    1
    97    46    43    1
    98    46    47    1
    99   116   115    2
   100    13    11   am
   101    43    42    1
   102    12    11    2
   103   117   115   am
   104   125   126    1
   105    95    94    1
   106    95    96    1
   107    94    84   am
   108    83    84    1
   109    83    86    1
   110    84    85    2
   111    11    10    1
   112    38    39    2
   113   115   114    1
   114    96    97    2
   115    96   100   am
   116    10     9    1
   117   126   127    1
   118   126   129    1
   119    86    87    1
   120   114   113    1
   121   127   128    2
   122     9     3   am
   123   113   111   am
   124   130   129    1
   125   100   101    1
   126     8     6    1
   127     7     5    1
   128   111   112    2
   129   111   110    1
   130    87    88   ar
   131    87    89   ar
   132    88    90   ar
   133     5     6    1
   134     5     2    1
   135   109   110    1
   136   109   102   am
   137     3     4    2
   138     3     2    1
   139    90    92   ar
   140    89    91   ar
   141     2     1    1
   142   101   102    1
   143   101   104    1
   144   102   103    2
   145   104   105    1
   146    92    91   ar
   147    92    93    1
   148   107   106   ar
   149   105   106    1
   150   106   108   ar
