@<TRIPOS>MOLECULE
tmp/5m55A00.pdb
 124 118 0 0 0
SMALL
GASTEIGER

@<TRIPOS>ATOM
      1  N         33.7840    8.9880  -18.0580 N.3    12  ILE12      -0.1231
      2  CA        32.7810    9.7370  -18.7940 C.3    12  ILE12       0.1692
      3  C         32.6620   11.1310  -18.2060 C.2    12  ILE12       0.2593
      4  O         32.7910   12.1280  -18.9190 O.2    12  ILE12      -0.2718
      5  CB        31.4150    9.0390  -18.7540 C.3    12  ILE12       0.0266
      6  CG1       31.3870    7.8610  -19.7200 C.3    12  ILE12       0.0019
      7  CG2       30.3040   10.0090  -19.0860 C.3    12  ILE12       0.0020
      8  CD1       30.1270    7.0130  -19.6000 C.3    12  ILE12       0.0001
      9  N         32.4120   11.1840  -16.8990 N.am   13  GLY13      -0.1942
     10  CA        32.3100   12.4370  -16.1720 C.3    13  GLY13       0.2014
     11  C         32.7530   12.2900  -14.7290 C.2    13  GLY13       0.2639
     12  O         32.7400   11.1880  -14.1780 O.2    13  GLY13      -0.2714
     13  N         33.1560   13.3990  -14.1150 N.am   14  THR14      -0.1950
     14  CA        33.5710   13.3910  -12.7150 C.3    14  THR14       0.1897
     15  C         32.8800   14.5010  -11.9330 C.2    14  THR14       0.2313
     16  O         31.6590   14.6460  -11.9870 O.2    14  THR14      -0.2863
     17  CB        35.0970   13.5610  -12.5660 C.3    14  THR14       0.1794
     18  OG1       35.7710   12.8970  -13.6420 O.3    14  THR14      -0.2208
     19  CG2       35.5730   12.9880  -11.2300 C.3    14  THR14       0.0378
     20  N         31.7960    8.7860  -12.9510 N.3    16  CYS16      -0.1235
     21  CA        31.1070    7.9470  -13.9260 C.3    16  CYS16       0.1677
     22  C         32.0920    7.3950  -14.9650 C.2    16  CYS16       0.2270
     23  O         32.8340    8.1550  -15.5940 O.2    16  CYS16      -0.2867
     24  CB        29.9990    8.7470  -14.6100 C.3    16  CYS16       0.0956
     25  SG        28.9120    7.7950  -15.7130 S.3    16  CYS16      -0.0801
     26  N         28.0890    1.0240  -17.6960 N.3    29  VAL29      -0.1245
     27  CA        28.7490    2.0880  -16.9580 C.3    29  VAL29       0.1561
     28  C         28.7000    1.7440  -15.4860 C.2    29  VAL29       0.2260
     29  O         27.9040    0.9050  -15.0800 O.2    29  VAL29      -0.2867
     30  CB        28.0820    3.4750  -17.1750 C.3    29  VAL29       0.0252
     31  CG1       27.8710    3.7530  -18.6420 C.3    29  VAL29       0.0019
     32  CG2       26.7470    3.5380  -16.4500 C.3    29  VAL29       0.0019
     33  N         28.9640    3.9450  -11.4410 N.3    31  LYS31      -0.1245
     34  CA        29.1120    5.1760  -10.6810 C.3    31  LYS31       0.1561
     35  C         29.9830    4.9550   -9.4450 C.2    31  LYS31       0.2260
     36  O         29.7320    4.0240   -8.6810 O.2    31  LYS31      -0.2867
     37  CB        27.7370    5.6960  -10.2660 C.3    31  LYS31       0.0271
     38  CG        27.2830    6.9440  -11.0050 C.3    31  LYS31       0.0035
     39  CD        26.8480    6.6410  -12.4390 C.3    31  LYS31       0.0206
     40  CE        26.0840    7.8220  -13.0600 C.3    31  LYS31       0.1093
     41  NZ        26.9070    9.0660  -13.1760 N.3    31  LYS31      -0.1314
     42  N         16.5500    3.7550  -17.1840 N.3    62  VAL62      -0.1245
     43  CA        17.9190    3.2710  -17.2030 C.3    62  VAL62       0.1561
     44  C         17.9720    2.0700  -16.2950 C.2    62  VAL62       0.2260
     45  O         17.4470    2.1020  -15.2010 O.2    62  VAL62      -0.2867
     46  CB        18.9600    4.3370  -16.7390 C.3    62  VAL62       0.0252
     47  CG1       20.3290    3.7100  -16.6100 C.3    62  VAL62       0.0019
     48  CG2       19.0310    5.4810  -17.7210 C.3    62  VAL62       0.0019
     49  N         25.4190    0.1070  -14.2210 N.3    80  MET80      -0.1230
     50  CA        24.2020    0.3610  -14.9760 C.3    80  MET80       0.1702
     51  C         24.3950    0.2310  -16.4710 C.2    80  MET80       0.2592
     52  O         25.5230    0.1780  -16.9550 O.2    80  MET80      -0.2718
     53  CB        23.6740    1.7590  -14.6530 C.3    80  MET80       0.0401
     54  CG        23.3630    1.9580  -13.1890 C.3    80  MET80       0.0596
     55  SD        22.9300    3.6510  -12.8410 S.3    80  MET80      -0.1393
     56  CE        24.2970    4.4900  -13.6330 C.3    80  MET80       0.0692
     57  N         23.2800    0.2100  -17.1980 N.am   81  GLU81      -0.1966
     58  CA        23.3140    0.1620  -18.6490 C.3    81  GLU81       0.1733
     59  C         23.9320    1.4370  -19.2360 C.2    81  GLU81       0.2616
     60  O         23.7830    2.5480  -18.7120 O.2    81  GLU81      -0.2715
     61  CB        21.9060   -0.0640  -19.2210 C.3    81  GLU81       0.0429
     62  CG        21.1490    1.1970  -19.6310 C.3    81  GLU81       0.1163
     63  CD        19.7000    0.9300  -20.0530 C.2    81  GLU81       0.3649
     64  OE1       18.8160    0.9330  -19.1770 O.co2  81  GLU81      -0.2457
     65  OE2       19.4330    0.7400  -21.2520 O.co2  81  GLU81      -0.2457
     66  N         24.6380    1.2490  -20.3360 N.am   82  TYR82      -0.1960
     67  CA        25.2360    2.3350  -21.0730 C.3    82  TYR82       0.1771
     68  C         24.2630    2.8500  -22.1400 C.2    82  TYR82       0.2620
     69  O         23.7600    2.0800  -22.9480 O.2    82  TYR82      -0.2715
     70  CB        26.5370    1.8600  -21.7040 C.3    82  TYR82       0.0574
     71  CG        27.1320    2.8410  -22.6680 C.ar   82  TYR82      -0.0198
     72  CD1       27.5220    4.0990  -22.2490 C.ar   82  TYR82      -0.0009
     73  CD2       27.3200    2.5020  -23.9900 C.ar   82  TYR82      -0.0009
     74  CE1       28.0740    4.9970  -23.1260 C.ar   82  TYR82       0.0417
     75  CE2       27.8720    3.3840  -24.8720 C.ar   82  TYR82       0.0417
     76  CZ        28.2490    4.6350  -24.4420 C.ar   82  TYR82       0.1957
     77  OH        28.8060    5.5250  -25.3390 O.3    82  TYR82      -0.2866
     78  N         23.9810    4.1490  -22.1230 N.am   83  CYS83      -0.1954
     79  CA        23.1280    4.7690  -23.1350 C.3    83  CYS83       0.1843
     80  C         23.9900    5.5540  -24.0940 C.2    83  CYS83       0.2625
     81  O         24.4260    6.6630  -23.7800 O.2    83  CYS83      -0.2714
     82  CB        22.1010    5.6810  -22.4910 C.3    83  CYS83       0.0997
     83  SG        21.1380    4.8350  -21.2570 S.3    83  CYS83      -0.0797
     84  N         24.2450    4.9870  -25.2650 N.am   84  GLU84      -0.1963
     85  CA        25.2880    5.5370  -26.1310 C.3    84  GLU84       0.1733
     86  C         24.9230    6.8700  -26.8070 C.2    84  GLU84       0.2617
     87  O         25.7970    7.5440  -27.3440 O.2    84  GLU84      -0.2715
     88  CB        25.6670    4.5150  -27.1940 C.3    84  GLU84       0.0429
     89  CG        24.5710    4.2390  -28.1640 C.3    84  GLU84       0.1163
     90  CD        25.0030    3.2670  -29.2290 C.2    84  GLU84       0.3649
     91  OE1       25.0910    3.6820  -30.4070 O.co2  84  GLU84      -0.2457
     92  OE2       25.2520    2.0900  -28.8760 O.co2  84  GLU84      -0.2457
     93  N         23.6510    7.2550  -26.7620 N.am   85  GLY85      -0.1940
     94  CA        23.2100    8.4940  -27.3820 C.3    85  GLY85       0.2014
     95  C         23.4520    9.7130  -26.5040 C.2    85  GLY85       0.2639
     96  O         23.2980   10.8480  -26.9470 O.2    85  GLY85      -0.2714
     97  N         23.8200    9.4830  -25.2490 N.am   86  GLY86      -0.1939
     98  CA        24.0560   10.5840  -24.3380 C.3    86  GLY86       0.2014
     99  C         22.7960   11.1380  -23.7040 C.2    86  GLY86       0.2638
    100  O         21.7010   10.5750  -23.8460 O.2    86  GLY86      -0.2714
    101  N         22.9610   12.2450  -22.9850 N.am   87  ASP87      -0.1971
    102  CA        21.8570   12.9290  -22.3100 C.3    87  ASP87       0.1709
    103  C         21.1690   13.9290  -23.2330 C.2    87  ASP87       0.2293
    104  O         21.6510   14.2130  -24.3210 O.2    87  ASP87      -0.2864
    105  CB        22.3600   13.6410  -21.0570 C.3    87  ASP87       0.1436
    106  CG        23.3830   14.7060  -21.3750 C.2    87  ASP87       0.3671
    107  OD1       24.5540   14.3630  -21.6470 O.co2  87  ASP87      -0.2456
    108  OD2       23.0150   15.8910  -21.3570 O.co2  87  ASP87      -0.2456
    109  N         19.3110   16.6270  -18.3200 N.3   129  ALA129     -0.1245
    110  CA        20.5880   15.9620  -18.0080 C.3   129  ALA129      0.1562
    111  C         20.3940   14.5730  -17.4150 C.2   129  ALA129      0.2260
    112  O         21.3250   13.7830  -17.3000 O.2   129  ALA129     -0.2867
    113  CB        21.4270   16.8310  -17.0420 C.3   129  ALA129      0.0290
    114  N         18.2400    9.9480  -21.0740 N.3   132  PHE132     -0.1241
    115  CA        19.2660    9.4220  -21.9670 C.3   132  PHE132      0.1605
    116  C         18.6630    8.7840  -23.2150 C.2   132  PHE132      0.2264
    117  O         17.4760    8.4350  -23.2350 O.2   132  PHE132     -0.2867
    118  CB        20.1600    8.4300  -21.1970 C.3   132  PHE132      0.0534
    119  CG        20.8560    9.0640  -20.0250 C.ar  132  PHE132     -0.0203
    120  CD1       20.2630    9.0860  -18.7740 C.ar  132  PHE132     -0.0042
    121  CD2       22.0660    9.7070  -20.1950 C.ar  132  PHE132     -0.0042
    122  CE1       20.8770    9.7130  -17.7110 C.ar  132  PHE132     -0.0003
    123  CE2       22.6990   10.3340  -19.1270 C.ar  132  PHE132     -0.0003
    124  CZ        22.1050   10.3430  -17.8900 C.ar  132  PHE132     -0.0000
@<TRIPOS>BOND
     1    91    90   ar
     2    90    92   ar
     3    90    89    1
     4    89    88    1
     5    94    93    1
     6    94    95    1
     7    87    86    2
     8    88    85    1
     9    96    95    2
    10    86    93   am
    11    86    85    1
    12    95    97   am
    13    85    84    1
    14    77    76    1
    15    84    80   am
    16    97    98    1
    17    75    76   ar
    18    75    73   ar
    19    76    74   ar
    20    98    99    1
    21   104   103    2
    22    80    81    2
    23    80    79    1
    24    73    71   ar
    25   100    99    2
    26    99   101   am
    27   117   116    2
    28   103   102    1
    29   116   115    1
    30    79    82    1
    31    79    78    1
    32    74    72   ar
    33   101   102    1
    34    69    68    2
    35    71    72   ar
    36    71    70    1
    37    82    83    1
    38   102   105    1
    39    68    78   am
    40    68    67    1
    41   115   118    1
    42   115   114    1
    43    70    67    1
    44   107   106   ar
    45   106   108   ar
    46   106   105    1
    47    65    63   ar
    48   118   119    1
    49    67    66    1
    50    66    59   am
    51   121   119   ar
    52   121   123   ar
    53    63    62    1
    54    63    64   ar
    55   119   120   ar
    56     6     8    1
    57     6     5    1
    58    62    61    1
    59    59    60    2
    60    59    58    1
    61    61    58    1
    62   123   124   ar
    63     7     5    1
    64     4     3    2
    65     2     5    1
    66     2     3    1
    67     2     1    1
    68   120   122   ar
    69    58    57    1
    70    31    30    1
    71   109   110    1
    72     3     9   am
    73   110   111    1
    74   110   113    1
    75   124   122   ar
    76    48    46    1
    77    26    27    1
    78   111   112    2
    79    43    42    1
    80    43    46    1
    81    43    44    1
    82    57    51   am
    83    30    27    1
    84    30    32    1
    85    27    28    1
    86    52    51    2
    87     9    10    1
    88    46    47    1
    89    51    50    1
    90    44    45    2
    91    10    11    1
    92    25    24    1
    93    23    22    2
    94    28    29    2
    95    50    53    1
    96    50    49    1
    97    22    21    1
    98    11    12    2
    99    11    13   am
   100    53    54    1
   101    24    21    1
   102    13    14    1
   103    21    20    1
   104    18    17    1
   105    56    55    1
   106    54    55    1
   107    41    40    1
   108    40    39    1
   109    14    17    1
   110    14    15    1
   111    17    19    1
   112    39    38    1
   113    16    15    2
   114    33    34    1
   115    38    37    1
   116    34    37    1
   117    34    35    1
   118    35    36    2
