@<TRIPOS>MOLECULE
tmp/5m57A00.pdb
 168 160 0 0 0
SMALL
GASTEIGER

@<TRIPOS>ATOM
      1  N         24.3150   84.2160   17.6960 N.3    12  ILE12      -0.1231
      2  CA        25.1920   83.0980   17.3690 C.3    12  ILE12       0.1692
      3  C         26.4620   83.6750   16.7440 C.2    12  ILE12       0.2593
      4  O         27.0960   84.5610   17.3330 O.2    12  ILE12      -0.2718
      5  CB        24.5160   82.0870   16.4100 C.3    12  ILE12       0.0266
      6  CG1       23.0650   81.8540   16.8190 C.3    12  ILE12       0.0019
      7  CG2       25.2460   80.7550   16.4140 C.3    12  ILE12       0.0020
      8  CD1       22.4080   80.6410   16.1530 C.3    12  ILE12       0.0001
      9  N         26.8240   83.2060   15.5510 N.am   13  GLY13      -0.1942
     10  CA        28.0230   83.6870   14.8800 C.3    13  GLY13       0.2014
     11  C         27.7580   84.7220   13.7980 C.2    13  GLY13       0.2640
     12  O         26.6080   84.9770   13.4210 O.2    13  GLY13      -0.2714
     13  N         28.8290   85.3280   13.3000 N.am   14  THR14      -0.1936
     14  CA        28.7250   86.2940   12.2180 C.3    14  THR14       0.2028
     15  C         29.4080   85.7570   10.9820 C.2    14  THR14       0.2643
     16  O         30.6260   85.6190   10.9520 O.2    14  THR14      -0.2714
     17  CB        29.3550   87.6520   12.5900 C.3    14  THR14       0.1808
     18  OG1       28.4880   88.3500   13.4930 O.3    14  THR14      -0.2208
     19  CG2       29.5630   88.5010   11.3430 C.3    14  THR14       0.0379
     20  N         28.6240   85.4540    9.9560 N.am   15  GLY15      -0.1939
     21  CA        29.1870   84.8940    8.7430 C.3    15  GLY15       0.2014
     22  C         29.3260   85.9050    7.6260 C.2    15  GLY15       0.2640
     23  O         29.5620   87.0810    7.8680 O.2    15  GLY15      -0.2714
     24  N         29.1570   85.4330    6.3960 N.am   16  SER16      -0.1935
     25  CA        29.3830   86.2310    5.1940 C.3    16  SER16       0.2055
     26  C         28.4100   87.4150    5.0590 C.2    16  SER16       0.2643
     27  O         28.7810   88.5690    5.2840 O.2    16  SER16      -0.2714
     28  CB        29.2980   85.3120    3.9680 C.3    16  SER16       0.2130
     29  OG        28.7830   85.9770    2.8300 O.3    16  SER16      -0.2179
     30  N         27.1730   87.1110    4.6830 N.am   17  TYR17      -0.1973
     31  CA        26.0590   88.0660    4.6030 C.3    17  TYR17       0.1639
     32  C         25.9310   89.0420    5.7750 C.2    17  TYR17       0.2290
     33  O         25.3720   90.1260    5.6280 O.2    17  TYR17      -0.2864
     34  CB        24.7640   87.2740    4.5060 C.3    17  TYR17       0.0560
     35  CG        24.7470   86.1670    5.5330 C.ar   17  TYR17      -0.0198
     36  CD1       25.2560   84.9140    5.2370 C.ar   17  TYR17      -0.0009
     37  CD2       24.2600   86.3910    6.8140 C.ar   17  TYR17      -0.0009
     38  CE1       25.2740   83.9180    6.1730 C.ar   17  TYR17       0.0417
     39  CE2       24.2640   85.3910    7.7630 C.ar   17  TYR17       0.0417
     40  CZ        24.7660   84.1470    7.4350 C.ar   17  TYR17       0.1957
     41  OH        24.7730   83.1420    8.3780 O.3    17  TYR17      -0.2866
     42  N         24.0720   86.5410   12.4840 N.3    20  CYS20      -0.1235
     43  CA        23.0990   85.4490   12.5250 C.3    20  CYS20       0.1677
     44  C         22.6890   85.2000   13.9790 C.2    20  CYS20       0.2270
     45  O         23.5330   84.8650   14.8080 O.2    20  CYS20      -0.2867
     46  CB        23.6890   84.1830   11.8950 C.3    20  CYS20       0.0956
     47  SG        22.5640   82.7460   11.8070 S.3    20  CYS20      -0.0801
     48  N         16.2580   81.1510   13.5730 N.3    33  VAL33      -0.1245
     49  CA        17.3040   82.1650   13.4630 C.3    33  VAL33       0.1561
     50  C         16.9470   83.0980   12.3400 C.2    33  VAL33       0.2260
     51  O         16.0780   82.7830   11.5320 O.2    33  VAL33      -0.2867
     52  CB        18.7060   81.5860   13.1520 C.3    33  VAL33       0.0252
     53  CG1       19.1230   80.5320   14.1720 C.3    33  VAL33       0.0019
     54  CG2       18.7170   81.0220   11.7400 C.3    33  VAL33       0.0019
     55  N         19.1060   86.0920    9.4790 N.3    35  LYS35      -0.1245
     56  CA        20.3660   86.6080    8.9610 C.3    35  LYS35       0.1561
     57  C         20.2400   88.0500    8.4650 C.2    35  LYS35       0.2260
     58  O         19.4010   88.3330    7.6140 O.2    35  LYS35      -0.2867
     59  CB        20.8560   85.7000    7.8260 C.3    35  LYS35       0.0271
     60  CG        20.9950   84.2190    8.2180 C.3    35  LYS35       0.0035
     61  CD        21.4520   83.3620    7.0430 C.3    35  LYS35       0.0206
     62  CE        21.8490   81.9460    7.4740 C.3    35  LYS35       0.1093
     63  NZ        22.6820   81.8860    8.7110 N.3    35  LYS35      -0.1314
     64  N         18.0200   73.7990    4.7520 N.3    66  VAL66      -0.1245
     65  CA        17.5550   74.7250    5.7880 C.3    66  VAL66       0.1561
     66  C         16.3080   75.4580    5.2720 C.2    66  VAL66       0.2260
     67  O         16.3260   76.0500    4.1930 O.2    66  VAL66      -0.2867
     68  CB        18.6460   75.7510    6.1880 C.3    66  VAL66       0.0252
     69  CG1       18.0600   76.8990    7.0130 C.3    66  VAL66       0.0019
     70  CG2       19.7700   75.0770    6.9650 C.3    66  VAL66       0.0019
     71  N         14.9520   81.8990    9.2790 N.3    84  MET84      -0.1230
     72  CA        15.0490   80.5000    8.8950 C.3    84  MET84       0.1702
     73  C         15.0940   79.5410   10.0640 C.2    84  MET84       0.2592
     74  O         15.3960   79.9150   11.1940 O.2    84  MET84      -0.2718
     75  CB        16.2780   80.2820    8.0070 C.3    84  MET84       0.0401
     76  CG        16.0930   80.7740    6.5730 C.3    84  MET84       0.0596
     77  SD        17.5030   80.3350    5.5500 S.3    84  MET84      -0.1393
     78  CE        18.7840   80.9900    6.5860 C.3    84  MET84       0.0692
     79  N         14.7480   78.3010    9.7540 N.am   85  GLU85      -0.1966
     80  CA        14.8510   77.1660   10.6640 C.3    85  GLU85       0.1733
     81  C         16.1440   77.1970   11.4880 C.2    85  GLU85       0.2616
     82  O         17.2230   77.5000   10.9740 O.2    85  GLU85      -0.2715
     83  CB        14.7360   75.8830    9.8340 C.3    85  GLU85       0.0429
     84  CG        15.3010   74.5950   10.4130 C.3    85  GLU85       0.1163
     85  CD        15.2070   73.4570    9.4010 C.2    85  GLU85       0.3649
     86  OE1       15.1220   73.7480    8.1870 O.co2  85  GLU85      -0.2457
     87  OE2       15.2120   72.2710    9.8020 O.co2  85  GLU85      -0.2457
     88  N         16.0130   76.9370   12.7810 N.am   86  TYR86      -0.1960
     89  CA        17.1590   76.8890   13.6750 C.3    86  TYR86       0.1771
     90  C         17.6770   75.4660   13.7040 C.2    86  TYR86       0.2620
     91  O         16.9030   74.5340   13.8530 O.2    86  TYR86      -0.2715
     92  CB        16.7870   77.3460   15.0850 C.3    86  TYR86       0.0574
     93  CG        17.8100   76.9650   16.1310 C.ar   86  TYR86      -0.0198
     94  CD1       19.0120   77.6460   16.2250 C.ar   86  TYR86      -0.0009
     95  CD2       17.5710   75.9310   17.0330 C.ar   86  TYR86      -0.0009
     96  CE1       19.9580   77.3070   17.1750 C.ar   86  TYR86       0.0417
     97  CE2       18.5140   75.5860   17.9930 C.ar   86  TYR86       0.0417
     98  CZ        19.7030   76.2790   18.0550 C.ar   86  TYR86       0.1957
     99  OH        20.6550   75.9650   18.9940 O.3    86  TYR86      -0.2866
    100  N         18.9860   75.2920   13.5610 N.am   87  CYS87      -0.1954
    101  CA        19.5250   73.9440   13.4580 C.3    87  CYS87       0.1843
    102  C         20.2320   73.5910   14.7550 C.2    87  CYS87       0.2625
    103  O         21.3160   74.0790   15.0690 O.2    87  CYS87      -0.2714
    104  CB        20.4370   73.8140   12.2370 C.3    87  CYS87       0.0997
    105  SG        19.4500   73.6950   10.6990 S.3    87  CYS87      -0.0797
    106  N         19.5610   72.7360   15.5110 N.am   88  GLU88      -0.1977
    107  CA        19.8820   72.4830   16.9050 C.3    88  GLU88       0.1602
    108  C         21.2280   71.7900   17.1240 C.2    88  GLU88       0.2287
    109  O         21.9330   72.0810   18.0900 O.2    88  GLU88      -0.2864
    110  CB        18.7520   71.6530   17.5060 C.3    88  GLU88       0.0415
    111  CG        18.9260   71.2810   18.9400 C.3    88  GLU88       0.1163
    112  CD        17.8750   70.2900   19.3700 C.2    88  GLU88       0.3649
    113  OE1       16.9310   70.0550   18.5740 O.co2  88  GLU88      -0.2457
    114  OE2       18.0020   69.7400   20.4870 O.co2  88  GLU88      -0.2457
    115  N         24.0130   72.0870   15.5810 N.3    90  GLY90      -0.1210
    116  CA        25.2100   72.8150   15.1770 C.3    90  GLY90       0.1956
    117  C         25.6770   72.4850   13.7640 C.2    90  GLY90       0.2611
    118  O         24.8810   72.0610   12.9300 O.2    90  GLY90      -0.2717
    119  N         26.9590   72.6830   13.4780 N.am   91  ASP91      -0.1973
    120  CA        27.4690   72.4040   12.1360 C.3    91  ASP91       0.1709
    121  C         28.4790   71.2450   12.1020 C.2    91  ASP91       0.2293
    122  O         28.9720   70.8150   13.1490 O.2    91  ASP91      -0.2864
    123  CB        28.1010   73.6710   11.5360 C.3    91  ASP91       0.1436
    124  CG        29.2980   74.1720   12.3300 C.2    91  ASP91       0.3671
    125  OD1       30.2100   73.3790   12.6350 O.co2  91  ASP91      -0.2456
    126  OD2       29.3400   75.3760   12.6380 O.co2  91  ASP91      -0.2456
    127  N         32.1780   71.7080   13.5900 N.3    94  SER94      -0.1217
    128  CA        32.2670   71.3650   15.0050 C.3    94  SER94       0.1889
    129  C         32.4080   69.8570   15.1960 C.2    94  SER94       0.2288
    130  O         33.1940   69.4010   16.0330 O.2    94  SER94      -0.2866
    131  CB        31.0370   71.8800   15.7600 C.3    94  SER94       0.2089
    132  OG        30.8320   73.2680   15.5050 O.3    94  SER94      -0.2183
    133  N         31.1190   74.3070    7.5710 N.3   143  ALA143     -0.1231
    134  CA        30.4810   75.3930    8.3080 C.3   143  ALA143      0.1694
    135  C         29.1070   75.7460    7.7540 C.2   143  ALA143      0.2592
    136  O         28.3050   76.3770    8.4420 O.2   143  ALA143     -0.2718
    137  CB        31.3760   76.6270    8.3110 C.3   143  ALA143      0.0304
    138  N         28.8430   75.3410    6.5120 N.am  144  ASN144     -0.1974
    139  CA        27.5570   75.5670    5.8420 C.3   144  ASN144      0.1688
    140  C         26.6490   74.3600    5.8630 C.2   144  ASN144      0.2292
    141  O         25.6570   74.3250    5.1460 O.2   144  ASN144     -0.2864
    142  CB        27.7660   75.9520    4.3810 C.3   144  ASN144      0.1181
    143  CG        28.2860   77.3580    4.2130 C.2   144  ASN144      0.2629
    144  OD1       28.9580   77.8920    5.0930 O.2   144  ASN144     -0.2716
    145  ND2       27.9870   77.9660    3.0710 N.am  144  ASN144     -0.0877
    146  N         24.5170   71.9910    8.4880 N.3   146  PHE146     -0.1241
    147  CA        24.0490   71.9510    9.8590 C.3   146  PHE146      0.1605
    148  C         23.3040   70.6690   10.1590 C.2   146  PHE146      0.2264
    149  O         22.9020   69.9350    9.2540 O.2   146  PHE146     -0.2867
    150  CB        23.1360   73.1440   10.1540 C.3   146  PHE146      0.0534
    151  CG        23.6840   74.4540    9.6920 C.ar  146  PHE146     -0.0203
    152  CD1       23.1870   75.0610    8.5550 C.ar  146  PHE146     -0.0042
    153  CD2       24.7090   75.0750   10.3870 C.ar  146  PHE146     -0.0042
    154  CE1       23.6950   76.2730    8.1270 C.ar  146  PHE146     -0.0003
    155  CE2       25.2210   76.2990    9.9530 C.ar  146  PHE146     -0.0003
    156  CZ        24.7130   76.8860    8.8200 C.ar  146  PHE146     -0.0000
    157  N         22.7630   74.6100    4.2020 N.3   156  GLY156     -0.1210
    158  CA        22.3050   75.9710    4.3990 C.3   156  GLY156      0.1956
    159  C         23.2020   76.9390    3.6770 C.2   156  GLY156      0.2611
    160  O         24.0630   76.5290    2.9210 O.2   156  GLY156     -0.2717
    161  N         22.9440   78.2230    3.8840 N.am  157  ASP157     -0.1973
    162  CA        23.8660   79.2900    3.5360 C.3   157  ASP157      0.1709
    163  C         24.3890   79.2270    2.1100 C.2   157  ASP157      0.2293
    164  O         25.5320   78.8650    1.8670 O.2   157  ASP157     -0.2864
    165  CB        25.0200   79.2730    4.5260 C.3   157  ASP157      0.1436
    166  CG        24.7550   80.1740    5.7130 C.2   157  ASP157      0.3671
    167  OD1       24.7170   81.3820    5.4770 O.co2 157  ASP157     -0.2456
    168  OD2       24.5730   79.7050    6.8580 O.co2 157  ASP157     -0.2456
@<TRIPOS>BOND
     1   164   163    2
     2   163   162    1
     3    29    28    1
     4   160   159    2
     5   145   143   am
     6   162   161    1
     7   162   165    1
     8   159   161   am
     9   159   158    1
    10    28    25    1
    11    67    66    2
    12   157   158    1
    13   143   142    1
    14   143   144    2
    15   142   139    1
    16    34    31    1
    17    34    35    1
    18   165   166    1
    19    31    30    1
    20    31    32    1
    21    30    26   am
    22    64    65    1
    23    26    25    1
    24    26    27    2
    25   141   140    2
    26    25    24    1
    27    36    35   ar
    28    36    38   ar
    29    66    65    1
    30   167   166   ar
    31    35    37   ar
    32    77    76    1
    33    77    78    1
    34    33    32    2
    35   166   168   ar
    36    65    68    1
    37   139   140    1
    38   139   138    1
    39    38    40   ar
    40    68    70    1
    41    68    69    1
    42    24    22   am
    43   138   135   am
    44    76    75    1
    45    37    39   ar
    46    61    62    1
    47    61    60    1
    48    40    39   ar
    49    40    41    1
    50    62    63    1
    51   133   134    1
    52    58    57    2
    53    22    23    2
    54    22    21    1
    55   135   134    1
    56   135   136    2
    57    59    60    1
    58    59    56    1
    59    75    72    1
    60   154   152   ar
    61   154   156   ar
    62    86    85   ar
    63   134   137    1
    64    57    56    1
    65   146   147    1
    66   152   151   ar
    67    21    20    1
    68   156   155   ar
    69    72    71    1
    70    72    73    1
    71    56    55    1
    72   149   148    2
    73    85    87   ar
    74    85    84    1
    75   151   150    1
    76   151   153   ar
    77    79    73   am
    78    79    80    1
    79    83    84    1
    80    83    80    1
    81   147   150    1
    82   147   148    1
    83   155   153   ar
    84    20    15   am
    85    73    74    2
    86    80    81    1
    87   105   104    1
    88    16    15    2
    89    82    81    2
    90    15    14    1
    91    19    17    1
    92    81    88   am
    93    51    50    2
    94   123   120    1
    95   123   124    1
    96    54    52    1
    97    47    46    1
    98    46    43    1
    99   121   120    1
   100   121   122    2
   101   120   119    1
   102    14    17    1
   103    14    13    1
   104   104   101    1
   105   124   125   ar
   106   124   126   ar
   107    50    49    1
   108    42    43    1
   109    43    44    1
   110    17    18    1
   111    88    89    1
   112   118   117    2
   113    52    49    1
   114    52    53    1
   115    13    11   am
   116    12    11    2
   117   101   100    1
   118   101   102    1
   119    49    48    1
   120   119   117   am
   121   100    90   am
   122   127   128    1
   123    89    90    1
   124    89    92    1
   125    90    91    2
   126   117   116    1
   127    11    10    1
   128    44    45    2
   129   102   103    2
   130   102   106   am
   131    10     9    1
   132   128   129    1
   133   128   131    1
   134    92    93    1
   135   116   115    1
   136   129   130    2
   137   132   131    1
   138   106   107    1
   139     9     3   am
   140    93    94   ar
   141    93    95   ar
   142     8     6    1
   143    94    96   ar
   144     5     7    1
   145     5     6    1
   146     5     2    1
   147     3     4    2
   148     3     2    1
   149   107   108    1
   150   107   110    1
   151    95    97   ar
   152   108   109    2
   153    96    98   ar
   154     2     1    1
   155   110   111    1
   156    97    98   ar
   157    98    99    1
   158   113   112   ar
   159   111   112    1
   160   112   114   ar
