@<TRIPOS>MOLECULE
tmp/5m5aA00.pdb
 160 150 0 0 0
SMALL
GASTEIGER

@<TRIPOS>ATOM
      1  N         14.5500   92.2910  -42.0310 N.3    16  ILE16      -0.1231
      2  CA        13.9090   91.9700  -43.3020 C.3    16  ILE16       0.1692
      3  C         14.1450   93.0270  -44.3770 C.2    16  ILE16       0.2593
      4  O         13.7810   92.8100  -45.5330 O.2    16  ILE16      -0.2718
      5  CB        12.4000   91.6720  -43.1450 C.3    16  ILE16       0.0266
      6  CG1       11.6530   92.8670  -42.5360 C.3    16  ILE16       0.0019
      7  CG2       12.2130   90.4200  -42.2940 C.3    16  ILE16       0.0020
      8  CD1       10.1770   92.6280  -42.3280 C.3    16  ILE16       0.0001
      9  N         14.7280   94.1650  -44.0040 N.am   17  GLY17      -0.1942
     10  CA        15.1170   95.1660  -44.9900 C.3    17  GLY17       0.2014
     11  C         15.7510   96.3810  -44.3560 C.2    17  GLY17       0.2640
     12  O         15.5980   96.6350  -43.1640 O.2    17  GLY17      -0.2714
     13  N         16.4790   97.1300  -45.1660 N.am   18  THR18      -0.1936
     14  CA        17.0950   98.3920  -44.7400 C.3    18  THR18       0.2028
     15  C         16.8560   99.4540  -45.8020 C.2    18  THR18       0.2642
     16  O         17.0970   99.2230  -46.9800 O.2    18  THR18      -0.2714
     17  CB        18.5920   98.2040  -44.5850 C.3    18  THR18       0.1808
     18  OG1       19.0770   97.6110  -45.7890 O.3    18  THR18      -0.2208
     19  CG2       18.8930   97.2740  -43.4410 C.3    18  THR18       0.0379
     20  N         16.3950  100.6180  -45.3690 N.am   19  GLY19      -0.1954
     21  CA        15.9180  101.6480  -46.2740 C.3    19  GLY19       0.1869
     22  C         16.3550  103.0040  -45.8000 C.2    19  GLY19       0.2309
     23  O         15.6930  103.6210  -44.9690 O.2    19  GLY19      -0.2863
     24  N         16.6430  103.7560  -41.8270 N.3    22  ALA22      -0.1245
     25  CA        16.0110  102.7930  -40.9170 C.3    22  ALA22       0.1562
     26  C         16.3530  101.3470  -41.2670 C.2    22  ALA22       0.2260
     27  O         16.6820  101.0340  -42.4140 O.2    22  ALA22      -0.2867
     28  CB        14.5050  102.9710  -40.9330 C.3    22  ALA22       0.0290
     29  N         14.4110   97.5110  -40.6410 N.3    24  VAL24      -0.1245
     30  CA        13.1250   96.9540  -40.2860 C.3    24  VAL24       0.1561
     31  C         13.3620   95.5130  -39.9330 C.2    24  VAL24       0.2260
     32  O         14.0070   94.7820  -40.6960 O.2    24  VAL24      -0.2867
     33  CB        12.1150   97.0610  -41.4420 C.3    24  VAL24       0.0252
     34  CG1       10.8120   96.3660  -41.0960 C.3    24  VAL24       0.0019
     35  CG2       11.8800   98.5290  -41.7970 C.3    24  VAL24       0.0019
     36  N          6.1390   94.2850  -37.9840 N.3    37  ALA37      -0.1245
     37  CA         7.4020   94.8230  -38.5670 C.3    37  ALA37       0.1562
     38  C          7.8220   96.0380  -37.7830 C.2    37  ALA37       0.2260
     39  O          7.0430   96.9670  -37.6250 O.2    37  ALA37      -0.2867
     40  CB         7.1950   95.2000  -40.0320 C.3    37  ALA37       0.0290
     41  N         10.1660   99.1840  -37.4990 N.3    39  LYS39      -0.1245
     42  CA        11.0770  100.1480  -38.0840 C.3    39  LYS39       0.1561
     43  C         11.8830  100.8090  -36.9770 C.2    39  LYS39       0.2260
     44  O         11.3180  101.3800  -36.0230 O.2    39  LYS39      -0.2867
     45  CB        10.2840  101.1750  -38.8760 C.3    39  LYS39       0.0271
     46  CG        11.1110  102.1080  -39.7530 C.3    39  LYS39       0.0035
     47  CD        10.1200  103.0470  -40.4540 C.3    39  LYS39       0.0206
     48  CE        10.7840  104.0340  -41.3800 C.3    39  LYS39       0.1093
     49  NZ         9.7680  104.9540  -41.9710 N.3    39  LYS39      -0.1314
     50  N         -0.1700  100.2780  -44.9850 N.3    69  CYS69      -0.1235
     51  CA         0.3620   99.5170  -43.8520 C.3    69  CYS69       0.1677
     52  C          0.1190  100.2710  -42.5140 C.2    69  CYS69       0.2270
     53  O          0.5270  101.4160  -42.3410 O.2    69  CYS69      -0.2867
     54  CB         1.8360   99.2050  -44.1530 C.3    69  CYS69       0.0956
     55  SG         2.8210   98.4590  -42.8460 S.3    69  CYS69      -0.0801
     56  N          4.7080   98.2900  -37.0620 N.3    85  LEU85      -0.1231
     57  CA         3.8760   98.3140  -38.2420 C.3    85  LEU85       0.1693
     58  C          3.3190   96.9270  -38.5350 C.2    85  LEU85       0.2592
     59  O          3.9150   95.9080  -38.1820 O.2    85  LEU85      -0.2718
     60  CB         4.7080   98.7620  -39.4390 C.3    85  LEU85       0.0284
     61  CG         5.3310  100.1220  -39.2230 C.3    85  LEU85       0.0019
     62  CD1        6.4960  100.3270  -40.1420 C.3    85  LEU85       0.0001
     63  CD2        4.2830  101.1960  -39.4050 C.3    85  LEU85       0.0001
     64  N          2.1830   96.9290  -39.2200 N.am   86  GLU86      -0.1966
     65  CA         1.6030   95.7590  -39.8280 C.3    86  GLU86       0.1733
     66  C          2.6650   95.0850  -40.6940 C.2    86  GLU86       0.2616
     67  O          3.2960   95.7440  -41.5280 O.2    86  GLU86      -0.2715
     68  CB         0.4100   96.1990  -40.6750 C.3    86  GLU86       0.0429
     69  CG        -0.2240   95.1350  -41.5350 C.3    86  GLU86       0.1163
     70  CD        -1.3200   95.6850  -42.4380 C.2    86  GLU86       0.3649
     71  OE1       -1.6340   96.9220  -42.3980 O.co2  86  GLU86      -0.2457
     72  OE2       -1.8870   94.8390  -43.1790 O.co2  86  GLU86      -0.2457
     73  N          2.8380   93.7780  -40.4730 N.am   87  TYR87      -0.1960
     74  CA         3.7720   92.9370  -41.2050 C.3    87  TYR87       0.1771
     75  C          3.0970   92.3530  -42.4640 C.2    87  TYR87       0.2620
     76  O          1.9830   91.8260  -42.3820 O.2    87  TYR87      -0.2715
     77  CB         4.2720   91.8060  -40.3000 C.3    87  TYR87       0.0574
     78  CG         5.0990   90.7710  -41.0310 C.ar   87  TYR87      -0.0198
     79  CD1        6.2340   91.1490  -41.7520 C.ar   87  TYR87      -0.0009
     80  CD2        4.7400   89.4240  -41.0260 C.ar   87  TYR87      -0.0009
     81  CE1        7.0100   90.2140  -42.4070 C.ar   87  TYR87       0.0417
     82  CE2        5.5140   88.4810  -41.7010 C.ar   87  TYR87       0.0417
     83  CZ         6.6400   88.8820  -42.3870 C.ar   87  TYR87       0.1957
     84  OH         7.4120   87.9590  -43.0620 O.3    87  TYR87      -0.2866
     85  N          3.7940   92.4570  -43.5940 N.am   88  CYS88      -0.1954
     86  CA         3.2940   92.0320  -44.9070 C.3    88  CYS88       0.1828
     87  C          4.1420   90.8630  -45.3660 C.2    88  CYS88       0.2467
     88  O          5.2080   91.0750  -45.9100 O.2    88  CYS88      -0.2730
     89  CB         3.4020   93.2120  -45.8660 C.3    88  CYS88       0.0996
     90  SG         2.3510   94.6050  -45.3470 S.3    88  CYS88      -0.0797
     91  N          3.6990   89.6150  -45.0820 N.am   89  PRO89      -0.2726
     92  CA         4.5820   88.4720  -45.3530 C.3    89  PRO89       0.1402
     93  C          4.8190   88.1790  -46.8460 C.2    89  PRO89       0.2269
     94  O          5.7630   87.4770  -47.1660 O.2    89  PRO89      -0.2865
     95  CB         3.8460   87.2990  -44.6820 C.3    89  PRO89       0.0296
     96  CG         2.4070   87.6800  -44.6970 C.3    89  PRO89       0.0237
     97  CD         2.3870   89.1770  -44.5550 C.3    89  PRO89       0.0939
     98  N          5.9990   90.2350  -48.9750 N.3    91  GLY91      -0.1210
     99  CA         7.1700   90.9770  -49.3640 C.3    91  GLY91       0.1956
    100  C          6.9000   92.0510  -50.4120 C.2    91  GLY91       0.2611
    101  O          5.7520   92.4440  -50.6510 O.2    91  GLY91      -0.2717
    102  N          7.9840   92.5080  -51.0250 N.am   92  GLU92      -0.1979
    103  CA         7.9890   93.6900  -51.8770 C.3    92  GLU92       0.1602
    104  C          7.4400   93.3800  -53.2440 C.2    92  GLU92       0.2287
    105  O          7.7810   92.3470  -53.8680 O.2    92  GLU92      -0.2864
    106  CB         9.3910   94.2650  -52.0570 C.3    92  GLU92       0.0415
    107  CG        10.1400   94.5440  -50.7680 C.3    92  GLU92       0.1163
    108  CD        11.5520   95.0620  -50.9840 C.2    92  GLU92       0.3649
    109  OE1       11.7980   95.7360  -52.0070 O.co2  92  GLU92      -0.2457
    110  OE2       12.4180   94.8090  -50.0980 O.co2  92  GLU92      -0.2457
    111  N          7.3260  103.7110  -55.3810 N.3   133  LYS133     -0.1245
    112  CA         8.1260  102.7800  -56.1840 C.3   133  LYS133      0.1561
    113  C          7.8620  101.3750  -55.6180 C.2   133  LYS133      0.2260
    114  O          7.2140  101.2790  -54.5710 O.2   133  LYS133     -0.2867
    115  CB         9.5980  103.1620  -56.1020 C.3   133  LYS133      0.0271
    116  CG        10.0970  103.2710  -54.6830 C.3   133  LYS133      0.0035
    117  CD        11.5270  103.7590  -54.6130 C.3   133  LYS133      0.0206
    118  CE        12.1210  103.3780  -53.2690 C.3   133  LYS133      0.1093
    119  NZ        13.2230  104.3100  -52.9200 N.3   133  LYS133     -0.1314
    120  N          9.5830   99.0360  -54.1710 N.3   135  GLU135     -0.1231
    121  CA        10.1220   98.7190  -52.8540 C.3   135  GLU135      0.1699
    122  C          9.2320   99.2430  -51.7400 C.2   135  GLU135      0.2592
    123  O          9.3600   98.7930  -50.5990 O.2   135  GLU135     -0.2718
    124  CB        11.5380   99.2890  -52.6940 C.3   135  GLU135      0.0402
    125  CG        12.5490   98.6220  -53.5980 C.3   135  GLU135      0.1161
    126  CD        12.7840   99.3710  -54.9110 C.2   135  GLU135      0.3649
    127  OE1       11.8080   99.8540  -55.5530 O.co2 135  GLU135     -0.2457
    128  OE2       13.9700   99.4550  -55.3130 O.co2 135  GLU135     -0.2457
    129  N          8.3460  100.2090  -52.0550 N.am  136  ASN136     -0.1974
    130  CA         7.4580  100.8230  -51.0590 C.3   136  ASN136      0.1688
    131  C          6.0210  100.3230  -51.0990 C.2   136  ASN136      0.2292
    132  O          5.0940  100.9830  -50.5470 O.2   136  ASN136     -0.2864
    133  CB         7.5100  102.3480  -51.1800 C.3   136  ASN136      0.1181
    134  CG         8.7890  102.9260  -50.6210 C.2   136  ASN136      0.2629
    135  OD1        9.4010  102.3320  -49.7310 O.2   136  ASN136     -0.2716
    136  ND2        9.2240  104.0640  -51.1600 N.am  136  ASN136     -0.0877
    137  N          4.0300   96.4910  -50.5710 N.3   138  LEU138     -0.1245
    138  CA         4.1780   95.1460  -50.0310 C.3   138  LEU138      0.1561
    139  C          2.9110   94.3540  -50.1750 C.2   138  LEU138      0.2260
    140  O          1.8150   94.9110  -50.2050 O.2   138  LEU138     -0.2867
    141  CB         4.5360   95.2030  -48.5470 C.3   138  LEU138      0.0270
    142  CG         5.7010   96.1150  -48.1860 C.3   138  LEU138      0.0019
    143  CD1        5.9520   95.9930  -46.6920 C.3   138  LEU138      0.0001
    144  CD2        6.9560   95.8250  -48.9720 C.3   138  LEU138      0.0001
    145  N          3.8130  101.6540  -47.9490 N.3   148  ILE148     -0.1231
    146  CA         4.6400  101.9650  -46.7860 C.3   148  ILE148      0.1692
    147  C          5.4630  103.2050  -47.0710 C.2   148  ILE148      0.2592
    148  O          5.4940  103.7180  -48.2120 O.2   148  ILE148     -0.2718
    149  CB         5.6140  100.7860  -46.4460 C.3   148  ILE148      0.0266
    150  CG1        6.4240  100.3670  -47.6660 C.3   148  ILE148      0.0019
    151  CG2        4.8210   99.5860  -45.9590 C.3   148  ILE148      0.0020
    152  CD1        7.6400   99.4920  -47.4060 C.3   148  ILE148      0.0001
    153  N          6.1730  103.6320  -46.0300 N.am  149  ASP149     -0.1974
    154  CA         7.2810  104.5660  -46.1100 C.3   149  ASP149      0.1709
    155  C          6.8340  105.9700  -46.4670 C.2   149  ASP149      0.2293
    156  O          6.9490  106.4180  -47.6270 O.2   149  ASP149     -0.2864
    157  CB         8.3620  104.0800  -47.0710 C.3   149  ASP149      0.1436
    158  CG         9.6480  104.8390  -46.9070 C.2   149  ASP149      0.3671
    159  OD1        9.6270  105.8760  -46.1910 O.co2 149  ASP149     -0.2456
    160  OD2       10.6580  104.3950  -47.4910 O.co2 149  ASP149     -0.2456
@<TRIPOS>BOND
     1   112   115    1
     2   112   113    1
     3   112   111    1
     4   115   116    1
     5   113   114    2
     6   127   126   ar
     7   128   126   ar
     8   126   125    1
     9   116   117    1
    10   117   118    1
    11   120   121    1
    12   105   104    2
    13   125   124    1
    14   118   119    1
    15   104   103    1
    16   121   124    1
    17   121   122    1
    18   106   103    1
    19   106   107    1
    20   129   122   am
    21   129   130    1
    22   109   108   ar
    23   103   102    1
    24   122   123    2
    25   133   130    1
    26   133   134    1
    27   136   134   am
    28   131   130    1
    29   131   132    2
    30   102   100   am
    31   108   107    1
    32   108   110   ar
    33   101   100    2
    34   134   135    2
    35   137   138    1
    36   100    99    1
    37   140   139    2
    38   139   138    1
    39   138   141    1
    40    99    98    1
    41   144   142    1
    42   141   142    1
    43   148   147    2
    44   142   143    1
    45   145   146    1
    46   150   152    1
    47   150   149    1
    48   156   155    2
    49   160   158   ar
    50    94    93    2
    51   157   158    1
    52   157   154    1
    53   147   146    1
    54   147   153   am
    55    16    15    2
    56   158   159   ar
    57    93    92    1
    58   146   149    1
    59   155   154    1
    60   149   151    1
    61    21    22    1
    62    21    20    1
    63   154   153    1
    64    88    87    2
    65    89    90    1
    66    89    86    1
    67    15    20   am
    68    15    14    1
    69    22    23    2
    70    18    17    1
    71     4     3    2
    72    87    91   am
    73    87    86    1
    74    92    91    1
    75    92    95    1
    76    13    14    1
    77    13    11   am
    78    91    97    1
    79    10    11    1
    80    10     9    1
    81    50    51    1
    82    86    85    1
    83    14    17    1
    84    96    95    1
    85    96    97    1
    86    17    19    1
    87     3     9   am
    88     3     2    1
    89    11    12    2
    90    54    51    1
    91    54    55    1
    92    51    52    1
    93    85    75   am
    94     2     5    1
    95     2     1    1
    96    72    70   ar
    97     5     6    1
    98     5     7    1
    99    84    83    1
   100     6     8    1
   101    52    53    2
   102    75    76    2
   103    75    74    1
   104    70    71   ar
   105    70    69    1
   106    27    26    2
   107    81    83   ar
   108    81    79   ar
   109    83    82   ar
   110    49    48    1
   111    24    25    1
   112    35    33    1
   113    79    78   ar
   114    82    80   ar
   115    69    68    1
   116    67    66    2
   117    33    34    1
   118    33    30    1
   119    48    47    1
   120    26    25    1
   121    74    73    1
   122    74    77    1
   123    78    80   ar
   124    78    77    1
   125    28    25    1
   126    32    31    2
   127    66    73   am
   128    66    65    1
   129    68    65    1
   130    29    30    1
   131    47    46    1
   132    30    31    1
   133    62    61    1
   134    40    37    1
   135    65    64    1
   136    46    45    1
   137    60    61    1
   138    60    57    1
   139    63    61    1
   140    64    58   am
   141    45    42    1
   142    37    36    1
   143    37    38    1
   144    58    57    1
   145    58    59    2
   146    57    56    1
   147    42    41    1
   148    42    43    1
   149    38    39    2
   150    43    44    2
