@<TRIPOS>MOLECULE
tmp/5m5eA04.pdb
 80 75 0 0 0
SMALL
GASTEIGER

@<TRIPOS>ATOM
      1  N         52.6160  -29.8000   37.5770 N.3     6  PHE6       -0.1241
      2  CA        51.7540  -30.4850   36.6360 C.3     6  PHE6        0.1605
      3  C         51.8200  -29.8030   35.2830 C.2     6  PHE6        0.2264
      4  O         51.9610  -28.5750   35.1930 O.2     6  PHE6       -0.2867
      5  CB        50.3080  -30.4940   37.1280 C.3     6  PHE6        0.0534
      6  CG        50.0870  -31.3280   38.3670 C.ar    6  PHE6       -0.0203
      7  CD1       50.0300  -32.7150   38.2870 C.ar    6  PHE6       -0.0042
      8  CD2       49.9460  -30.7290   39.6000 C.ar    6  PHE6       -0.0042
      9  CE1       49.8300  -33.4850   39.4200 C.ar    6  PHE6       -0.0003
     10  CE2       49.7500  -31.4840   40.7510 C.ar    6  PHE6       -0.0003
     11  CZ        49.6880  -32.8730   40.6640 C.ar    6  PHE6       -0.0000
     12  N         49.8980  -29.2060   31.5400 N.3     8  ASN8       -0.1240
     13  CA        48.5500  -29.2250   30.9290 C.3     8  ASN8        0.1653
     14  C         48.4630  -30.0140   29.6320 C.2     8  ASN8        0.2266
     15  O         47.4060  -30.0940   29.0580 O.2     8  ASN8       -0.2867
     16  CB        47.9490  -27.8320   30.7470 C.3     8  ASN8        0.1155
     17  CG        48.5640  -27.0610   29.6040 C.2     8  ASN8        0.2627
     18  OD1       49.6800  -27.3480   29.1680 O.2     8  ASN8       -0.2716
     19  ND2       47.8520  -26.0380   29.1420 N.am    8  ASN8       -0.0877
     20  N         52.1680  -25.4220   29.2350 N.3    12  ASN12      -0.1240
     21  CA        52.0170  -24.8500   30.5660 C.3    12  ASN12       0.1653
     22  C         52.3760  -25.9010   31.6170 C.2    12  ASN12       0.2266
     23  O         51.6950  -26.9350   31.7320 O.2    12  ASN12      -0.2867
     24  CB        50.5700  -24.3950   30.7560 C.3    12  ASN12       0.1155
     25  CG        50.3800  -23.4970   31.9680 C.2    12  ASN12       0.2627
     26  OD1       51.2670  -23.3550   32.8290 O.2    12  ASN12      -0.2716
     27  ND2       49.1940  -22.8790   32.0390 N.am   12  ASN12      -0.0877
     28  N         52.7420  -25.8930   35.7340 N.3    14  SER14      -0.1217
     29  CA        52.4450  -25.0890   36.9070 C.3    14  SER14       0.1889
     30  C         53.0070  -25.7680   38.1370 C.2    14  SER14       0.2288
     31  O         52.7710  -26.9470   38.3480 O.2    14  SER14      -0.2866
     32  CB        50.9440  -24.9330   37.0590 C.3    14  SER14       0.2089
     33  OG        50.6560  -23.9520   38.0390 O.3    14  SER14      -0.2183
     34  N         53.7810  -20.2990   36.9880 N.3    56  ASN56      -0.1240
     35  CA        53.5570  -21.0460   35.7620 C.3    56  ASN56       0.1653
     36  C         54.6770  -20.8230   34.7670 C.2    56  ASN56       0.2266
     37  O         55.1130  -19.6960   34.5720 O.2    56  ASN56      -0.2867
     38  CB        52.2540  -20.6090   35.1480 C.3    56  ASN56       0.1155
     39  CG        51.1160  -20.5970   36.1420 C.2    56  ASN56       0.2627
     40  OD1       50.9150  -21.5270   36.9300 O.2    56  ASN56      -0.2716
     41  ND2       50.3430  -19.5360   36.0880 N.am   56  ASN56      -0.0877
     42  N         47.8100  -32.6890   34.3590 N.3   100  ARG100     -0.1231
     43  CA        46.5860  -32.1540   34.8900 C.3   100  ARG100      0.1694
     44  C         46.0790  -31.1710   33.8570 C.2   100  ARG100      0.2592
     45  O         46.6850  -30.1080   33.6320 O.2   100  ARG100     -0.2718
     46  CB        46.8290  -31.4470   36.2100 C.3   100  ARG100      0.0321
     47  CG        45.5150  -31.1010   36.9040 C.3   100  ARG100      0.0489
     48  CD        45.6930  -30.4070   38.2350 C.3   100  ARG100      0.2205
     49  NE        46.4710  -29.1820   38.0710 N.pl3 100  ARG100     -0.0865
     50  CZ        47.0970  -28.5410   39.0530 C.cat 100  ARG100      0.5346
     51  NH1       47.0710  -28.9860   40.2960 N.pl3 100  ARG100      0.1354
     52  NH2       47.7580  -27.4480   38.7710 N.pl3 100  ARG100      0.1354
     53  N         44.9910  -31.5400   33.1930 N.am  101  LEU101     -0.1966
     54  CA        44.4660  -30.7420   32.1270 C.3   101  LEU101      0.1728
     55  C         43.7110  -29.5210   32.6330 C.2   101  LEU101      0.2616
     56  O         43.3740  -29.3970   33.8270 O.2   101  LEU101     -0.2715
     57  CB        43.5540  -31.5800   31.2450 C.3   101  LEU101      0.0311
     58  CG        44.1400  -32.8580   30.6300 C.3   101  LEU101      0.0022
     59  CD1       43.1560  -33.4380   29.6400 C.3   101  LEU101      0.0001
     60  CD2       45.4640  -32.6560   29.9210 C.3   101  LEU101      0.0001
     61  N         43.4330  -28.6240   31.6920 N.am  102  MET102     -0.1963
     62  CA        42.5290  -27.5090   31.9510 C.3   102  MET102      0.1736
     63  C         41.1210  -28.0780   32.1770 C.2   102  MET102      0.2616
     64  O         40.7360  -29.0950   31.5950 O.2   102  MET102     -0.2715
     65  CB        42.4930  -26.4900   30.7980 C.3   102  MET102      0.0427
     66  CG        43.8470  -26.0670   30.2230 C.3   102  MET102      0.0599
     67  SD        45.1130  -25.4800   31.3700 S.3   102  MET102     -0.1393
     68  CE        44.3650  -23.9230   31.8170 C.3   102  MET102      0.0692
     69  N         40.3550  -27.4010   33.0060 N.am  103  ALA103     -0.1977
     70  CA        38.9780  -27.7680   33.2160 C.3   103  ALA103      0.1597
     71  C         38.2160  -27.6750   31.9030 C.2   103  ALA103      0.2287
     72  O         38.4490  -26.7450   31.1110 O.2   103  ALA103     -0.2864
     73  CB        38.3500  -26.8350   34.2380 C.3   103  ALA103      0.0319
     74  N         40.7950  -29.2900   37.3760 N.3   191  PRO191     -0.2116
     75  CA        39.7650  -28.6380   38.1580 C.3   191  PRO191      0.1372
     76  C         38.3720  -28.8230   37.5280 C.2   191  PRO191      0.2244
     77  O         38.2500  -29.1980   36.3600 O.2   191  PRO191     -0.2868
     78  CB        40.1710  -27.1580   38.1360 C.3   191  PRO191      0.0268
     79  CG        41.6380  -27.1700   37.8460 C.3   191  PRO191      0.0207
     80  CD        41.8190  -28.3420   36.9230 C.3   191  PRO191      0.0892
@<TRIPOS>BOND
     1    15    14    2
     2    19    17   am
     3    18    17    2
     4    20    21    1
     5    17    16    1
     6    14    13    1
     7    59    58    1
     8    60    58    1
     9    66    65    1
    10    66    67    1
    11    21    24    1
    12    21    22    1
    13    58    57    1
    14    16    13    1
    15    24    25    1
    16    65    62    1
    17    13    12    1
    18    72    71    2
    19    57    54    1
    20    67    68    1
    21    64    63    2
    22    22    23    2
    23    61    62    1
    24    61    55   am
    25    71    70    1
    26    62    63    1
    27    25    27   am
    28    25    26    2
    29    54    55    1
    30    54    53    1
    31    63    69   am
    32    55    56    2
    33    69    70    1
    34    53    44   am
    35    70    73    1
    36    45    44    2
    37    44    43    1
    38    42    43    1
    39    37    36    2
    40    36    35    1
    41    43    46    1
    42    38    35    1
    43    38    39    1
    44     4     3    2
    45     3     2    1
    46    28    29    1
    47    35    34    1
    48    41    39   am
    49    39    40    2
    50    46    47    1
    51    77    76    2
    52     2     5    1
    53     2     1    1
    54    47    48    1
    55    29    32    1
    56    29    30    1
    57    80    74    1
    58    80    79    1
    59    32    33    1
    60     5     6    1
    61    74    75    1
    62    76    75    1
    63    79    78    1
    64    49    48    1
    65    49    50    2
    66    78    75    1
    67    30    31    2
    68     7     6   ar
    69     7     9   ar
    70     6     8   ar
    71    52    50    1
    72    50    51    1
    73     9    11   ar
    74     8    10   ar
    75    11    10   ar
