@<TRIPOS>MOLECULE
tmp/5m5fA00.pdb
 178 175 0 0 0
SMALL
GASTEIGER

@<TRIPOS>ATOM
      1  N         13.8780   46.5540    1.2780 N.3   111  ASN111     -0.1225
      2  CA        12.6610   45.7790    1.5110 C.3   111  ASN111      0.1785
      3  C         12.4260   44.7810    0.3690 C.2   111  ASN111      0.2597
      4  O         11.3500   44.7500   -0.2380 O.2   111  ASN111     -0.2718
      5  CB        11.4710   46.7160    1.6650 C.3   111  ASN111      0.1169
      6  CG        11.4970   47.4810    2.9660 C.2   111  ASN111      0.2627
      7  OD1       11.8310   46.9540    4.0260 O.2   111  ASN111     -0.2716
      8  ND2       11.1000   48.7380    2.8950 N.am  111  ASN111     -0.0877
      9  N         13.4180   43.9440    0.0760 N.am  112  ASN112     -0.1960
     10  CA        13.2280   42.9710   -0.9840 C.3   112  ASN112      0.1819
     11  C         14.3590   41.9590   -0.9330 C.2   112  ASN112      0.2621
     12  O         15.3300   42.0950   -0.1690 O.2   112  ASN112     -0.2715
     13  CB        13.1300   43.6350   -2.3660 C.3   112  ASN112      0.1195
     14  CG        12.1150   42.9750   -3.2860 C.2   112  ASN112      0.2630
     15  OD1       11.8380   41.7880   -3.1840 O.2   112  ASN112     -0.2716
     16  ND2       11.5290   43.7770   -4.1900 N.am  112  ASN112     -0.0877
     17  N         14.2170   40.9530   -1.7840 N.am  113  ALA113     -0.1963
     18  CA        15.2080   39.9040   -2.0150 C.3   113  ALA113      0.1728
     19  C         15.0300   39.4720   -3.4580 C.2   113  ALA113      0.2616
     20  O         13.9370   39.6140   -4.0180 O.2   113  ALA113     -0.2715
     21  CB        15.0080   38.7280   -1.0600 C.3   113  ALA113      0.0334
     22  N         16.0780   38.9230   -4.0740 N.am  114  PHE114     -0.1960
     23  CA        15.9930   38.5990   -5.4900 C.3   114  PHE114      0.1771
     24  C         17.0860   37.6140   -5.8750 C.2   114  PHE114      0.2619
     25  O         18.0910   37.4420   -5.1810 O.2   114  PHE114     -0.2715
     26  CB        15.9940   39.8530   -6.3910 C.3   114  PHE114      0.0574
     27  CG        17.2000   40.7480   -6.2540 C.ar  114  PHE114     -0.0200
     28  CD1       17.2550   41.6820   -5.2310 C.ar  114  PHE114     -0.0042
     29  CD2       18.2070   40.7240   -7.1920 C.ar  114  PHE114     -0.0042
     30  CE1       18.3220   42.5580   -5.1260 C.ar  114  PHE114     -0.0003
     31  CE2       19.2890   41.5810   -7.0690 C.ar  114  PHE114     -0.0003
     32  CZ        19.3360   42.5000   -6.0660 C.ar  114  PHE114     -0.0000
     33  N         16.8830   37.0050   -7.0370 N.am  115  TRP115     -0.1974
     34  CA        17.8890   36.2400   -7.7690 C.3   115  TRP115      0.1640
     35  C         18.3690   37.1390   -8.9070 C.2   115  TRP115      0.2290
     36  O         17.5540   37.6110   -9.7060 O.2   115  TRP115     -0.2864
     37  CB        17.2660   34.9330   -8.2790 C.3   115  TRP115      0.0576
     38  CG        18.1590   34.1760   -9.2090 C.ar  115  TRP115      0.0006
     39  CD1       18.1180   34.1870  -10.5560 C.ar  115  TRP115      0.0946
     40  CD2       19.2500   33.3020   -8.8480 C.ar  115  TRP115      0.0152
     41  NE1       19.1210   33.3770  -11.0680 N.ar  115  TRP115     -0.2442
     42  CE2       19.8140   32.8140  -10.0360 C.ar  115  TRP115      0.0810
     43  CE3       19.7770   32.8590   -7.6270 C.ar  115  TRP115      0.0012
     44  CZ2       20.9000   31.9230  -10.0410 C.ar  115  TRP115      0.0191
     45  CZ3       20.8110   31.9660   -7.6370 C.ar  115  TRP115      0.0001
     46  CH2       21.3550   31.5050   -8.8320 C.ar  115  TRP115      0.0015
     47  N          8.5680   47.6990    7.4310 N.3   129  THR129     -0.1203
     48  CA         7.9490   46.8350    6.4340 C.3   129  THR129      0.1994
     49  C          8.4820   45.4130    6.5340 C.2   129  THR129      0.2617
     50  O          7.7350   44.4470    6.3490 O.2   129  THR129     -0.2717
     51  CB         8.1760   47.4140    5.0330 C.3   129  THR129      0.1784
     52  OG1        7.6860   48.7510    5.0160 O.3   129  THR129     -0.2211
     53  CG2        7.4330   46.5770    3.9470 C.3   129  THR129      0.0376
     54  N          9.7860   45.2690    6.7710 N.am  130  PHE130     -0.1975
     55  CA        10.4240   43.9640    6.8630 C.3   130  PHE130      0.1639
     56  C         11.5290   43.9930    7.9030 C.2   130  PHE130      0.2290
     57  O         12.1560   45.0290    8.1340 O.2   130  PHE130     -0.2864
     58  CB        11.1420   43.5740    5.5600 C.3   130  PHE130      0.0560
     59  CG        10.2500   43.0780    4.4650 C.ar  130  PHE130     -0.0200
     60  CD1        9.8030   41.7630    4.4680 C.ar  130  PHE130     -0.0042
     61  CD2        9.8920   43.8950    3.4140 C.ar  130  PHE130     -0.0042
     62  CE1        9.0160   41.2770    3.4450 C.ar  130  PHE130     -0.0003
     63  CE2        9.1030   43.3930    2.3870 C.ar  130  PHE130     -0.0003
     64  CZ         8.6740   42.0960    2.4150 C.ar  130  PHE130     -0.0000
     65  N         15.2330   39.6060    5.2450 N.3   133  LEU133     -0.1245
     66  CA        14.2920   38.7550    4.5380 C.3   133  LEU133      0.1561
     67  C         14.7060   37.2930    4.5100 C.2   133  LEU133      0.2260
     68  O         13.8450   36.4260    4.3160 O.2   133  LEU133     -0.2867
     69  CB        14.0080   39.2770    3.1210 C.3   133  LEU133      0.0270
     70  CG        13.0120   40.4690    3.0550 C.3   133  LEU133      0.0019
     71  CD1       13.6780   41.7900    3.3880 C.3   133  LEU133      0.0001
     72  CD2       12.3650   40.5220    1.7220 C.3   133  LEU133      0.0001
     73  N         10.6990   32.6270    1.7460 N.3   139  VAL139     -0.1245
     74  CA        11.3700   33.6400    0.9330 C.3   139  VAL139      0.1561
     75  C         12.6540   33.0800    0.3360 C.2   139  VAL139      0.2260
     76  O         12.9110   33.2120   -0.8550 O.2   139  VAL139     -0.2867
     77  CB        11.6150   34.9310    1.7510 C.3   139  VAL139      0.0252
     78  CG1       12.4130   35.9160    0.9010 C.3   139  VAL139      0.0019
     79  CG2       10.3100   35.5580    2.2240 C.3   139  VAL139      0.0019
     80  N         11.7280   30.6170   -2.2500 N.3   142  HIS142     -0.1226
     81  CA        11.2040   31.3760   -3.3810 C.3   142  HIS142      0.1752
     82  C         12.3510   31.8630   -4.2600 C.2   142  HIS142      0.2595
     83  O         12.3170   31.7310   -5.4930 O.2   142  HIS142     -0.2718
     84  CB        10.3550   32.5360   -2.8170 C.3   142  HIS142      0.0759
     85  CG         9.8010   33.4890   -3.8540 C.ar  142  HIS142      0.0818
     86  ND1        8.4580   33.6050   -4.1260 N.ar  142  HIS142     -0.2268
     87  CD2       10.4180   34.3680   -4.6770 C.ar  142  HIS142      0.1154
     88  CE1        8.2760   34.5090   -5.0820 C.ar  142  HIS142      0.1986
     89  NE2        9.4550   34.9770   -5.4440 N.ar  142  HIS142     -0.2212
     90  N         13.3590   32.4660   -3.6470 N.am  143  GLU143     -0.1979
     91  CA        14.4810   33.0240   -4.4210 C.3   143  GLU143      0.1602
     92  C         15.2600   31.9260   -5.1380 C.2   143  GLU143      0.2287
     93  O         15.5940   32.0460   -6.3250 O.2   143  GLU143     -0.2864
     94  CB        15.4170   33.8600   -3.5570 C.3   143  GLU143      0.0415
     95  CG        14.7520   35.0060   -2.7670 C.3   143  GLU143      0.1163
     96  CD        13.8450   35.9190   -3.5780 C.2   143  GLU143      0.3649
     97  OE1       14.0140   35.9790   -4.8120 O.co2 143  GLU143     -0.2457
     98  OE2       12.9100   36.4990   -2.9610 O.co2 143  GLU143     -0.2457
     99  N         13.6040   30.6930   -8.2490 N.3   146  HIS146     -0.1241
    100  CA        13.8030   31.4630   -9.4740 C.3   146  HIS146      0.1621
    101  C         14.9720   30.9210  -10.2770 C.2   146  HIS146      0.2264
    102  O         14.9160   30.8840  -11.5050 O.2   146  HIS146     -0.2867
    103  CB        14.0300   32.9400   -9.1400 C.3   146  HIS146      0.0745
    104  CG        12.7680   33.7080   -8.8580 C.ar  146  HIS146      0.0817
    105  ND1       11.7110   33.7210   -9.7290 N.ar  146  HIS146     -0.2268
    106  CD2       12.4140   34.5340   -7.8430 C.ar  146  HIS146      0.1154
    107  CE1       10.7540   34.5020   -9.2530 C.ar  146  HIS146      0.1986
    108  NE2       11.1560   35.0230   -8.1080 N.ar  146  HIS146     -0.2212
    109  N         10.0110   37.0140  -17.4460 N.3   157  TYR157     -0.1241
    110  CA         9.5320   37.6780  -16.2200 C.3   157  TYR157      0.1605
    111  C          8.6100   38.8680  -16.5020 C.2   157  TYR157      0.2264
    112  O          8.8360   39.9940  -16.0550 O.2   157  TYR157     -0.2867
    113  CB        10.7090   38.0780  -15.3470 C.3   157  TYR157      0.0534
    114  CG        10.3590   38.2620  -13.8800 C.ar  157  TYR157     -0.0201
    115  CD1        9.9200   37.2050  -13.1180 C.ar  157  TYR157     -0.0009
    116  CD2       10.4970   39.5110  -13.2520 C.ar  157  TYR157     -0.0009
    117  CE1        9.6540   37.3420  -11.7720 C.ar  157  TYR157      0.0417
    118  CE2       10.2140   39.6620  -11.9100 C.ar  157  TYR157      0.0417
    119  CZ         9.7780   38.5780  -11.1810 C.ar  157  TYR157      0.1957
    120  OH         9.5450   38.7420   -9.8210 O.3   157  TYR157     -0.2866
    121  N          6.4850   33.5990  -10.8870 N.3   166  GLU166     -0.1245
    122  CA         6.2620   33.9770   -9.4890 C.3   166  GLU166      0.1567
    123  C          5.5320   32.8910   -8.7260 C.2   166  GLU166      0.2260
    124  O          5.9260   32.5640   -7.5950 O.2   166  GLU166     -0.2867
    125  CB         5.4870   35.2860   -9.4430 C.3   166  GLU166      0.0388
    126  CG         6.3890   36.5000   -9.4450 C.3   166  GLU166      0.1160
    127  CD         7.3480   36.4330   -8.2810 C.2   166  GLU166      0.3649
    128  OE1        6.8860   36.2570   -7.1200 O.co2 166  GLU166     -0.2457
    129  OE2        8.5870   36.5050   -8.5180 O.co2 166  GLU166     -0.2457
    130  N          7.6670   39.8360    7.4270 N.3   193  TYR193     -0.1241
    131  CA         6.8820   40.9950    7.0190 C.3   193  TYR193      0.1605
    132  C          6.2900   41.6680    8.2460 C.2   193  TYR193      0.2264
    133  O          5.7510   40.9900    9.1310 O.2   193  TYR193     -0.2867
    134  CB         5.7680   40.5100    6.0940 C.3   193  TYR193      0.0534
    135  CG         4.9640   41.6120    5.4550 C.ar  193  TYR193     -0.0201
    136  CD1        5.5670   42.5130    4.6210 C.ar  193  TYR193     -0.0009
    137  CD2        3.5630   41.7190    5.6380 C.ar  193  TYR193     -0.0009
    138  CE1        4.8120   43.5210    3.9880 C.ar  193  TYR193      0.0417
    139  CE2        2.8390   42.6950    5.0190 C.ar  193  TYR193      0.0417
    140  CZ         3.4650   43.6040    4.1980 C.ar  193  TYR193      0.1957
    141  OH         2.6980   44.5940    3.5850 O.3   193  TYR193     -0.2866
    142  N          2.9170   38.7890    3.0440 N.3   202  LEU202     -0.1231
    143  CA         3.0960   39.4750    1.7800 C.3   202  LEU202      0.1693
    144  C          2.0500   39.0590    0.7400 C.2   202  LEU202      0.2591
    145  O          1.5820   39.8920   -0.0520 O.2   202  LEU202     -0.2718
    146  CB         4.5200   39.1580    1.3370 C.3   202  LEU202      0.0284
    147  CG         4.9600   39.7430    0.0410 C.3   202  LEU202      0.0019
    148  CD1        4.8860   41.2630    0.0670 C.3   202  LEU202      0.0001
    149  CD2        6.3920   39.2640   -0.2260 C.3   202  LEU202      0.0001
    150  N          1.7180   37.7660    0.7050 N.am  203  ARG203     -0.1980
    151  CA         0.7190   37.1710   -0.1630 C.3   203  ARG203      0.1597
    152  C          0.1160   35.9880    0.5700 C.2   203  ARG203      0.2287
    153  O          0.7360   35.4240    1.4720 O.2   203  ARG203     -0.2864
    154  CB         1.3070   36.6230   -1.4720 C.3   203  ARG203      0.0334
    155  CG         1.8070   37.7000   -2.3930 C.3   203  ARG203      0.0492
    156  CD         2.4210   37.1290   -3.6260 C.3   203  ARG203      0.2205
    157  NE         3.7250   36.4730   -3.4390 N.pl3 203  ARG203     -0.0865
    158  CZ         4.8890   37.0960   -3.4040 C.cat 203  ARG203      0.5346
    159  NH1        4.9290   38.4110   -3.4080 N.pl3 203  ARG203      0.1354
    160  NH2        6.0100   36.4070   -3.3650 N.pl3 203  ARG203      0.1354
    161  N          4.6470   46.4030  -12.0430 N.3   226  ASP226     -0.1239
    162  CA         5.0970   45.1090  -11.5250 C.3   226  ASP226      0.1674
    163  C          5.3110   44.1180  -12.6680 C.2   226  ASP226      0.2266
    164  O          4.9120   42.9560  -12.6010 O.2   226  ASP226     -0.2867
    165  CB         4.0800   44.5870  -10.5070 C.3   226  ASP226      0.1410
    166  CG         4.4720   43.2870   -9.8450 C.2   226  ASP226      0.3668
    167  OD1        5.6600   43.0270   -9.5670 O.co2 226  ASP226     -0.2456
    168  OD2        3.5640   42.4910   -9.5630 O.co2 226  ASP226     -0.2456
    169  N          3.6180   39.6920   -9.5150 N.3   231  HIS231     -0.1241
    170  CA         3.3480   39.3640   -8.1150 C.3   231  HIS231      0.1621
    171  C          1.8840   39.5130   -7.7410 C.2   231  HIS231      0.2264
    172  O          1.5280   39.2940   -6.5790 O.2   231  HIS231     -0.2867
    173  CB         4.1880   40.2520   -7.1640 C.3   231  HIS231      0.0745
    174  CG         5.6580   40.0880   -7.3060 C.ar  231  HIS231      0.0817
    175  ND1        6.4080   40.8820   -8.1450 N.ar  231  HIS231     -0.2268
    176  CD2        6.5260   39.2310   -6.7130 C.ar  231  HIS231      0.1154
    177  CE1        7.6820   40.5070   -8.0730 C.ar  231  HIS231      0.1986
    178  NE2        7.7740   39.5140   -7.2090 N.ar  231  HIS231     -0.2212
@<TRIPOS>BOND
     1   109   110    1
     2   111   110    1
     3   111   112    2
     4   110   113    1
     5   113   114    1
     6   114   116   ar
     7   114   115   ar
     8   116   118   ar
     9   115   117   ar
    10   163   164    2
    11   163   162    1
    12   161   162    1
    13   118   119   ar
    14   117   119   ar
    15   162   165    1
    16   102   101    2
    17   119   120    1
    18    41    39   ar
    19    41    42   ar
    20   121   122    1
    21    39    38   ar
    22   165   166    1
    23   101   100    1
    24    44    42   ar
    25    44    46   ar
    26    42    40   ar
    27   166   167   ar
    28   166   168   ar
    29   105   107   ar
    30   105   104   ar
    31    36    35    2
    32   169   170    1
    33   122   125    1
    34   122   123    1
    35   100   103    1
    36   100    99    1
    37   126   125    1
    38   126   127    1
    39   107   108   ar
    40    38    40   ar
    41    38    37    1
    42   103   104    1
    43    35    34    1
    44   104   106   ar
    45    40    43   ar
    46    46    45   ar
    47   123   124    2
    48   129   127   ar
    49   127   128   ar
    50    37    34    1
    51   175   177   ar
    52   175   174   ar
    53   170   171    1
    54   170   173    1
    55   108   106   ar
    56   177   178   ar
    57    34    33    1
    58   171   172    2
    59    45    43   ar
    60   174   173    1
    61   174   176   ar
    62   178   176   ar
    63    29    31   ar
    64    29    27   ar
    65    31    32   ar
    66    33    24   am
    67    26    27    1
    68    26    23    1
    69    93    92    2
    70    27    28   ar
    71    32    30   ar
    72    24    23    1
    73    24    25    2
    74    83    82    2
    75    23    22    1
    76    89    88   ar
    77    89    87   ar
    78    28    30   ar
    79    92    91    1
    80    88    86   ar
    81    97    96   ar
    82    87    85   ar
    83    91    90    1
    84    91    94    1
    85    82    90   am
    86    82    81    1
    87    16    14   am
    88    86    85   ar
    89    22    19   am
    90    20    19    2
    91    85    84    1
    92   156   157    1
    93   156   155    1
    94    96    98   ar
    95    96    95    1
    96    94    95    1
    97    19    18    1
    98   157   158    2
    99   159   158    1
   100   158   160    1
   101    81    84    1
   102    81    80    1
   103    14    15    2
   104    14    13    1
   105   155   154    1
   106    13    10    1
   107    18    17    1
   108    18    21    1
   109    17    11   am
   110   154   151    1
   111    10    11    1
   112    10     9    1
   113    11    12    2
   114    76    75    2
   115     4     3    2
   116   149   147    1
   117   151   152    1
   118   151   150    1
   119   145   144    2
   120   147   148    1
   121   147   146    1
   122     9     3   am
   123    75    74    1
   124     3     2    1
   125   152   153    2
   126   150   144   am
   127   144   143    1
   128    78    77    1
   129    74    73    1
   130    74    77    1
   131     1     2    1
   132   146   143    1
   133     2     5    1
   134     5     6    1
   135    72    70    1
   136    77    79    1
   137   143   142    1
   138    63    64   ar
   139    63    61   ar
   140    64    62   ar
   141     8     6   am
   142     6     7    2
   143    70    69    1
   144    70    71    1
   145    69    66    1
   146    61    59   ar
   147    62    60   ar
   148   141   140    1
   149    53    51    1
   150   138   140   ar
   151   138   136   ar
   152   140   139   ar
   153    68    67    2
   154    59    60   ar
   155    59    58    1
   156    67    66    1
   157    66    65    1
   158   136   135   ar
   159    52    51    1
   160   139   137   ar
   161    51    48    1
   162   135   137   ar
   163   135   134    1
   164    58    55    1
   165   134   131    1
   166    50    49    2
   167    48    49    1
   168    48    47    1
   169    49    54   am
   170    54    55    1
   171    55    56    1
   172   131   130    1
   173   131   132    1
   174    56    57    2
   175   132   133    2
