@<TRIPOS>MOLECULE
tmp/5m5kC01.pdb
 159 149 0 0 0
SMALL
GASTEIGER

@<TRIPOS>ATOM
      1  N         21.9340   21.1490   -4.6570 N.3    55  LEU55      -0.1231
      2  CA        21.7140   21.7940   -3.3760 C.3    55  LEU55       0.1693
      3  C         21.6380   20.7080   -2.3050 C.2    55  LEU55       0.2592
      4  O         20.9340   19.7190   -2.4980 O.2    55  LEU55      -0.2718
      5  CB        20.4080   22.5990   -3.4110 C.3    55  LEU55       0.0284
      6  CG        20.3620   23.8970   -2.5760 C.3    55  LEU55       0.0019
      7  CD1       19.1170   24.6960   -2.8750 C.3    55  LEU55       0.0001
      8  CD2       20.4380   23.6230   -1.0950 C.3    55  LEU55       0.0001
      9  N         22.3230   20.9310   -1.1710 N.am   56  HIS56      -0.1976
     10  CA        22.4100   19.9940   -0.0530 C.3    56  HIS56       0.1656
     11  C         21.1520   19.1520    0.0880 C.2    56  HIS56       0.2291
     12  O         20.0590   19.7070    0.3010 O.2    56  HIS56      -0.2864
     13  CB        22.6540   20.7480    1.2470 C.3    56  HIS56       0.0771
     14  CG        23.8180   21.7050    1.1810 C.ar   56  HIS56       0.0820
     15  ND1       25.1400   21.2780    1.2090 N.ar   56  HIS56      -0.2267
     16  CD2       23.8600   23.0570    1.1880 C.ar   56  HIS56       0.1154
     17  CE1       25.9270   22.3300    1.1830 C.ar   56  HIS56       0.1986
     18  NE2       25.1670   23.4190    1.1750 N.ar   56  HIS56      -0.2212
     19  N         19.0080   17.6700    1.9500 N.3    58  THR58      -0.1218
     20  CA        18.5490   17.5900    3.3340 C.3    58  THR58       0.1862
     21  C         17.0310   17.4520    3.3690 C.2    58  THR58       0.2287
     22  O         16.3490   17.5970    2.3500 O.2    58  THR58      -0.2866
     23  CB        18.9310   18.8510    4.1180 C.3    58  THR58       0.1770
     24  OG1       18.2300   19.9610    3.5440 O.3    58  THR58      -0.2211
     25  CG2       20.4680   19.1300    4.0630 C.3    58  THR58       0.0375
     26  N         15.1240   19.6980    4.6140 N.3    60  GLN60      -0.1231
     27  CA        14.5780   20.9860    4.1890 C.3    60  GLN60       0.1698
     28  C         14.5150   21.0720    2.6700 C.2    60  GLN60       0.2592
     29  O         13.5360   21.5740    2.1000 O.2    60  GLN60      -0.2718
     30  CB        15.4250   22.1580    4.7560 C.3    60  GLN60       0.0381
     31  CG        15.3960   22.2570    6.3040 C.3    60  GLN60       0.0905
     32  CD        16.0100   21.0240    6.9860 C.2    60  GLN60       0.2608
     33  OE1       17.1170   20.5840    6.6370 O.2    60  GLN60      -0.2717
     34  NE2       15.2770   20.4330    7.9260 N.am   60  GLN60      -0.0878
     35  N         15.5680   20.6060    1.9930 N.am   61  THR61      -0.1953
     36  CA        15.5760   20.6010    0.5370 C.3    61  THR61       0.1897
     37  C         14.5100   19.6760   -0.0250 C.2    61  THR61       0.2313
     38  O         13.9130   19.9840   -1.0610 O.2    61  THR61      -0.2863
     39  CB        16.9780   20.1790    0.0180 C.3    61  THR61       0.1794
     40  OG1       17.9020   21.1730    0.4110 O.3    61  THR61      -0.2208
     41  CG2       16.9960   20.0170   -1.5020 C.3    61  THR61       0.0378
     42  N         23.5580   25.9590   -5.6390 N.3   133  ASP133     -0.1239
     43  CA        24.0680   26.4150   -4.3490 C.3   133  ASP133      0.1674
     44  C         25.5700   26.2050   -4.4370 C.2   133  ASP133      0.2266
     45  O         26.0380   25.0620   -4.3240 O.2   133  ASP133     -0.2867
     46  CB        23.4350   25.6140   -3.2120 C.3   133  ASP133      0.1410
     47  CG        24.0140   25.9520   -1.8100 C.2   133  ASP133      0.3668
     48  OD1       25.2460   26.1860   -1.6030 O.co2 133  ASP133     -0.2456
     49  OD2       23.1820   25.9320   -0.8760 O.co2 133  ASP133     -0.2456
     50  N         22.0380   30.4150   -4.6730 N.3   195  GLU195     -0.1231
     51  CA        21.6950   30.5130   -3.2630 C.3   195  GLU195      0.1699
     52  C         22.7650   31.1990   -2.4250 C.2   195  GLU195      0.2592
     53  O         22.4540   31.8180   -1.3960 O.2   195  GLU195     -0.2718
     54  CB        21.4810   29.0730   -2.7690 C.3   195  GLU195      0.0402
     55  CG        21.4150   28.8260   -1.3050 C.3   195  GLU195      0.1161
     56  CD        19.9690   28.7240   -0.8560 C.2   195  GLU195      0.3649
     57  OE1       19.0830   28.8410   -1.7390 O.co2 195  GLU195     -0.2457
     58  OE2       19.7390   28.5550    0.3700 O.co2 195  GLU195     -0.2457
     59  N         24.0460   31.0820   -2.7670 N.am  196  THR196     -0.1953
     60  CA        25.0020   31.4580   -1.7300 C.3   196  THR196      0.1897
     61  C         26.0120   32.4890   -2.2030 C.2   196  THR196      0.2313
     62  O         26.1990   32.7270   -3.3990 O.2   196  THR196     -0.2863
     63  CB        25.6450   30.1670   -1.1560 C.3   196  THR196      0.1794
     64  OG1       26.1390   30.4320    0.1790 O.3   196  THR196     -0.2208
     65  CG2       26.7230   29.6110   -2.1110 C.3   196  THR196      0.0378
     66  N         16.8870   36.2930    2.7930 N.3   225  LYS225     -0.1245
     67  CA        17.8520   35.2010    2.7820 C.3   225  LYS225      0.1561
     68  C         19.1050   35.6430    3.5260 C.2   225  LYS225      0.2260
     69  O         19.3780   35.1570    4.6250 O.2   225  LYS225     -0.2867
     70  CB        18.1240   34.7750    1.3300 C.3   225  LYS225      0.0271
     71  CG        18.7890   33.4280    1.1350 C.3   225  LYS225      0.0035
     72  CD        20.2770   33.4570    1.4500 C.3   225  LYS225      0.0206
     73  CE        20.8450   32.0450    1.2270 C.3   225  LYS225      0.1093
     74  NZ        22.2900   32.1500    1.5200 N.3   225  LYS225     -0.1314
     75  N         18.8540   33.4250    6.8970 N.3   229  ASP229     -0.1225
     76  CA        19.6670   32.2250    6.6730 C.3   229  ASP229      0.1805
     77  C         21.1290   32.4410    7.0790 C.2   229  ASP229      0.2597
     78  O         21.6590   31.7710    7.9850 O.2   229  ASP229     -0.2718
     79  CB        19.5570   31.8730    5.1850 C.3   229  ASP229      0.1424
     80  CG        20.4260   30.6780    4.7490 C.2   229  ASP229      0.3668
     81  OD1       21.6020   30.5420    5.1640 O.co2 229  ASP229     -0.2456
     82  OD2       19.9160   29.8830    3.9190 O.co2 229  ASP229     -0.2456
     83  N         21.8280   33.3240    6.3610 N.am  230  ASN230     -0.1974
     84  CA        23.2700   33.4400    6.5920 C.3   230  ASN230      0.1688
     85  C         23.5710   33.7700    8.0440 C.2   230  ASN230      0.2292
     86  O         24.5680   33.2810    8.5880 O.2   230  ASN230     -0.2864
     87  CB        23.8980   34.5120    5.6780 C.3   230  ASN230      0.1181
     88  CG        23.7190   34.2170    4.1930 C.2   230  ASN230      0.2629
     89  OD1       22.7050   33.6440    3.7850 O.2   230  ASN230     -0.2716
     90  ND2       24.7260   34.5710    3.3720 N.am  230  ASN230     -0.0877
     91  N         32.4040   28.3000    5.8710 N.3   339  GLY339     -0.1225
     92  CA        32.3330   29.1840    4.7230 C.3   339  GLY339      0.1811
     93  C         32.1650   28.4320    3.4150 C.2   339  GLY339      0.2280
     94  O         31.0540   28.2410    2.9130 O.2   339  GLY339     -0.2866
     95  N         31.8930   22.2350    5.0470 N.3   381  LEU381     -0.1245
     96  CA        30.8920   22.9300    5.8570 C.3   381  LEU381      0.1561
     97  C         30.5080   22.1360    7.0850 C.2   381  LEU381      0.2260
     98  O         29.9190   21.0640    6.9610 O.2   381  LEU381     -0.2867
     99  CB        29.6340   23.1920    5.0500 C.3   381  LEU381      0.0270
    100  CG        29.8110   23.9830    3.7950 C.3   381  LEU381      0.0019
    101  CD1       28.4230   24.2010    3.2910 C.3   381  LEU381      0.0001
    102  CD2       30.5440   25.3460    4.1330 C.3   381  LEU381      0.0001
    103  N         28.4040   22.7890    9.6380 N.3   383  ASN383     -0.1225
    104  CA        27.0370   22.6880   10.1440 C.3   383  ASN383      0.1785
    105  C         26.2580   21.6110    9.3930 C.2   383  ASN383      0.2597
    106  O         25.4810   20.8680    9.9950 O.2   383  ASN383     -0.2718
    107  CB        26.3400   24.0670   10.0640 C.3   383  ASN383      0.1169
    108  CG        26.2850   24.6310    8.6330 C.2   383  ASN383      0.2627
    109  OD1       27.1820   24.4150    7.8140 O.2   383  ASN383     -0.2716
    110  ND2       25.2550   25.4070    8.3570 N.am  383  ASN383     -0.0877
    111  N         26.4700   21.5050    8.0840 N.am  384  LEU384     -0.1980
    112  CA        25.8310   20.4540    7.2890 C.3   384  LEU384      0.1596
    113  C         26.5550   19.1250    7.3930 C.2   384  LEU384      0.2287
    114  O         25.9080   18.0640    7.2620 O.2   384  LEU384     -0.2864
    115  CB        25.7820   20.9040    5.8200 C.3   384  LEU384      0.0297
    116  CG        24.6680   21.9780    5.6560 C.3   384  LEU384      0.0022
    117  CD1       25.0140   22.9690    4.5840 C.3   384  LEU384      0.0001
    118  CD2       23.3120   21.2830    5.3150 C.3   384  LEU384      0.0001
    119  N         22.9430   18.9290   11.1220 N.3   388  MET388     -0.1230
    120  CA        21.8600   18.7930   10.1400 C.3   388  MET388      0.1702
    121  C         21.6490   20.0780    9.3420 C.2   388  MET388      0.2593
    122  O         20.5810   20.3000    8.7720 O.2   388  MET388     -0.2718
    123  CB        20.5600   18.3790   10.8460 C.3   388  MET388      0.0401
    124  CG        20.6670   17.0280   11.5780 C.3   388  MET388      0.0596
    125  SD        20.9070   15.6190   10.4870 S.3   388  MET388     -0.1393
    126  CE        19.1860   15.2590   10.0840 C.3   388  MET388      0.0692
    127  N         22.6320   20.9350    9.3020 N.am  389  GLY389     -0.1942
    128  CA        22.4440   22.2050    8.6170 C.3   389  GLY389      0.2014
    129  C         21.5320   23.1610    9.4060 C.2   389  GLY389      0.2638
    130  O         21.1810   22.9200   10.5620 O.2   389  GLY389     -0.2714
    131  N         21.0960   24.2260    8.7240 N.am  390  HIS390     -0.1973
    132  CA        20.1490   25.1770    9.3490 C.3   390  HIS390      0.1656
    133  C         18.8080   24.4870    9.6320 C.2   390  HIS390      0.2291
    134  O         18.3960   23.6120    8.8740 O.2   390  HIS390     -0.2864
    135  CB        19.8590   26.3800    8.4410 C.3   390  HIS390      0.0771
    136  CG        21.0270   27.2260    8.1160 C.ar  390  HIS390      0.0820
    137  ND1       22.2270   27.1460    8.7960 N.ar  390  HIS390     -0.2267
    138  CD2       21.1690   28.2200    7.1980 C.ar  390  HIS390      0.1154
    139  CE1       23.0750   28.0290    8.2760 C.ar  390  HIS390      0.1986
    140  NE2       22.4630   28.6940    7.3120 N.ar  390  HIS390     -0.2212
    141  N         15.1730   27.9450    6.6500 N.3   395  MET395     -0.1245
    142  CA        15.3000   27.4910    5.2650 C.3   395  MET395      0.1570
    143  C         14.0170   27.7040    4.4880 C.2   395  MET395      0.2261
    144  O         14.0590   27.8410    3.2640 O.2   395  MET395     -0.2867
    145  CB        15.6820   26.0040    5.2030 C.3   395  MET395      0.0387
    146  CG        17.1020   25.6950    5.7520 C.3   395  MET395      0.0595
    147  SD        18.3710   26.8830    5.1590 S.3   395  MET395     -0.1393
    148  CE        18.3650   26.6250    3.4420 C.3   395  MET395      0.0692
    149  N         14.0710   29.1320    0.8050 N.3   399  PHE399     -0.1241
    150  CA        13.5620   28.3120   -0.2740 C.3   399  PHE399      0.1605
    151  C         12.2840   28.8660   -0.8700 C.2   399  PHE399      0.2264
    152  O         11.9800   28.5280   -2.0170 O.2   399  PHE399     -0.2867
    153  CB        13.3680   26.8670    0.2050 C.3   399  PHE399      0.0534
    154  CG        14.6770   26.1230    0.4370 C.ar  399  PHE399     -0.0203
    155  CD1       15.8770   26.6680   -0.0360 C.ar  399  PHE399     -0.0042
    156  CD2       14.7200   24.9160    1.1050 C.ar  399  PHE399     -0.0042
    157  CE1       17.0670   26.0210    0.1380 C.ar  399  PHE399     -0.0003
    158  CE2       15.9370   24.2140    1.2870 C.ar  399  PHE399     -0.0003
    159  CZ        17.1080   24.7950    0.8080 C.ar  399  PHE399     -0.0000
@<TRIPOS>BOND
     1    42    43    1
     2    50    51    1
     3     1     2    1
     4    44    43    1
     5    44    45    2
     6    43    46    1
     7     5     2    1
     8     5     6    1
     9    62    61    2
    10     2     3    1
    11    51    54    1
    12    51    52    1
    13    46    47    1
    14     7     6    1
    15    54    55    1
    16    59    52   am
    17    59    60    1
    18     6     8    1
    19     4     3    2
    20    52    53    2
    21     3     9   am
    22    61    60    1
    23    65    63    1
    24   152   151    2
    25    47    48   ar
    26    47    49   ar
    27    57    56   ar
    28    60    63    1
    29    41    39    1
    30    55    56    1
    31     9    10    1
    32    63    64    1
    33    38    37    2
    34   151   150    1
    35    56    58   ar
    36   150   153    1
    37   150   149    1
    38    10    11    1
    39    10    13    1
    40   155   157   ar
    41   155   154   ar
    42    37    36    1
    43    39    40    1
    44    39    36    1
    45    11    12    2
    46   157   159   ar
    47   153   154    1
    48   154   156   ar
    49    36    35    1
    50   159   158   ar
    51   156   158   ar
    52    71    70    1
    53    71    72    1
    54    18    17   ar
    55    18    16   ar
    56    14    16   ar
    57    14    15   ar
    58    14    13    1
    59    17    15   ar
    60    73    72    1
    61    73    74    1
    62    70    67    1
    63    19    20    1
    64    35    28   am
    65    29    28    2
    66    22    21    2
    67    28    27    1
    68    67    66    1
    69    67    68    1
    70    94    93    2
    71   144   143    2
    72   101   100    1
    73    20    21    1
    74    20    23    1
    75    90    88   am
    76    93    92    1
    77   148   147    1
    78    68    69    2
    79    24    23    1
    80    89    88    2
    81   100   102    1
    82   100    99    1
    83    82    80   ar
    84    25    23    1
    85    27    26    1
    86    27    30    1
    87    88    87    1
    88   143   142    1
    89   117   116    1
    90    92    91    1
    91    80    81   ar
    92    80    79    1
    93    30    31    1
    94    95    96    1
    95    99    96    1
    96   147   146    1
    97    79    76    1
    98   145   142    1
    99   145   146    1
   100   142   141    1
   101   118   116    1
   102   116   115    1
   103    87    84    1
   104   115   112    1
   105    96    97    1
   106    31    32    1
   107    83    84    1
   108    83    77   am
   109    84    85    1
   110    33    32    2
   111    76    75    1
   112    76    77    1
   113    98    97    2
   114    32    34   am
   115    77    78    2
   116   138   140   ar
   117   138   136   ar
   118   114   113    2
   119   112   113    1
   120   112   111    1
   121   140   139   ar
   122   109   108    2
   123    85    86    2
   124   111   105   am
   125   136   135    1
   126   136   137   ar
   127   139   137   ar
   128   110   108   am
   129   135   132    1
   130   128   127    1
   131   128   129    1
   132   108   107    1
   133   131   132    1
   134   131   129   am
   135   122   121    2
   136   134   133    2
   137   127   121   am
   138   121   120    1
   139   132   133    1
   140   105   106    2
   141   105   104    1
   142   129   130    2
   143   103   104    1
   144   107   104    1
   145   126   125    1
   146   120   123    1
   147   120   119    1
   148   125   124    1
   149   123   124    1
