@<TRIPOS>MOLECULE
tmp/5m5qA01.pdb
 92 85 0 0 0
SMALL
GASTEIGER

@<TRIPOS>ATOM
      1  N         24.1140  -35.0410   13.6760 N.3    75  MET75      -0.1245
      2  CA        23.6880  -34.1390   12.6170 C.3    75  MET75       0.1570
      3  C         23.1070  -34.8680   11.4310 C.2    75  MET75       0.2261
      4  O         23.3250  -36.0690   11.2550 O.2    75  MET75      -0.2867
      5  CB        24.8490  -33.2370   12.1850 C.3    75  MET75       0.0387
      6  CG        25.8330  -33.9350   11.3050 C.3    75  MET75       0.0595
      7  SD        26.7030  -32.7540   10.3120 S.3    75  MET75      -0.1393
      8  CE        25.4530  -32.3390    9.0780 C.3    75  MET75       0.0692
      9  N         20.8940  -33.9750    7.2670 N.3    77  LEU77      -0.1245
     10  CA        20.4980  -33.0680    6.2030 C.3    77  LEU77       0.1561
     11  C         18.9970  -33.0060    6.0640 C.2    77  LEU77       0.2260
     12  O         18.3010  -33.9360    6.4700 O.2    77  LEU77      -0.2867
     13  CB        21.1940  -33.4620    4.8690 C.3    77  LEU77       0.0270
     14  CG        22.7440  -33.4230    4.8830 C.3    77  LEU77       0.0019
     15  CD1       23.3130  -33.8370    3.5430 C.3    77  LEU77       0.0001
     16  CD2       23.2770  -32.0440    5.2620 C.3    77  LEU77       0.0001
     17  N         23.1500  -38.2670    9.3770 N.3    95  LEU95      -0.1245
     18  CA        24.5140  -38.4140    8.8470 C.3    95  LEU95       0.1561
     19  C         25.3870  -39.1720    9.8960 C.2    95  LEU95       0.2260
     20  O         25.1850  -38.9580   11.1030 O.2    95  LEU95      -0.2867
     21  CB        25.1760  -37.0790    8.4440 C.3    95  LEU95       0.0270
     22  CG        24.8260  -36.5090    7.0530 C.3    95  LEU95       0.0019
     23  CD1       25.6310  -35.2640    6.7710 C.3    95  LEU95       0.0001
     24  CD2       25.1080  -37.5100    5.9270 C.3    95  LEU95       0.0001
     25  N         32.5190  -39.2180    3.9920 N.3    97  ALA97      -0.1231
     26  CA        31.1220  -38.9730    4.3470 C.3    97  ALA97       0.1694
     27  C         30.4000  -38.0150    3.3750 C.2    97  ALA97       0.2591
     28  O         29.1630  -38.0090    3.3390 O.2    97  ALA97      -0.2718
     29  CB        31.0280  -38.4500    5.7720 C.3    97  ALA97       0.0304
     30  N         31.1720  -37.2150    2.5910 N.am   98  GLN98      -0.1979
     31  CA        30.6530  -36.2420    1.6190 C.3    98  GLN98       0.1601
     32  C         29.9570  -36.9050    0.4410 C.2    98  GLN98       0.2287
     33  O         28.8720  -36.4630    0.0560 O.2    98  GLN98      -0.2864
     34  CB        31.7570  -35.2970    1.1250 C.3    98  GLN98       0.0394
     35  CG        31.9810  -34.0970    2.0350 C.3    98  GLN98       0.0908
     36  CD        32.0740  -32.8000    1.2660 C.2    98  GLN98       0.2608
     37  OE1       31.2630  -32.5060    0.3740 O.2    98  GLN98      -0.2717
     38  NE2       33.0450  -31.9730    1.6240 N.am   98  GLN98      -0.0878
     39  N         26.7300  -38.4620    1.7170 N.3   101  ALA101     -0.1245
     40  CA        25.7390  -37.3990    1.9120 C.3   101  ALA101      0.1562
     41  C         25.1260  -36.9990    0.5600 C.2   101  ALA101      0.2260
     42  O         23.9180  -36.7690    0.4880 O.2   101  ALA101     -0.2867
     43  CB        26.3810  -36.1930    2.5870 C.3   101  ALA101      0.0290
     44  N         20.5630  -28.0690    7.0710 N.3   124  TRP124     -0.1241
     45  CA        21.1840  -29.0550    7.9400 C.3   124  TRP124      0.1605
     46  C         20.6260  -28.8820    9.3290 C.2   124  TRP124      0.2264
     47  O         20.1920  -27.7930    9.6990 O.2   124  TRP124     -0.2867
     48  CB        22.7530  -28.9760    7.9380 C.3   124  TRP124      0.0550
     49  CG        23.3320  -27.7460    8.5830 C.ar  124  TRP124      0.0003
     50  CD1       23.0540  -26.4510    8.2630 C.ar  124  TRP124      0.0946
     51  CD2       24.2940  -27.6980    9.6540 C.ar  124  TRP124      0.0152
     52  NE1       23.7950  -25.5990    9.0530 N.ar  124  TRP124     -0.2442
     53  CE2       24.5600  -26.3340    9.9170 C.ar  124  TRP124      0.0810
     54  CE3       24.9680  -28.6800   10.4160 C.ar  124  TRP124      0.0012
     55  CZ2       25.4630  -25.9170   10.9160 C.ar  124  TRP124      0.0191
     56  CZ3       25.8770  -28.2670   11.3900 C.ar  124  TRP124      0.0001
     57  CH2       26.1130  -26.9000   11.6350 C.ar  124  TRP124      0.0015
     58  N         30.0560  -22.0720    9.9520 N.3   142  THR142     -0.1218
     59  CA        29.5960  -23.0950    9.0020 C.3   142  THR142      0.1862
     60  C         28.3690  -22.5630    8.2310 C.2   142  THR142      0.2287
     61  O         28.3210  -22.6870    7.0080 O.2   142  THR142     -0.2866
     62  CB        29.2850  -24.4300    9.7150 C.3   142  THR142      0.1770
     63  OG1       30.4620  -24.9000   10.3820 O.3   142  THR142     -0.2211
     64  CG2       28.7750  -25.5090    8.7570 C.3   142  THR142      0.0375
     65  N         27.5830  -21.8010    4.2790 N.3   146  ASN146     -0.1240
     66  CA        26.4160  -22.4360    3.6700 C.3   146  ASN146      0.1653
     67  C         25.5780  -21.4170    2.9270 C.2   146  ASN146      0.2266
     68  O         25.0980  -21.7120    1.8450 O.2   146  ASN146     -0.2867
     69  CB        25.5530  -23.1970    4.7070 C.3   146  ASN146      0.1155
     70  CG        26.1650  -24.4440    5.2890 C.2   146  ASN146      0.2627
     71  OD1       27.0300  -25.1050    4.7000 O.2   146  ASN146     -0.2716
     72  ND2       25.6760  -24.8290    6.4470 N.am  146  ASN146     -0.0877
     73  N         25.7220  -23.2080   -0.3110 N.3   150  GLN150     -0.1245
     74  CA        24.5800  -24.1300   -0.3200 C.3   150  GLN150      0.1566
     75  C         23.2280  -23.4410   -0.4720 C.2   150  GLN150      0.2260
     76  O         22.1950  -24.0990   -0.4190 O.2   150  GLN150     -0.2867
     77  CB        24.5730  -24.9580    0.9900 C.3   150  GLN150      0.0367
     78  CG        25.8330  -25.7620    1.3060 C.3   150  GLN150      0.0905
     79  CD        26.0470  -26.9550    0.4440 C.2   150  GLN150      0.2608
     80  OE1       25.2390  -27.2860   -0.4110 O.2   150  GLN150     -0.2717
     81  NE2       27.1680  -27.6190    0.6350 N.am  150  GLN150     -0.0878
     82  N         19.6870  -22.1160    2.2490 N.3   153  PHE153     -0.1241
     83  CA        20.0230  -23.1320    3.2500 C.3   153  PHE153      0.1605
     84  C         19.7460  -22.6180    4.6270 C.2   153  PHE153      0.2264
     85  O         20.0850  -21.4670    4.9250 O.2   153  PHE153     -0.2867
     86  CB        21.5000  -23.5500    3.0850 C.3   153  PHE153      0.0534
     87  CG        21.8580  -25.0070    3.2890 C.ar  153  PHE153     -0.0203
     88  CD1       21.4720  -25.9770    2.3620 C.ar  153  PHE153     -0.0042
     89  CD2       22.6860  -25.3960    4.3420 C.ar  153  PHE153     -0.0042
     90  CE1       21.8660  -27.3120    2.5070 C.ar  153  PHE153     -0.0003
     91  CE2       23.0670  -26.7390    4.4970 C.ar  153  PHE153     -0.0003
     92  CZ        22.6540  -27.6890    3.5790 C.ar  153  PHE153     -0.0000
@<TRIPOS>BOND
     1    75    76    2
     2    75    74    1
     3    80    79    2
     4    74    73    1
     5    74    77    1
     6    33    32    2
     7    37    36    2
     8    32    31    1
     9    79    81   am
    10    79    78    1
    11    42    41    2
    12    41    40    1
    13    77    78    1
    14    34    31    1
    15    34    35    1
    16    36    38   am
    17    36    35    1
    18    31    30    1
    19    39    40    1
    20    68    67    2
    21    40    43    1
    22    82    83    1
    23    88    90   ar
    24    88    87   ar
    25    90    92   ar
    26    30    27   am
    27    67    66    1
    28    86    83    1
    29    86    87    1
    30    83    84    1
    31    87    89   ar
    32    28    27    2
    33    27    26    1
    34    15    14    1
    35    92    91   ar
    36    66    65    1
    37    66    69    1
    38    25    26    1
    39    89    91   ar
    40    26    29    1
    41    84    85    2
    42    71    70    2
    43    69    70    1
    44    13    14    1
    45    13    10    1
    46    14    16    1
    47    70    72   am
    48    24    22    1
    49    11    10    1
    50    11    12    2
    51    10     9    1
    52    23    22    1
    53    61    60    2
    54    22    21    1
    55    44    45    1
    56    48    45    1
    57    48    49    1
    58    45    46    1
    59    60    59    1
    60    50    49   ar
    61    50    52   ar
    62    21    18    1
    63    49    51   ar
    64    64    62    1
    65    18    17    1
    66    18    19    1
    67    59    62    1
    68    59    58    1
    69    52    53   ar
    70     8     7    1
    71    46    47    2
    72    51    53   ar
    73    51    54   ar
    74    62    63    1
    75    19    20    2
    76    53    55   ar
    77     7     6    1
    78    54    56   ar
    79    55    57   ar
    80     4     3    2
    81     6     5    1
    82    56    57   ar
    83     3     2    1
    84     5     2    1
    85     2     1    1
