@<TRIPOS>MOLECULE
tmp/5m5qA00.pdb
 136 131 0 0 0
SMALL
GASTEIGER

@<TRIPOS>ATOM
      1  N         25.9040  -36.8410   23.2330 N.3    72  LEU72      -0.1231
      2  CA        26.6660  -36.4780   22.0450 C.3    72  LEU72       0.1693
      3  C         25.7800  -35.7660   21.0040 C.2    72  LEU72       0.2592
      4  O         24.6190  -36.1410   20.7970 O.2    72  LEU72      -0.2718
      5  CB        27.2840  -37.7190   21.3850 C.3    72  LEU72       0.0284
      6  CG        28.3550  -38.5130   22.1770 C.3    72  LEU72       0.0019
      7  CD1       28.7220  -39.7760   21.4280 C.3    72  LEU72       0.0001
      8  CD2       29.6390  -37.6820   22.4120 C.3    72  LEU72       0.0001
      9  N         26.3650  -34.7590   20.3230 N.am   73  GLU73      -0.1966
     10  CA        25.7470  -34.0130   19.2230 C.3    73  GLU73       0.1733
     11  C         25.7130  -34.9360   18.0110 C.2    73  GLU73       0.2616
     12  O         26.6870  -35.6380   17.7370 O.2    73  GLU73      -0.2715
     13  CB        26.6020  -32.7910   18.8180 C.3    73  GLU73       0.0429
     14  CG        26.7390  -31.6820   19.8370 C.3    73  GLU73       0.1163
     15  CD        27.6670  -31.9720   21.0020 C.2    73  GLU73       0.3649
     16  OE1       27.5240  -31.2870   22.0330 O.co2  73  GLU73      -0.2457
     17  OE2       28.4970  -32.9060   20.9120 O.co2  73  GLU73      -0.2457
     18  N         24.5920  -34.9250   17.2790 N.am   74  VAL74      -0.1963
     19  CA        24.4170  -35.6760   16.0320 C.3    74  VAL74       0.1727
     20  C         24.0030  -34.6590   14.9460 C.2    74  VAL74       0.2616
     21  O         23.5230  -33.5690   15.2700 O.2    74  VAL74      -0.2715
     22  CB        23.3740  -36.8320   16.1450 C.3    74  VAL74       0.0290
     23  CG1       23.7750  -37.8480   17.2120 C.3    74  VAL74       0.0023
     24  CG2       21.9540  -36.3040   16.3840 C.3    74  VAL74       0.0023
     25  N         24.1140  -35.0410   13.6760 N.am   75  MET75      -0.1977
     26  CA        23.6880  -34.1390   12.6170 C.3    75  MET75       0.1605
     27  C         23.1070  -34.8680   11.4310 C.2    75  MET75       0.2287
     28  O         23.3250  -36.0690   11.2550 O.2    75  MET75      -0.2864
     29  CB        24.8490  -33.2370   12.1850 C.3    75  MET75       0.0413
     30  CG        25.8330  -33.9350   11.3050 C.3    75  MET75       0.0598
     31  SD        26.7030  -32.7540   10.3120 S.3    75  MET75      -0.1393
     32  CE        25.4530  -32.3390    9.0780 C.3    75  MET75       0.0692
     33  N         23.1500  -38.2670    9.3770 N.3    95  LEU95      -0.1231
     34  CA        24.5140  -38.4140    8.8470 C.3    95  LEU95       0.1678
     35  C         25.3870  -39.1720    9.8960 C.2    95  LEU95       0.2434
     36  O         25.1850  -38.9580   11.1030 O.2    95  LEU95      -0.2733
     37  CB        25.1760  -37.0790    8.4440 C.3    95  LEU95       0.0284
     38  CG        24.8260  -36.5090    7.0530 C.3    95  LEU95       0.0019
     39  CD1       25.6310  -35.2640    6.7710 C.3    95  LEU95       0.0001
     40  CD2       25.1080  -37.5100    5.9270 C.3    95  LEU95       0.0001
     41  N         26.3250  -40.0780    9.5080 N.am   96  PRO96      -0.2729
     42  CA        26.7370  -40.4890    8.1400 C.3    96  PRO96       0.1401
     43  C         25.6960  -41.3250    7.3960 C.2    96  PRO96       0.2269
     44  O         25.6960  -41.3560    6.1660 O.2    96  PRO96      -0.2865
     45  CB        28.0330  -41.2960    8.3850 C.3    96  PRO96       0.0296
     46  CG        28.4520  -40.9820    9.8180 C.3    96  PRO96       0.0237
     47  CD        27.1560  -40.7510   10.5320 C.3    96  PRO96       0.0939
     48  N         32.5190  -39.2180    3.9920 N.3    97  ALA97      -0.1245
     49  CA        31.1220  -38.9730    4.3470 C.3    97  ALA97       0.1562
     50  C         30.4000  -38.0150    3.3750 C.2    97  ALA97       0.2260
     51  O         29.1630  -38.0090    3.3390 O.2    97  ALA97      -0.2867
     52  CB        31.0280  -38.4500    5.7720 C.3    97  ALA97       0.0290
     53  N         20.5630  -28.0690    7.0710 N.3   124  TRP124     -0.1241
     54  CA        21.1840  -29.0550    7.9400 C.3   124  TRP124      0.1605
     55  C         20.6260  -28.8820    9.3290 C.2   124  TRP124      0.2264
     56  O         20.1920  -27.7930    9.6990 O.2   124  TRP124     -0.2867
     57  CB        22.7530  -28.9760    7.9380 C.3   124  TRP124      0.0550
     58  CG        23.3320  -27.7460    8.5830 C.ar  124  TRP124      0.0003
     59  CD1       23.0540  -26.4510    8.2630 C.ar  124  TRP124      0.0946
     60  CD2       24.2940  -27.6980    9.6540 C.ar  124  TRP124      0.0152
     61  NE1       23.7950  -25.5990    9.0530 N.ar  124  TRP124     -0.2442
     62  CE2       24.5600  -26.3340    9.9170 C.ar  124  TRP124      0.0810
     63  CE3       24.9680  -28.6800   10.4160 C.ar  124  TRP124      0.0012
     64  CZ2       25.4630  -25.9170   10.9160 C.ar  124  TRP124      0.0191
     65  CZ3       25.8770  -28.2670   11.3900 C.ar  124  TRP124      0.0001
     66  CH2       26.1130  -26.9000   11.6350 C.ar  124  TRP124      0.0015
     67  N         21.2610  -30.2130   13.6140 N.3   126  HIS126     -0.1241
     68  CA        22.1620  -30.7800   14.5910 C.3   126  HIS126      0.1621
     69  C         21.5970  -30.5300   15.9680 C.2   126  HIS126      0.2264
     70  O         20.7280  -29.6570   16.1450 O.2   126  HIS126     -0.2867
     71  CB        23.6500  -30.3670   14.4130 C.3   126  HIS126      0.0745
     72  CG        24.0090  -29.0280   14.9520 C.ar  126  HIS126      0.0817
     73  ND1       23.6900  -27.8630   14.2690 N.ar  126  HIS126     -0.2268
     74  CD2       24.6470  -28.7080   16.0990 C.ar  126  HIS126      0.1154
     75  CE1       24.1190  -26.8750   15.0280 C.ar  126  HIS126      0.1986
     76  NE2       24.7140  -27.3370   16.1400 N.ar  126  HIS126     -0.2212
     77  N         21.9850  -29.9970   20.2560 N.3   128  HIS128     -0.1241
     78  CA        22.6670  -29.3550   21.3860 C.3   128  HIS128      0.1621
     79  C         22.0590  -30.0590   22.6040 C.2   128  HIS128      0.2264
     80  O         21.1310  -29.5130   23.2120 O.2   128  HIS128     -0.2867
     81  CB        22.3480  -27.8460   21.4120 C.3   128  HIS128      0.0745
     82  CG        23.2250  -27.0160   20.5080 C.ar  128  HIS128      0.0817
     83  ND1       23.2150  -25.6320   20.5720 N.ar  128  HIS128     -0.2268
     84  CD2       24.1170  -27.4020   19.5640 C.ar  128  HIS128      0.1154
     85  CE1       24.1160  -25.2230   19.6980 C.ar  128  HIS128      0.1986
     86  NE2       24.6630  -26.2440   19.0420 N.ar  128  HIS128     -0.2212
     87  N         21.6280  -28.1070   26.2120 N.3   131  TYR131     -0.1241
     88  CA        22.0910  -26.7250   26.2760 C.3   131  TYR131      0.1605
     89  C         21.4100  -25.7560   25.2830 C.2   131  TYR131      0.2264
     90  O         21.9720  -24.7070   24.9820 O.2   131  TYR131     -0.2867
     91  CB        23.6110  -26.6280   26.1880 C.3   131  TYR131      0.0534
     92  CG        24.2670  -27.2590   24.9870 C.ar  131  TYR131     -0.0201
     93  CD1       24.6920  -28.5860   25.0230 C.ar  131  TYR131     -0.0009
     94  CD2       24.6560  -26.4830   23.8970 C.ar  131  TYR131     -0.0009
     95  CE1       25.4140  -29.1440   23.9710 C.ar  131  TYR131      0.0417
     96  CE2       25.4250  -27.0170   22.8680 C.ar  131  TYR131      0.0417
     97  CZ        25.7750  -28.3530   22.8950 C.ar  131  TYR131      0.1957
     98  OH        26.4680  -28.9010   21.8550 O.3   131  TYR131     -0.2866
     99  N         26.4530  -21.8820   17.8030 N.3   136  SER136     -0.1217
    100  CA        27.7220  -21.7360   18.4750 C.3   136  SER136      0.1889
    101  C         28.6930  -21.0900   17.4650 C.2   136  SER136      0.2288
    102  O         28.3220  -20.9040   16.2900 O.2   136  SER136     -0.2866
    103  CB        28.2180  -23.1030   18.9510 C.3   136  SER136      0.2089
    104  OG        28.6400  -23.9470   17.8920 O.3   136  SER136     -0.2183
    105  N         31.3160  -22.2840   15.8970 N.3   138  ILE138     -0.1231
    106  CA        31.5010  -23.1880   14.7710 C.3   138  ILE138      0.1692
    107  C         30.2320  -23.2540   13.8760 C.2   138  ILE138      0.2592
    108  O         30.3550  -23.4470   12.6750 O.2   138  ILE138     -0.2718
    109  CB        32.0160  -24.5940   15.2500 C.3   138  ILE138      0.0266
    110  CG1       32.5520  -25.4590   14.0910 C.3   138  ILE138      0.0019
    111  CG2       30.9650  -25.3800   16.0750 C.3   138  ILE138      0.0020
    112  CD1       33.8970  -25.0130   13.4460 C.3   138  ILE138      0.0001
    113  N         29.0360  -23.0550   14.4540 N.am  139  ASP139     -0.1974
    114  CA        27.7930  -23.1110   13.6960 C.3   139  ASP139      0.1709
    115  C         27.6020  -21.8810   12.8480 C.2   139  ASP139      0.2293
    116  O         27.0680  -21.9840   11.7460 O.2   139  ASP139     -0.2864
    117  CB        26.5950  -23.2520   14.6280 C.3   139  ASP139      0.1436
    118  CG        26.5910  -24.4800   15.4820 C.2   139  ASP139      0.3671
    119  OD1       27.2240  -25.4640   15.0930 O.co2 139  ASP139     -0.2456
    120  OD2       25.9130  -24.4700   16.5120 O.co2 139  ASP139     -0.2456
    121  N         30.0560  -22.0720    9.9520 N.3   142  THR142     -0.1218
    122  CA        29.5960  -23.0950    9.0020 C.3   142  THR142      0.1862
    123  C         28.3690  -22.5630    8.2310 C.2   142  THR142      0.2287
    124  O         28.3210  -22.6870    7.0080 O.2   142  THR142     -0.2866
    125  CB        29.2850  -24.4300    9.7150 C.3   142  THR142      0.1770
    126  OG1       30.4620  -24.9000   10.3820 O.3   142  THR142     -0.2211
    127  CG2       28.7750  -25.5090    8.7570 C.3   142  THR142      0.0375
    128  N         28.8380  -22.1560   28.5160 N.3   193  LYS193     -0.1245
    129  CA        28.4650  -21.9330   27.1180 C.3   193  LYS193      0.1561
    130  C         28.0720  -20.4620   26.8520 C.2   193  LYS193      0.2260
    131  O         28.0410  -20.0560   25.6870 O.2   193  LYS193     -0.2867
    132  CB        27.2550  -22.8260   26.7350 C.3   193  LYS193      0.0271
    133  CG        27.5000  -24.3340   26.7710 C.3   193  LYS193      0.0035
    134  CD        28.1520  -24.8660   25.5040 C.3   193  LYS193      0.0206
    135  CE        28.3710  -26.3570   25.5840 C.3   193  LYS193      0.1093
    136  NZ        28.9040  -26.9070   24.3050 N.3   193  LYS193     -0.1314
@<TRIPOS>BOND
     1    51    50    2
     2    50    49    1
     3    48    49    1
     4    49    52    1
     5    40    38    1
     6    44    43    2
     7    39    38    1
     8   124   123    2
     9    38    37    1
    10    53    54    1
    11    43    42    1
    12    57    54    1
    13    57    58    1
    14    54    55    1
    15    42    45    1
    16    42    41    1
    17   123   122    1
    18    59    58   ar
    19    59    61   ar
    20    45    46    1
    21    37    34    1
    22    58    60   ar
    23   127   125    1
    24    34    33    1
    25    34    35    1
    26   122   125    1
    27   122   121    1
    28    61    62   ar
    29    32    31    1
    30    55    56    2
    31    41    35   am
    32    41    47    1
    33    60    62   ar
    34    60    63   ar
    35   125   126    1
    36    46    47    1
    37    35    36    2
    38    62    64   ar
    39    31    30    1
    40    63    65   ar
    41    64    66   ar
    42    28    27    2
    43    30    29    1
    44    65    66   ar
    45    27    26    1
    46   116   115    2
    47    29    26    1
    48    26    25    1
    49   108   107    2
    50   115   114    1
    51   112   110    1
    52    67    68    1
    53    25    20   am
    54   114   113    1
    55   114   117    1
    56   107   113   am
    57   107   106    1
    58   110   109    1
    59    73    72   ar
    60    73    75   ar
    61    71    68    1
    62    71    72    1
    63    68    69    1
    64   117   118    1
    65   106   109    1
    66   106   105    1
    67    20    21    2
    68    20    19    1
    69    72    74   ar
    70    75    76   ar
    71   119   118   ar
    72   109   111    1
    73   118   120   ar
    74    69    70    2
    75    19    22    1
    76    19    18    1
    77    74    76   ar
    78    22    24    1
    79    22    23    1
    80   102   101    2
    81    18    11   am
    82   101   100    1
    83    12    11    2
    84    99   100    1
    85   104   103    1
    86    11    10    1
    87   100   103    1
    88    13    10    1
    89    13    14    1
    90    86    84   ar
    91    86    85   ar
    92    10     9    1
    93    84    82   ar
    94    85    83   ar
    95    14    15    1
    96    77    78    1
    97     9     3   am
    98    82    83   ar
    99    82    81    1
   100     4     3    2
   101    17    15   ar
   102    15    16   ar
   103     3     2    1
   104     5     2    1
   105     5     6    1
   106    78    81    1
   107    78    79    1
   108     7     6    1
   109    98    97    1
   110     2     1    1
   111     6     8    1
   112    79    80    2
   113    96    97   ar
   114    96    94   ar
   115    97    95   ar
   116    94    92   ar
   117    95    93   ar
   118   136   135    1
   119    90    89    2
   120    92    93   ar
   121    92    91    1
   122    89    88    1
   123   134   135    1
   124   134   133    1
   125   131   130    2
   126    91    88    1
   127    87    88    1
   128   132   133    1
   129   132   129    1
   130   130   129    1
   131   129   128    1
