@<TRIPOS>MOLECULE
tmp/5m5sB01.pdb
 69 67 0 0 0
SMALL
GASTEIGER

@<TRIPOS>ATOM
      1  N         22.7330   21.2040   72.6570 N.3   161  TRP161     -0.1241
      2  CA        22.7510   19.8830   72.0530 C.3   161  TRP161      0.1605
      3  C         22.8990   20.0860   70.5470 C.2   161  TRP161      0.2264
      4  O         22.0660   20.7380   69.9450 O.2   161  TRP161     -0.2867
      5  CB        21.4750   19.0920   72.4200 C.3   161  TRP161      0.0550
      6  CG        21.4360   18.8170   73.9060 C.ar  161  TRP161      0.0003
      7  CD1       20.8620   19.5960   74.8670 C.ar  161  TRP161      0.0946
      8  CD2       22.0210   17.7110   74.5870 C.ar  161  TRP161      0.0152
      9  NE1       21.0770   19.0520   76.1210 N.ar  161  TRP161     -0.2442
     10  CE2       21.7860   17.8940   75.9760 C.ar  161  TRP161      0.0810
     11  CE3       22.7250   16.5840   74.1700 C.ar  161  TRP161      0.0012
     12  CZ2       22.2390   16.9940   76.9370 C.ar  161  TRP161      0.0191
     13  CZ3       23.1560   15.6760   75.1280 C.ar  161  TRP161      0.0001
     14  CH2       22.9100   15.8810   76.4940 C.ar  161  TRP161      0.0015
     15  N         26.0670   13.2320   67.8070 N.3   180  LEU180     -0.1245
     16  CA        25.3870   14.0450   68.8170 C.3   180  LEU180      0.1561
     17  C         26.4450   14.5660   69.7910 C.2   180  LEU180      0.2260
     18  O         27.1890   13.7760   70.3330 O.2   180  LEU180     -0.2867
     19  CB        24.3200   13.2190   69.5520 C.3   180  LEU180      0.0270
     20  CG        23.5240   13.9370   70.6780 C.3   180  LEU180      0.0019
     21  CD1       22.6470   15.0720   70.1450 C.3   180  LEU180      0.0001
     22  CD2       22.6860   12.9370   71.4750 C.3   180  LEU180      0.0001
     23  N         25.6820    7.8170   66.4370 N.3   191  ILE191     -0.1245
     24  CA        24.3620    7.1930   66.3240 C.3   191  ILE191      0.1561
     25  C         24.0490    6.9100   64.8350 C.2   191  ILE191      0.2260
     26  O         24.2380    7.8050   64.0030 O.2   191  ILE191     -0.2867
     27  CB        23.2670    8.1480   66.8770 C.3   191  ILE191      0.0252
     28  CG1       23.5130    8.4960   68.3430 C.3   191  ILE191      0.0019
     29  CG2       21.8910    7.5040   66.7630 C.3   191  ILE191      0.0019
     30  CD1       22.6490    9.6420   68.8430 C.3   191  ILE191      0.0001
     31  N         14.6850   14.9740   71.5970 N.3   213  PHE213     -0.1241
     32  CA        15.4650   14.6400   70.4190 C.3   213  PHE213      0.1605
     33  C         14.6970   13.5440   69.6740 C.2   213  PHE213      0.2264
     34  O         14.4350   12.4730   70.2440 O.2   213  PHE213     -0.2867
     35  CB        16.8630   14.1380   70.8530 C.3   213  PHE213      0.0534
     36  CG        17.7200   13.6090   69.7160 C.ar  213  PHE213     -0.0203
     37  CD1       17.9710   14.3900   68.5970 C.ar  213  PHE213     -0.0042
     38  CD2       18.3040   12.3460   69.7860 C.ar  213  PHE213     -0.0042
     39  CE1       18.7500   13.9050   67.5360 C.ar  213  PHE213     -0.0003
     40  CE2       19.0870   11.8510   68.7330 C.ar  213  PHE213     -0.0003
     41  CZ        19.3190   12.6320   67.6150 C.ar  213  PHE213     -0.0000
     42  N         13.1440   10.8820   72.4710 N.3   228  ILE228     -0.1231
     43  CA        13.8860   10.7210   73.7150 C.3   228  ILE228      0.1692
     44  C         14.3200   12.0720   74.3030 C.2   228  ILE228      0.2592
     45  O         14.7420   12.9560   73.5640 O.2   228  ILE228     -0.2718
     46  CB        15.0920    9.7530   73.5090 C.3   228  ILE228      0.0266
     47  CG1       15.8080    9.4810   74.8370 C.3   228  ILE228      0.0019
     48  CG2       16.0820   10.2860   72.4960 C.3   228  ILE228      0.0020
     49  CD1       16.7070    8.2600   74.8050 C.3   228  ILE228      0.0001
     50  N         14.1910   12.2280   75.6330 N.am  229  GLU229     -0.1966
     51  CA        14.6370   13.4440   76.3010 C.3   229  GLU229      0.1733
     52  C         16.1620   13.4490   76.3490 C.2   229  GLU229      0.2616
     53  O         16.7820   12.4130   76.6340 O.2   229  GLU229     -0.2715
     54  CB        14.0720   13.5330   77.7310 C.3   229  GLU229      0.0429
     55  CG        14.3280   14.8600   78.4390 C.3   229  GLU229      0.1163
     56  CD        13.5550   14.9970   79.7560 C.2   229  GLU229      0.3649
     57  OE1       13.1460   13.9610   80.3420 O.co2 229  GLU229     -0.2457
     58  OE2       13.3690   16.1490   80.1990 O.co2 229  GLU229     -0.2457
     59  N         16.7630   14.6090   76.0740 N.am  230  VAL230     -0.1963
     60  CA        18.2300   14.7650   76.1550 C.3   230  VAL230      0.1727
     61  C         18.5850   15.4960   77.4420 C.2   230  VAL230      0.2616
     62  O         18.0430   16.5590   77.7160 O.2   230  VAL230     -0.2715
     63  CB        18.8720   15.4980   74.9470 C.3   230  VAL230      0.0290
     64  CG1       19.1010   14.5410   73.7990 C.3   230  VAL230      0.0023
     65  CG2       18.0580   16.6950   74.4620 C.3   230  VAL230      0.0023
     66  N         19.4990   14.9210   78.2210 N.am  231  GLY231     -0.1955
     67  CA        20.0160   15.5710   79.4240 C.3   231  GLY231      0.1869
     68  C         19.1550   15.2810   80.6520 C.2   231  GLY231      0.2309
     69  O         18.2030   14.5120   80.5890 O.2   231  GLY231     -0.2863
@<TRIPOS>BOND
     1    26    25    2
     2    25    24    1
     3    24    23    1
     4    24    27    1
     5    29    27    1
     6    27    28    1
     7    39    41   ar
     8    39    37   ar
     9    41    40   ar
    10    15    16    1
    11    28    30    1
    12    37    36   ar
    13    40    38   ar
    14    16    19    1
    15    16    17    1
    16    19    20    1
    17    33    34    2
    18    33    32    1
    19    36    38   ar
    20    36    35    1
    21    17    18    2
    22     4     3    2
    23    21    20    1
    24    32    35    1
    25    32    31    1
    26     3     2    1
    27    20    22    1
    28     2     5    1
    29     2     1    1
    30     5     6    1
    31    42    43    1
    32    48    46    1
    33    46    43    1
    34    46    47    1
    35    45    44    2
    36    43    44    1
    37    64    63    1
    38     6     8   ar
    39     6     7   ar
    40    11     8   ar
    41    11    13   ar
    42    44    50   am
    43    65    63    1
    44     8    10   ar
    45    49    47    1
    46     7     9   ar
    47    63    60    1
    48    13    14   ar
    49    50    51    1
    50    10     9   ar
    51    10    12   ar
    52    59    60    1
    53    59    52   am
    54    60    61    1
    55    51    52    1
    56    51    54    1
    57    52    53    2
    58    14    12   ar
    59    61    62    2
    60    61    66   am
    61    54    55    1
    62    66    67    1
    63    55    56    1
    64    67    68    1
    65    56    58   ar
    66    56    57   ar
    67    69    68    2
