@<TRIPOS>MOLECULE
tmp/5m5tB02.pdb
 80 78 0 0 0
SMALL
GASTEIGER

@<TRIPOS>ATOM
      1  N         20.0100   20.3480   72.7310 N.3   161  TRP161     -0.1241
      2  CA        20.0520   19.0200   72.1110 C.3   161  TRP161      0.1605
      3  C         20.1710   19.2040   70.6120 C.2   161  TRP161      0.2264
      4  O         19.3360   19.8820   70.0170 O.2   161  TRP161     -0.2867
      5  CB        18.7780   18.1980   72.4700 C.3   161  TRP161      0.0550
      6  CG        18.7120   17.9210   73.9010 C.ar  161  TRP161      0.0003
      7  CD1       18.1240   18.6910   74.8490 C.ar  161  TRP161      0.0946
      8  CD2       19.3320   16.8380   74.5820 C.ar  161  TRP161      0.0152
      9  NE1       18.2990   18.1220   76.0860 N.ar  161  TRP161     -0.2442
     10  CE2       19.0650   16.9970   75.9490 C.ar  161  TRP161      0.0810
     11  CE3       20.0570   15.7140   74.1590 C.ar  161  TRP161      0.0012
     12  CZ2       19.4960   16.0700   76.9090 C.ar  161  TRP161      0.0191
     13  CZ3       20.4840   14.7980   75.1260 C.ar  161  TRP161      0.0001
     14  CH2       20.1950   15.0110   76.4820 C.ar  161  TRP161      0.0015
     15  N         23.3580   12.5010   67.9700 N.3   180  LEU180     -0.1245
     16  CA        22.6400   13.3000   68.9400 C.3   180  LEU180      0.1561
     17  C         23.6420   13.8230   69.9340 C.2   180  LEU180      0.2260
     18  O         24.4220   13.0510   70.4990 O.2   180  LEU180     -0.2867
     19  CB        21.5800   12.4600   69.6640 C.3   180  LEU180      0.0270
     20  CG        20.8110   13.1610   70.7850 C.3   180  LEU180      0.0019
     21  CD1       19.9110   14.2310   70.2320 C.3   180  LEU180      0.0001
     22  CD2       19.9730   12.1450   71.5350 C.3   180  LEU180      0.0001
     23  N         22.9360    7.0860   66.5030 N.3   191  ILE191     -0.1245
     24  CA        21.6460    6.4870   66.4190 C.3   191  ILE191      0.1561
     25  C         21.3560    6.2490   64.9280 C.2   191  ILE191      0.2260
     26  O         21.5880    7.1320   64.1140 O.2   191  ILE191     -0.2867
     27  CB        20.5490    7.4160   67.0100 C.3   191  ILE191      0.0252
     28  CG1       20.8570    7.7700   68.4890 C.3   191  ILE191      0.0019
     29  CG2       19.1780    6.7620   66.9380 C.3   191  ILE191      0.0019
     30  CD1       19.9200    8.8060   69.0750 C.3   191  ILE191      0.0001
     31  N         12.2080   14.0670   71.6710 N.3   213  PHE213     -0.1241
     32  CA        12.9790   13.7520   70.4780 C.3   213  PHE213      0.1605
     33  C         12.1760   12.6970   69.7260 C.2   213  PHE213      0.2264
     34  O         11.8790   11.6460   70.3120 O.2   213  PHE213     -0.2867
     35  CB        14.3400   13.1590   70.8960 C.3   213  PHE213      0.0534
     36  CG        15.1890   12.6710   69.7420 C.ar  213  PHE213     -0.0203
     37  CD1       15.4220   13.4810   68.6420 C.ar  213  PHE213     -0.0042
     38  CD2       15.8040   11.4470   69.7800 C.ar  213  PHE213     -0.0042
     39  CE1       16.1810   13.0250   67.5690 C.ar  213  PHE213     -0.0003
     40  CE2       16.5690   10.9910   68.6990 C.ar  213  PHE213     -0.0003
     41  CZ        16.7460   11.8000   67.5980 C.ar  213  PHE213     -0.0000
     42  N         12.1100   10.4230   66.1500 N.3   215  PHE215     -0.1241
     43  CA        12.8130   10.0150   64.9560 C.3   215  PHE215      0.1605
     44  C         12.1500    8.8080   64.3150 C.2   215  PHE215      0.2264
     45  O         11.5720    7.9610   65.0060 O.2   215  PHE215     -0.2867
     46  CB        14.2940    9.8000   65.1680 C.3   215  PHE215      0.0534
     47  CG        14.6620    8.5580   65.9150 C.ar  215  PHE215     -0.0203
     48  CD1       14.6370    8.5300   67.2850 C.ar  215  PHE215     -0.0042
     49  CD2       15.1220    7.4390   65.2310 C.ar  215  PHE215     -0.0042
     50  CE1       15.0530    7.3960   67.9850 C.ar  215  PHE215     -0.0003
     51  CE2       15.5120    6.3260   65.9010 C.ar  215  PHE215     -0.0003
     52  CZ        15.4680    6.2880   67.2790 C.ar  215  PHE215     -0.0000
     53  N         10.6560   10.0950   72.4240 N.3   228  ILE228     -0.1231
     54  CA        11.3430    9.8980   73.6860 C.3   228  ILE228      0.1692
     55  C         11.7680   11.2220   74.2810 C.2   228  ILE228      0.2592
     56  O         12.1970   12.1550   73.5770 O.2   228  ILE228     -0.2718
     57  CB        12.5500    8.9540   73.5060 C.3   228  ILE228      0.0266
     58  CG1       13.1720    8.5630   74.8570 C.3   228  ILE228      0.0019
     59  CG2       13.6060    9.5940   72.6230 C.3   228  ILE228      0.0020
     60  CD1       14.2270    7.4730   74.7720 C.3   228  ILE228      0.0001
     61  N         11.6330   11.3310   75.5960 N.am  229  GLU229     -0.1966
     62  CA        12.0490   12.5560   76.2820 C.3   229  GLU229      0.1733
     63  C         13.5740   12.5770   76.3540 C.2   229  GLU229      0.2616
     64  O         14.1860   11.5590   76.6800 O.2   229  GLU229     -0.2715
     65  CB        11.4700   12.6210   77.6910 C.3   229  GLU229      0.0429
     66  CG        11.7370   13.9440   78.4040 C.3   229  GLU229      0.1163
     67  CD        11.0390   14.0360   79.7570 C.2   229  GLU229      0.3649
     68  OE1       10.6300   12.9900   80.2970 O.co2 229  GLU229     -0.2457
     69  OE2       10.8670   15.1860   80.2030 O.co2 229  GLU229     -0.2457
     70  N         14.1580   13.7320   76.0860 N.am  230  VAL230     -0.1963
     71  CA        15.6050   13.9050   76.2600 C.3   230  VAL230      0.1727
     72  C         15.8190   14.7430   77.4960 C.2   230  VAL230      0.2616
     73  O         15.1690   15.7730   77.6820 O.2   230  VAL230     -0.2715
     74  CB        16.3300   14.5420   75.0410 C.3   230  VAL230      0.0290
     75  CG1       16.4400   13.5600   73.9200 C.3   230  VAL230      0.0023
     76  CG2       15.6750   15.7920   74.5410 C.3   230  VAL230      0.0023
     77  N         16.7980   14.3590   78.2960 N.am  231  GLY231     -0.1955
     78  CA        17.1580   15.1820   79.4400 C.3   231  GLY231      0.1869
     79  C         16.3940   14.7040   80.6470 C.2   231  GLY231      0.2309
     80  O         15.4720   13.8990   80.5440 O.2   231  GLY231     -0.2863
@<TRIPOS>BOND
     1    26    25    2
     2    44    43    1
     3    44    45    2
     4    25    24    1
     5    43    46    1
     6    43    42    1
     7    46    47    1
     8    49    51   ar
     9    49    47   ar
    10    51    52   ar
    11    47    48   ar
    12    24    23    1
    13    24    27    1
    14    29    27    1
    15    27    28    1
    16    52    50   ar
    17    48    50   ar
    18    39    41   ar
    19    39    37   ar
    20    41    40   ar
    21    15    16    1
    22    28    30    1
    23    37    36   ar
    24    40    38   ar
    25    16    19    1
    26    16    17    1
    27    19    20    1
    28    33    34    2
    29    33    32    1
    30    36    38   ar
    31    36    35    1
    32    17    18    2
    33     4     3    2
    34    21    20    1
    35    32    35    1
    36    32    31    1
    37     3     2    1
    38    20    22    1
    39     2     5    1
    40     2     1    1
    41    53    54    1
    42     5     6    1
    43    59    57    1
    44    57    54    1
    45    57    58    1
    46    56    55    2
    47    54    55    1
    48     6     8   ar
    49     6     7   ar
    50    75    74    1
    51    11     8   ar
    52    11    13   ar
    53    55    61   am
    54    76    74    1
    55     8    10   ar
    56    60    58    1
    57     7     9   ar
    58    74    71    1
    59    13    14   ar
    60    61    62    1
    61    10     9   ar
    62    10    12   ar
    63    70    71    1
    64    70    63   am
    65    71    72    1
    66    62    63    1
    67    62    65    1
    68    63    64    2
    69    14    12   ar
    70    72    73    2
    71    72    77   am
    72    65    66    1
    73    77    78    1
    74    66    67    1
    75    78    79    1
    76    67    69   ar
    77    67    68   ar
    78    80    79    2
