@<TRIPOS>MOLECULE
tmp/5m5tA02.pdb
 80 78 0 0 0
SMALL
GASTEIGER

@<TRIPOS>ATOM
      1  N          3.6410    0.2590   20.6080 N.3   161  TRP161     -0.1241
      2  CA         4.1420    1.6040   20.3170 C.3   161  TRP161      0.1605
      3  C          5.2380    1.3970   19.2930 C.2   161  TRP161      0.2264
      4  O          6.2040    0.6710   19.5660 O.2   161  TRP161     -0.2867
      5  CB         4.6750    2.2990   21.5940 C.3   161  TRP161      0.0550
      6  CG         3.5510    2.5950   22.4980 C.ar  161  TRP161      0.0003
      7  CD1        3.1110    1.8470   23.5070 C.ar  161  TRP161      0.0946
      8  CD2        2.6670    3.7310   22.4180 C.ar  161  TRP161      0.0152
      9  NE1        1.9710    2.4230   24.0810 N.ar  161  TRP161     -0.2442
     10  CE2        1.7130    3.6000   23.4490 C.ar  161  TRP161      0.0810
     11  CE3        2.6440    4.8670   21.6260 C.ar  161  TRP161      0.0012
     12  CZ2        0.6940    4.5440   23.6610 C.ar  161  TRP161      0.0191
     13  CZ3        1.6610    5.8170   21.8700 C.ar  161  TRP161      0.0001
     14  CH2        0.6880    5.6130   22.8580 C.ar  161  TRP161      0.0015
     15  N          5.6340    8.1510   15.2560 N.3   180  LEU180     -0.1245
     16  CA         5.2430    7.3450   16.4110 C.3   180  LEU180      0.1561
     17  C          3.8350    6.8850   16.1710 C.2   180  LEU180      0.2260
     18  O          2.9470    7.7320   15.8930 O.2   180  LEU180     -0.2867
     19  CB         5.2940    8.1760   17.7190 C.3   180  LEU180      0.0270
     20  CG         4.9180    7.4400   18.9970 C.3   180  LEU180      0.0019
     21  CD1        5.8450    6.3050   19.3210 C.3   180  LEU180      0.0001
     22  CD2        4.8620    8.4090   20.1910 C.3   180  LEU180      0.0001
     23  N          7.1420   13.5620   14.7280 N.3   191  ILE191     -0.1245
     24  CA         8.0340   14.1410   15.7220 C.3   191  ILE191      0.1561
     25  C          9.3990   14.3520   15.0660 C.2   191  ILE191      0.2260
     26  O          9.9140   13.4340   14.4220 O.2   191  ILE191     -0.2867
     27  CB         8.2180   13.1950   16.9190 C.3   191  ILE191      0.0252
     28  CG1        6.8720   12.9450   17.5950 C.3   191  ILE191      0.0019
     29  CG2        9.1420   13.8580   17.9720 C.3   191  ILE191      0.0019
     30  CD1        6.8930   11.7930   18.5820 C.3   191  ILE191      0.0001
     31  N          9.4310    6.2500   26.2320 N.3   213  PHE213     -0.1241
     32  CA         9.9200    6.5680   24.9210 C.3   213  PHE213      0.1605
     33  C         11.0030    7.6220   25.1260 C.2   213  PHE213      0.2264
     34  O         10.7500    8.6600   25.7500 O.2   213  PHE213     -0.2867
     35  CB         8.7640    7.1050   24.0920 C.3   213  PHE213      0.0534
     36  CG         9.1560    7.6650   22.7710 C.ar  213  PHE213     -0.0203
     37  CD1        9.9330    6.9150   21.9010 C.ar  213  PHE213     -0.0042
     38  CD2        8.7020    8.9040   22.3710 C.ar  213  PHE213     -0.0042
     39  CE1       10.3030    7.4550   20.6810 C.ar  213  PHE213     -0.0003
     40  CE2        9.0440    9.4370   21.1420 C.ar  213  PHE213     -0.0003
     41  CZ         9.8560    8.7060   20.3230 C.ar  213  PHE213     -0.0000
     42  N         13.9360    9.8910   22.9990 N.3   215  PHE215     -0.1241
     43  CA        14.5180   10.2780   21.7190 C.3   215  PHE215      0.1605
     44  C         15.4440   11.4480   21.8880 C.2   215  PHE215      0.2264
     45  O         15.2610   12.2720   22.8130 O.2   215  PHE215     -0.2867
     46  CB        13.4350   10.5400   20.6440 C.3   215  PHE215      0.0534
     47  CG        12.6520   11.7860   20.8150 C.ar  215  PHE215     -0.0203
     48  CD1       11.5520   11.8150   21.6420 C.ar  215  PHE215     -0.0042
     49  CD2       12.9690   12.9480   20.0760 C.ar  215  PHE215     -0.0042
     50  CE1       10.7970   12.9730   21.7820 C.ar  215  PHE215     -0.0003
     51  CE2       12.1930   14.0880   20.1950 C.ar  215  PHE215     -0.0003
     52  CZ        11.1270   14.1140   21.0630 C.ar  215  PHE215     -0.0000
     53  N          9.8740   10.1820   28.0190 N.3   228  ILE228     -0.1231
     54  CA         8.4490   10.4060   28.2500 C.3   228  ILE228      0.1692
     55  C          7.7040    9.1060   28.2930 C.2   228  ILE228      0.2592
     56  O          7.9540    8.1780   27.5070 O.2   228  ILE228     -0.2718
     57  CB         7.8570   11.3480   27.1770 C.3   228  ILE228      0.0266
     58  CG1        6.4790   11.8590   27.5960 C.3   228  ILE228      0.0019
     59  CG2        7.8030   10.6420   25.8250 C.3   228  ILE228      0.0020
     60  CD1        6.0250   13.1120   26.8840 C.3   228  ILE228      0.0001
     61  N          6.7410    9.0220   29.1930 N.am  229  GLU229     -0.1966
     62  CA         5.9640    7.8150   29.2900 C.3   229  GLU229      0.1733
     63  C          4.9630    7.7960   28.1320 C.2   229  GLU229      0.2616
     64  O          4.3310    8.8090   27.8900 O.2   229  GLU229     -0.2715
     65  CB         5.2000    7.7770   30.6050 C.3   229  GLU229      0.0429
     66  CG         4.4230    6.5190   30.8150 C.3   229  GLU229      0.1163
     67  CD         3.8630    6.3810   32.2310 C.2   229  GLU229      0.3649
     68  OE1        3.6740    7.3950   32.9260 O.co2 229  GLU229     -0.2457
     69  OE2        3.5660    5.2350   32.5960 O.co2 229  GLU229     -0.2457
     70  N          4.8100    6.6650   27.4760 N.am  230  VAL230     -0.1963
     71  CA         3.7610    6.5300   26.4720 C.3   230  VAL230      0.1727
     72  C          2.6230    5.7250   27.0310 C.2   230  VAL230      0.2616
     73  O          2.8290    4.6750   27.6440 O.2   230  VAL230     -0.2715
     74  CB         4.2460    5.8780   25.1520 C.3   230  VAL230      0.0290
     75  CG1        5.0220    6.8960   24.3690 C.3   230  VAL230      0.0023
     76  CG2        5.1010    4.6350   25.3540 C.3   230  VAL230      0.0023
     77  N          1.4160    6.1780   26.7370 N.am  231  GLY231     -0.1955
     78  CA         0.2420    5.4110   27.0950 C.3   231  GLY231      0.1869
     79  C         -0.2570    5.8830   28.4380 C.2   231  GLY231      0.2309
     80  O          0.3030    6.7870   29.0780 O.2   231  GLY231     -0.2863
@<TRIPOS>BOND
     1    26    25    2
     2    23    24    1
     3    25    24    1
     4    15    16    1
     5    24    27    1
     6    18    17    2
     7    17    16    1
     8    16    19    1
     9    27    28    1
    10    27    29    1
    11    28    30    1
    12    19    20    1
    13    20    21    1
    14    20    22    1
    15     3     4    2
    16     3     2    1
    17    49    51   ar
    18    49    47   ar
    19    51    52   ar
    20     2     1    1
    21     2     5    1
    22    41    39   ar
    23    41    40   ar
    24    46    47    1
    25    46    43    1
    26    39    37   ar
    27    47    48   ar
    28    52    50   ar
    29    40    38   ar
    30     5     6    1
    31    11    13   ar
    32    11     8   ar
    33    48    50   ar
    34    43    44    1
    35    43    42    1
    36    13    14   ar
    37    44    45    2
    38    37    36   ar
    39    38    36   ar
    40     8     6   ar
    41     8    10   ar
    42     6     7   ar
    43    36    35    1
    44    14    12   ar
    45    10    12   ar
    46    10     9   ar
    47     7     9   ar
    48    35    32    1
    49    75    74    1
    50    32    33    1
    51    32    31    1
    52    33    34    2
    53    74    76    1
    54    74    71    1
    55    59    57    1
    56    71    72    1
    57    71    70    1
    58    77    72   am
    59    77    78    1
    60    60    58    1
    61    72    73    2
    62    78    79    1
    63    57    58    1
    64    57    54    1
    65    70    63   am
    66    56    55    2
    67    64    63    2
    68    53    54    1
    69    63    62    1
    70    54    55    1
    71    55    61   am
    72    79    80    2
    73    61    62    1
    74    62    65    1
    75    65    66    1
    76    66    67    1
    77    67    69   ar
    78    67    68   ar
