@<TRIPOS>MOLECULE
tmp/5m5vA00.pdb
 76 71 0 0 0
SMALL
GASTEIGER

@<TRIPOS>ATOM
      1  N         27.2780  -13.6840    0.7090 N.3    47  VAL47      -0.1245
      2  CA        27.0700  -13.1540    2.0320 C.3    47  VAL47       0.1561
      3  C         28.1220  -13.7580    2.8850 C.2    47  VAL47       0.2260
      4  O         28.4110  -14.9320    2.7660 O.2    47  VAL47      -0.2867
      5  CB        25.6570  -13.4660    2.5830 C.3    47  VAL47       0.0252
      6  CG1       25.5550  -14.9500    2.9660 C.3    47  VAL47       0.0019
      7  CG2       25.4100  -12.6850    3.7830 C.3    47  VAL47       0.0019
      8  N         29.0910  -14.2950    6.7240 N.3    49  ILE49      -0.1245
      9  CA        28.4250  -14.2770    8.0380 C.3    49  ILE49       0.1561
     10  C         29.4350  -14.5470    9.0800 C.2    49  ILE49       0.2260
     11  O         30.0920  -15.5800    9.0380 O.2    49  ILE49      -0.2867
     12  CB        27.3550  -15.3750    8.1620 C.3    49  ILE49       0.0252
     13  CG1       26.2600  -15.1260    7.1720 C.3    49  ILE49       0.0019
     14  CG2       26.7620  -15.3600    9.5900 C.3    49  ILE49       0.0019
     15  CD1       25.4920  -16.3720    6.8220 C.3    49  ILE49       0.0001
     16  N         28.3200  -17.7710    1.6950 N.3    61  ARG61      -0.1231
     17  CA        27.3410  -18.4640    0.8700 C.3    61  ARG61       0.1679
     18  C         27.0710  -17.6070   -0.3340 C.2    61  ARG61       0.2434
     19  O         26.9180  -16.3920   -0.1900 O.2    61  ARG61      -0.2733
     20  CB        26.0150  -18.7000    1.6320 C.3    61  ARG61       0.0321
     21  CG        26.0540  -19.6280    2.8680 C.3    61  ARG61       0.0489
     22  CD        25.9970  -21.1270    2.4670 C.3    61  ARG61       0.2205
     23  NE        25.9780  -22.0080    3.6530 N.pl3  61  ARG61      -0.0865
     24  CZ        27.0570  -22.4380    4.3200 C.cat  61  ARG61       0.5346
     25  NH1       26.9310  -23.2340    5.3930 N.pl3  61  ARG61       0.1354
     26  NH2       28.2860  -22.1100    3.9170 N.pl3  61  ARG61       0.1354
     27  N         26.9480  -18.2320   -1.5100 N.am   62  PRO62      -0.2718
     28  CA        26.4050  -17.4940   -2.6310 C.3    62  PRO62       0.1535
     29  C         24.9630  -17.0080   -2.3820 C.2    62  PRO62       0.2598
     30  O         24.1350  -17.7700   -1.8430 O.2    62  PRO62      -0.2715
     31  CB        26.3980  -18.5040   -3.7680 C.3    62  PRO62       0.0310
     32  CG        27.1850  -19.6610   -3.2930 C.3    62  PRO62       0.0237
     33  CD        27.1280  -19.6610   -1.8030 C.3    62  PRO62       0.0939
     34  N         24.6710  -15.7730   -2.8090 N.am   63  ILE63      -0.1978
     35  CA        23.3500  -15.2200   -2.7770 C.3    63  ILE63       0.1596
     36  C         23.0450  -14.4320   -4.0240 C.2    63  ILE63       0.2287
     37  O         23.9410  -14.0760   -4.7800 O.2    63  ILE63      -0.2864
     38  CB        23.1210  -14.2570   -1.6020 C.3    63  ILE63       0.0276
     39  CG1       24.0730  -13.0360   -1.7050 C.3    63  ILE63       0.0022
     40  CG2       23.2560  -15.0160   -0.2880 C.3    63  ILE63       0.0022
     41  CD1       23.6870  -11.8610   -0.8430 C.3    63  ILE63       0.0001
     42  N         18.3650  -16.6250    8.2500 N.3    77  ILE77      -0.1245
     43  CA        18.6630  -15.3590    7.5500 C.3    77  ILE77       0.1561
     44  C         17.4960  -14.9820    6.6950 C.2    77  ILE77       0.2260
     45  O         16.9270  -15.8340    6.0530 O.2    77  ILE77      -0.2867
     46  CB        19.9690  -15.5190    6.7030 C.3    77  ILE77       0.0252
     47  CG1       20.4750  -14.1460    6.2310 C.3    77  ILE77       0.0019
     48  CG2       19.8820  -16.6020    5.6410 C.3    77  ILE77       0.0019
     49  CD1       21.9450  -14.2740    5.7440 C.3    77  ILE77       0.0001
     50  N         16.4260  -12.8950    3.4580 N.3    79  LEU79      -0.1245
     51  CA        16.9940  -12.3580    2.2200 C.3    79  LEU79       0.1561
     52  C         15.9000  -11.8270    1.3390 C.2    79  LEU79       0.2260
     53  O         14.8150  -12.4170    1.2780 O.2    79  LEU79      -0.2867
     54  CB        17.7630  -13.4190    1.4630 C.3    79  LEU79       0.0270
     55  CG        18.8610  -14.1250    2.2360 C.3    79  LEU79       0.0019
     56  CD1       19.2660  -15.4190    1.5530 C.3    79  LEU79       0.0001
     57  CD2       20.0170  -13.2050    2.3150 C.3    79  LEU79       0.0001
     58  N         15.7370  -18.3980    5.3590 N.3    88  PHE88      -0.1241
     59  CA        16.4450  -19.6660    5.3660 C.3    88  PHE88       0.1605
     60  C         17.0230  -20.0360    6.7060 C.2    88  PHE88       0.2264
     61  O         17.6050  -19.1790    7.3850 O.2    88  PHE88      -0.2867
     62  CB        17.6030  -19.6380    4.3870 C.3    88  PHE88       0.0534
     63  CG        17.2050  -19.4980    2.9580 C.ar   88  PHE88      -0.0203
     64  CD1       16.9830  -18.2460    2.4230 C.ar   88  PHE88      -0.0042
     65  CD2       17.0420  -20.6050    2.1660 C.ar   88  PHE88      -0.0042
     66  CE1       16.6420  -18.1180    1.0950 C.ar   88  PHE88      -0.0003
     67  CE2       16.6310  -20.4600    0.8410 C.ar   88  PHE88      -0.0003
     68  CZ        16.4860  -19.2080    0.3120 C.ar   88  PHE88      -0.0000
     69  N         20.0080  -21.8310    7.8870 N.3    90  ILE90      -0.1245
     70  CA        21.2720  -22.0800    7.2350 C.3    90  ILE90       0.1561
     71  C         21.7300  -23.4630    7.5140 C.2    90  ILE90       0.2260
     72  O         22.1720  -24.1420    6.6130 O.2    90  ILE90      -0.2867
     73  CB        22.3170  -21.0390    7.6790 C.3    90  ILE90       0.0252
     74  CG1       22.0520  -19.7450    6.9530 C.3    90  ILE90       0.0019
     75  CG2       23.7410  -21.5120    7.3420 C.3    90  ILE90       0.0019
     76  CD1       22.5090  -18.5880    7.7150 C.3    90  ILE90       0.0001
@<TRIPOS>BOND
     1    37    36    2
     2    36    35    1
     3    31    32    1
     4    31    28    1
     5    32    33    1
     6    34    35    1
     7    34    29   am
     8    35    38    1
     9    28    29    1
    10    28    27    1
    11    29    30    2
    12    33    27    1
    13    39    38    1
    14    39    41    1
    15    38    40    1
    16    27    18   am
    17    18    19    2
    18    18    17    1
    19    68    67   ar
    20    68    66   ar
    21     1     2    1
    22    67    65   ar
    23    17    20    1
    24    17    16    1
    25    66    64   ar
    26    53    52    2
    27    52    51    1
    28    54    51    1
    29    54    55    1
    30    56    55    1
    31    20    21    1
    32     2     5    1
    33     2     3    1
    34    65    63   ar
    35    51    50    1
    36    55    57    1
    37    64    63   ar
    38    22    21    1
    39    22    23    1
    40     5     6    1
    41     5     7    1
    42     4     3    2
    43    63    62    1
    44    23    24    2
    45    26    24    1
    46    24    25    1
    47    62    59    1
    48    58    59    1
    49    59    60    1
    50    48    46    1
    51    49    47    1
    52    45    44    2
    53    47    46    1
    54    72    71    2
    55    44    43    1
    56    46    43    1
    57    60    61    2
    58     8     9    1
    59    15    13    1
    60    74    73    1
    61    74    76    1
    62    13    12    1
    63    70    71    1
    64    70    73    1
    65    70    69    1
    66    75    73    1
    67    43    42    1
    68     9    12    1
    69     9    10    1
    70    12    14    1
    71    11    10    2
