@<TRIPOS>MOLECULE
tmp/5m5zA01.pdb
 85 84 0 0 0
SMALL
GASTEIGER

@<TRIPOS>ATOM
      1  N         32.3570   17.8920   -5.5660 N.3   257  PRO257     -0.2102
      2  CA        33.3450   17.4790   -4.5550 C.3   257  PRO257      0.1504
      3  C         34.2070   18.6090   -4.0270 C.2   257  PRO257      0.2576
      4  O         34.8560   18.4290   -2.9880 O.2   257  PRO257     -0.2718
      5  CB        34.1910   16.4330   -5.2940 C.3   257  PRO257      0.0282
      6  CG        34.0090   16.7630   -6.7440 C.3   257  PRO257      0.0208
      7  CD        32.6040   17.2720   -6.8760 C.3   257  PRO257      0.0893
      8  N         34.2490   19.7550   -4.7060 N.am  258  ASP258     -0.1960
      9  CA        35.0470   20.8920   -4.2680 C.3   258  ASP258      0.1840
     10  C         34.1850   22.0720   -3.8370 C.2   258  ASP258      0.2623
     11  O         34.6650   23.2090   -3.8200 O.2   258  ASP258     -0.2715
     12  CB        36.0200   21.3250   -5.3670 C.3   258  ASP258      0.1450
     13  CG        36.9080   20.1940   -5.8450 C.2   258  ASP258      0.3671
     14  OD1       37.3660   19.3920   -5.0070 O.co2 258  ASP258     -0.2456
     15  OD2       37.1510   20.1060   -7.0660 O.co2 258  ASP258     -0.2456
     16  N         32.9160   21.8340   -3.5170 N.am  259  GLY259     -0.1940
     17  CA        32.0390   22.9080   -3.1030 C.3   259  GLY259      0.2014
     18  C         30.7260   22.4230   -2.5310 C.2   259  GLY259      0.2639
     19  O         29.6870   23.0480   -2.7560 O.2   259  GLY259     -0.2714
     20  N         30.7530   21.3350   -1.7610 N.am  260  GLN260     -0.1963
     21  CA        29.5150   20.7670   -1.2440 C.3   260  GLN260      0.1733
     22  C         28.8210   21.7540   -0.3170 C.2   260  GLN260      0.2617
     23  O         29.4120   22.2330    0.6590 O.2   260  GLN260     -0.2715
     24  CB        29.8040   19.4710   -0.4910 C.3   260  GLN260      0.0408
     25  CG        30.0940   18.2940   -1.3960 C.3   260  GLN260      0.0908
     26  CD        30.7460   17.1360   -0.6700 C.2   260  GLN260      0.2608
     27  OE1       30.0850   16.1600   -0.3100 O.2   260  GLN260     -0.2717
     28  NE2       32.0530   17.2350   -0.4510 N.am  260  GLN260     -0.0878
     29  N         27.5580   22.0510   -0.6220 N.am  261  THR261     -0.1951
     30  CA        26.7620   22.9810    0.1690 C.3   261  THR261      0.1897
     31  C         25.9210   22.2890    1.2370 C.2   261  THR261      0.2313
     32  O         25.3390   22.9750    2.0840 O.2   261  THR261     -0.2863
     33  CB        25.8700   23.8320   -0.7430 C.3   261  THR261      0.1794
     34  OG1       25.1400   22.9740   -1.6220 O.3   261  THR261     -0.2208
     35  CG2       26.7190   24.7940   -1.5700 C.3   261  THR261      0.0378
     36  N         38.9140   14.2320    1.1880 N.3   287  GLN287     -0.1231
     37  CA        38.6220   15.6400    0.9860 C.3   287  GLN287      0.1683
     38  C         39.0780   16.4580    2.1990 C.2   287  GLN287      0.2434
     39  O         39.2250   15.9290    3.3060 O.2   287  GLN287     -0.2733
     40  CB        37.1320   15.8360    0.7080 C.3   287  GLN287      0.0380
     41  CG        36.2560   15.6610    1.9330 C.3   287  GLN287      0.0905
     42  CD        34.7890   15.8590    1.6380 C.2   287  GLN287      0.2608
     43  OE1       34.2780   15.4390    0.5930 O.2   287  GLN287     -0.2717
     44  NE2       34.0910   16.4860    2.5750 N.am  287  GLN287     -0.0878
     45  N         39.3290   17.7580    2.0140 N.am  288  PRO288     -0.2718
     46  CA        39.9180   18.5460    3.1130 C.3   288  PRO288      0.1535
     47  C         38.9580   18.9280    4.2250 C.2   288  PRO288      0.2598
     48  O         39.4300   19.3310    5.2970 O.2   288  PRO288     -0.2715
     49  CB        40.4610   19.7970    2.4070 C.3   288  PRO288      0.0310
     50  CG        39.6860   19.8920    1.1320 C.3   288  PRO288      0.0237
     51  CD        39.3600   18.4860    0.7300 C.3   288  PRO288      0.0939
     52  N         37.6490   18.8240    4.0160 N.am  289  HIS289     -0.1974
     53  CA        36.6340   19.3360    4.9260 C.3   289  HIS289      0.1656
     54  C         35.6520   18.2270    5.2740 C.2   289  HIS289      0.2291
     55  O         35.7610   17.0960    4.7890 O.2   289  HIS289     -0.2864
     56  CB        35.8930   20.5090    4.2820 C.3   289  HIS289      0.0771
     57  CG        36.8030   21.5330    3.6900 C.ar  289  HIS289      0.0820
     58  ND1       36.9130   21.7370    2.3320 N.ar  289  HIS289     -0.2267
     59  CD2       37.6630   22.4000    4.2720 C.ar  289  HIS289      0.1154
     60  CE1       37.7950   22.6930    2.1040 C.ar  289  HIS289      0.1986
     61  NE2       38.2660   23.1110    3.2640 N.ar  289  HIS289     -0.2212
     62  N         32.2450   18.6810    4.7910 N.3   291  ASN291     -0.1240
     63  CA        30.9960   18.8800    4.0630 C.3   291  ASN291      0.1653
     64  C         30.5200   17.5480    3.4980 C.2   291  ASN291      0.2266
     65  O         31.3210   16.7140    3.0640 O.2   291  ASN291     -0.2867
     66  CB        31.1220   19.8430    2.8710 C.3   291  ASN291      0.1155
     67  CG        32.1180   20.9940    3.0520 C.2   291  ASN291      0.2627
     68  OD1       32.8620   21.1220    4.0230 O.2   291  ASN291     -0.2716
     69  ND2       32.1070   21.8590    2.0550 N.am  291  ASN291     -0.0877
     70  N         33.5050   22.3700    8.1640 N.3   743  ASN743     -0.1225
     71  CA        32.5000   22.1020    7.1430 C.3   743  ASN743      0.1785
     72  C         32.3300   23.3650    6.3050 C.2   743  ASN743      0.2597
     73  O         33.2760   24.1530    6.1850 O.2   743  ASN743     -0.2718
     74  CB        31.2020   21.6580    7.8290 C.3   743  ASN743      0.1169
     75  CG        30.2940   20.8250    6.9280 C.2   743  ASN743      0.2627
     76  OD1       29.8910   21.2590    5.8460 O.2   743  ASN743     -0.2716
     77  ND2       29.9550   19.6280    7.3850 N.am  743  ASN743     -0.0877
     78  N         31.1460   23.5780    5.7250 N.am  744  ASN744     -0.1974
     79  CA        30.9310   24.7460    4.8810 C.3   744  ASN744      0.1688
     80  C         30.6650   26.0180    5.6730 C.2   744  ASN744      0.2292
     81  O         30.6140   27.1030    5.0780 O.2   744  ASN744     -0.2864
     82  CB        29.8030   24.5030    3.8660 C.3   744  ASN744      0.1181
     83  CG        28.4670   24.1600    4.5180 C.2   744  ASN744      0.2629
     84  OD1       28.0670   24.7680    5.5110 O.2   744  ASN744     -0.2716
     85  ND2       27.7600   23.1910    3.9370 N.am  744  ASN744     -0.0877
@<TRIPOS>BOND
     1    15    13   ar
     2     7     6    1
     3     7     1    1
     4     6     5    1
     5    13    12    1
     6    13    14   ar
     7     1     2    1
     8    12     9    1
     9     5     2    1
    10     8     9    1
    11     8     3   am
    12     2     3    1
    13     9    10    1
    14     3     4    2
    15    10    11    2
    16    10    16   am
    17    16    17    1
    18    17    18    1
    19    19    18    2
    20    18    20   am
    21    20    21    1
    22    34    33    1
    23    35    33    1
    24    25    26    1
    25    25    24    1
    26    21    24    1
    27    21    22    1
    28    33    30    1
    29    26    28   am
    30    26    27    2
    31    29    22   am
    32    29    30    1
    33    22    23    2
    34    30    31    1
    35    43    42    2
    36    40    37    1
    37    40    41    1
    38    51    50    1
    39    51    45    1
    40    37    36    1
    41    37    38    1
    42    50    49    1
    43    31    32    2
    44    42    41    1
    45    42    44   am
    46    45    38   am
    47    45    46    1
    48    69    67   am
    49    60    58   ar
    50    60    61   ar
    51    38    39    2
    52    58    57   ar
    53    49    46    1
    54    66    67    1
    55    66    63    1
    56    67    68    2
    57    65    64    2
    58    46    47    1
    59    61    59   ar
    60    64    63    1
    61    57    59   ar
    62    57    56    1
    63    82    83    1
    64    82    79    1
    65    85    83   am
    66    52    47   am
    67    52    53    1
    68    63    62    1
    69    47    48    2
    70    56    53    1
    71    83    84    2
    72    55    54    2
    73    79    80    1
    74    79    78    1
    75    53    54    1
    76    81    80    2
    77    78    72   am
    78    76    75    2
    79    73    72    2
    80    72    71    1
    81    75    77   am
    82    75    74    1
    83    71    74    1
    84    71    70    1
