@<TRIPOS>MOLECULE
tmp/5m5zA00.pdb
 102 94 0 0 0
SMALL
GASTEIGER

@<TRIPOS>ATOM
      1  N          0.5900   16.3220    8.4630 N.3   167  ASN167     -0.1225
      2  CA        -0.5540   15.6910    7.8050 C.3   167  ASN167      0.1785
      3  C         -0.9250   16.4080    6.5040 C.2   167  ASN167      0.2597
      4  O         -2.0360   16.9180    6.3390 O.2   167  ASN167     -0.2718
      5  CB        -1.7580   15.5880    8.7450 C.3   167  ASN167      0.1169
      6  CG        -2.8580   14.7220    8.1720 C.2   167  ASN167      0.2627
      7  OD1       -2.5950   13.8120    7.3810 O.2   167  ASN167     -0.2716
      8  ND2       -4.0980   15.0110    8.5460 N.am  167  ASN167     -0.0877
      9  N          0.0280   16.4440    5.5750 N.am  168  ILE168     -0.1966
     10  CA        -0.1810   17.0650    4.2730 C.3   168  ILE168      0.1727
     11  C          0.2030   16.0670    3.1930 C.2   168  ILE168      0.2616
     12  O          1.2510   15.4160    3.2840 O.2   168  ILE168     -0.2715
     13  CB         0.6180   18.3730    4.1030 C.3   168  ILE168      0.0290
     14  CG1        0.3520   19.3370    5.2670 C.3   168  ILE168      0.0022
     15  CG2        0.2540   19.0380    2.7690 C.3   168  ILE168      0.0023
     16  CD1        1.2350   20.5780    5.2710 C.3   168  ILE168      0.0001
     17  N         -0.6480   15.9530    2.1760 N.am  169  VAL169     -0.1977
     18  CA        -0.3790   15.1690    0.9800 C.3   169  VAL169      0.1596
     19  C         -0.1440   16.1480   -0.1570 C.2   169  VAL169      0.2287
     20  O         -0.9130   17.1040   -0.3280 O.2   169  VAL169     -0.2864
     21  CB        -1.5670   14.2530    0.6490 C.3   169  VAL169      0.0276
     22  CG1       -1.3170   13.5010   -0.6610 C.3   169  VAL169      0.0022
     23  CG2       -1.8390   13.3160    1.8040 C.3   169  VAL169      0.0022
     24  N          4.4920   13.4620    9.1620 N.3   197  ASP197     -0.1225
     25  CA         3.2860   12.8820    8.5750 C.3   197  ASP197      0.1805
     26  C          2.9560   13.5410    7.2320 C.2   197  ASP197      0.2598
     27  O          1.8630   14.0760    7.0250 O.2   197  ASP197     -0.2718
     28  CB         2.0870   12.9690    9.5300 C.3   197  ASP197      0.1424
     29  CG         2.3250   12.2820   10.8650 C.2   197  ASP197      0.3668
     30  OD1        3.2730   11.4830   10.9910 O.co2 197  ASP197     -0.2456
     31  OD2        1.5340   12.5410   11.8040 O.co2 197  ASP197     -0.2456
     32  N          3.9120   13.4850    6.3100 N.am  198  LEU198     -0.1966
     33  CA         3.7270   14.0440    4.9790 C.3   198  LEU198      0.1728
     34  C          3.8230   12.9400    3.9370 C.2   198  LEU198      0.2616
     35  O          4.5620   11.9650    4.1080 O.2   198  LEU198     -0.2715
     36  CB         4.7870   15.1050    4.6570 C.3   198  LEU198      0.0311
     37  CG         4.9970   16.2200    5.6850 C.3   198  LEU198      0.0022
     38  CD1        5.9970   17.2380    5.1400 C.3   198  LEU198      0.0001
     39  CD2        3.6820   16.8850    6.0570 C.3   198  LEU198      0.0001
     40  N          3.0890   13.1100    2.8380 N.am  199  VAL199     -0.1977
     41  CA         3.1200   12.1860    1.7080 C.3   199  VAL199      0.1596
     42  C          3.2900   13.0050    0.4380 C.2   199  VAL199      0.2287
     43  O          2.5680   13.9840    0.2310 O.2   199  VAL199     -0.2864
     44  CB         1.8360   11.3320    1.6270 C.3   199  VAL199      0.0276
     45  CG1        1.9060   10.3650    0.4550 C.3   199  VAL199      0.0022
     46  CG2        1.5990   10.5960    2.9420 C.3   199  VAL199      0.0022
     47  N         10.0860   13.7720   10.0850 N.3   217  ARG217     -0.1231
     48  CA         9.8730   12.3410   10.2750 C.3   217  ARG217      0.1694
     49  C          8.5080   11.8930    9.7510 C.2   217  ARG217      0.2592
     50  O          7.5670   12.6850    9.6140 O.2   217  ARG217     -0.2718
     51  CB        10.0820   11.9070   11.7400 C.3   217  ARG217      0.0321
     52  CG         9.1570   12.5880   12.7180 C.3   217  ARG217      0.0489
     53  CD         9.1380   11.9120   14.0980 C.3   217  ARG217      0.2205
     54  NE         7.9290   12.3010   14.8090 N.pl3 217  ARG217     -0.0865
     55  CZ         6.7260   11.8230   14.5140 C.cat 217  ARG217      0.5346
     56  NH1        6.5810   10.8880   13.5770 N.pl3 217  ARG217      0.1354
     57  NH2        5.6700   12.2720   15.1700 N.pl3 217  ARG217      0.1354
     58  N          8.4140   10.5900    9.4830 N.am  218  ASN218     -0.1974
     59  CA         7.2670    9.9730    8.8180 C.3   218  ASN218      0.1688
     60  C          6.8980   10.7370    7.5430 C.2   218  ASN218      0.2292
     61  O          5.8380   11.3520    7.4200 O.2   218  ASN218     -0.2864
     62  CB         6.0460    9.7450    9.7140 C.3   218  ASN218      0.1181
     63  CG         4.9200    9.0950    8.9410 C.2   218  ASN218      0.2629
     64  OD1        5.1720    8.3300    8.0100 O.2   218  ASN218     -0.2716
     65  ND2        3.6850    9.4140    9.2890 N.am  218  ASN218     -0.0877
     66  N          6.6450   10.0850    3.3360 N.3   220  THR220     -0.1218
     67  CA         6.5340    9.0700    2.2960 C.3   220  THR220      0.1862
     68  C          6.6220    9.7560    0.9440 C.2   220  THR220      0.2287
     69  O          5.9620   10.7730    0.7200 O.2   220  THR220     -0.2866
     70  CB         5.2150    8.3020    2.4180 C.3   220  THR220      0.1770
     71  OG1        5.1630    7.6640    3.6950 O.3   220  THR220     -0.2211
     72  CG2        5.1090    7.2400    1.3320 C.3   220  THR220      0.0375
     73  N         12.1040    7.6500    9.8380 N.3   240  ASP240     -0.1239
     74  CA        10.8790    6.9920    9.3840 C.3   240  ASP240      0.1674
     75  C         10.4500    7.5280    8.0140 C.2   240  ASP240      0.2266
     76  O          9.2870    7.8660    7.7750 O.2   240  ASP240     -0.2867
     77  CB         9.7910    7.1490   10.4510 C.3   240  ASP240      0.1410
     78  CG         8.5630    6.3190   10.2030 C.2   240  ASP240      0.3668
     79  OD1        8.6300    5.3000    9.4890 O.co2 240  ASP240     -0.2456
     80  OD2        7.5160    6.7200   10.7590 O.co2 240  ASP240     -0.2456
     81  N          9.9470    6.8130    4.0460 N.3   242  LYS242     -0.1245
     82  CA         9.6760    5.7650    3.0760 C.3   242  LYS242      0.1561
     83  C          9.7610    6.3910    1.6930 C.2   242  LYS242      0.2260
     84  O          8.9810    7.2900    1.3700 O.2   242  LYS242     -0.2867
     85  CB         8.2750    5.1920    3.2980 C.3   242  LYS242      0.0271
     86  CG         8.1400    4.1840    4.4360 C.3   242  LYS242      0.0035
     87  CD         8.1460    4.7970    5.8210 C.3   242  LYS242      0.0206
     88  CE         7.0280    5.8170    6.0250 C.3   242  LYS242      0.1093
     89  NZ         6.7820    6.0540    7.4720 N.3   242  LYS242     -0.1314
     90  N          7.9670    7.2270   18.2070 N.3   368  THR368     -0.1218
     91  CA         7.4670    8.5320   17.7810 C.3   368  THR368      0.1862
     92  C          5.9530    8.6160   17.9460 C.2   368  THR368      0.2287
     93  O          5.2410    7.6080   17.8760 O.2   368  THR368     -0.2866
     94  CB         7.8130    8.8570   16.3200 C.3   368  THR368      0.1770
     95  OG1        7.3060    7.8230   15.4600 O.3   368  THR368     -0.2211
     96  CG2        9.3200    8.9830   16.1450 C.3   368  THR368      0.0375
     97  N          2.9140   11.8610   16.9140 N.3   370  SER370     -0.1217
     98  CA         2.6680   13.2160   16.4340 C.3   370  SER370      0.1889
     99  C          1.7120   13.9780   17.3540 C.2   370  SER370      0.2288
    100  O          0.9780   13.4000   18.1520 O.2   370  SER370     -0.2866
    101  CB         2.0710   13.1690   15.0300 C.3   370  SER370      0.2089
    102  OG         2.9360   12.4720   14.1640 O.3   370  SER370     -0.2183
@<TRIPOS>BOND
     1    22    21    1
     2    20    19    2
     3    19    18    1
     4    43    42    2
     5    42    41    1
     6    45    44    1
     7    21    18    1
     8    21    23    1
     9    69    68    2
    10    68    67    1
    11    18    17    1
    12    72    70    1
    13    84    83    2
    14    44    41    1
    15    44    46    1
    16    83    82    1
    17    41    40    1
    18    17    11   am
    19    67    70    1
    20    67    66    1
    21    70    71    1
    22    15    13    1
    23    40    34   am
    24    82    85    1
    25    82    81    1
    26    11    12    2
    27    11    10    1
    28    85    86    1
    29    34    35    2
    30    34    33    1
    31    13    10    1
    32    13    14    1
    33    10     9    1
    34    86    87    1
    35    36    33    1
    36    36    37    1
    37    33    32    1
    38    38    37    1
    39    14    16    1
    40     9     3   am
    41    37    39    1
    42    87    88    1
    43    88    89    1
    44    32    26   am
    45     4     3    2
    46     3     2    1
    47    27    26    2
    48    26    25    1
    49     7     6    2
    50    61    60    2
    51    60    59    1
    52    76    75    2
    53     2     1    1
    54     2     5    1
    55    64    63    2
    56    75    74    1
    57     6     8   am
    58     6     5    1
    59    25    24    1
    60    25    28    1
    61    59    58    1
    62    59    62    1
    63    63    65   am
    64    63    62    1
    65    74    73    1
    66    74    77    1
    67    58    49   am
    68    79    78   ar
    69    28    29    1
    70    50    49    2
    71    49    48    1
    72    47    48    1
    73    78    77    1
    74    78    80   ar
    75    48    51    1
    76    29    30   ar
    77    29    31   ar
    78    51    52    1
    79    52    53    1
    80    56    55    1
    81    53    54    1
    82   102   101    1
    83    55    54    2
    84    55    57    1
    85   101    98    1
    86    95    94    1
    87    96    94    1
    88    94    91    1
    89    98    97    1
    90    98    99    1
    91    99   100    2
    92    91    92    1
    93    91    90    1
    94    93    92    2
