@<TRIPOS>MOLECULE
tmp/5m60A00.pdb
 165 160 0 0 0
SMALL
GASTEIGER

@<TRIPOS>ATOM
      1  N        -19.3510    2.4080   -7.4850 N.3   128  THR128     -0.1218
      2  CA       -18.0580    3.0640   -7.5940 C.3   128  THR128      0.1862
      3  C        -18.2690    4.5340   -7.9110 C.2   128  THR128      0.2287
      4  O        -18.9910    4.8730   -8.8520 O.2   128  THR128     -0.2866
      5  CB       -17.2210    2.4070   -8.6940 C.3   128  THR128      0.1770
      6  OG1      -17.0880    1.0070   -8.4200 O.3   128  THR128     -0.2211
      7  CG2      -15.8460    3.0460   -8.7660 C.3   128  THR128      0.0375
      8  N        -16.5340    6.8350   -9.2520 N.3   130  GLN130     -0.1231
      9  CA       -16.1550    7.3120  -10.5780 C.3   130  GLN130      0.1698
     10  C        -17.0840    6.8100  -11.6800 C.2   130  GLN130      0.2592
     11  O        -16.9580    7.2600  -12.8260 O.2   130  GLN130     -0.2718
     12  CB       -14.7080    6.9150  -10.9060 C.3   130  GLN130      0.0381
     13  CG       -13.6370    7.5460  -10.0000 C.3   130  GLN130      0.0905
     14  CD       -13.2940    6.6720   -8.8100 C.2   130  GLN130      0.2608
     15  OE1      -13.9540    5.6600   -8.5560 O.2   130  GLN130     -0.2717
     16  NE2      -12.2540    7.0570   -8.0690 N.am  130  GLN130     -0.0878
     17  N        -18.0020    5.8940  -11.3720 N.am  131  ASN131     -0.1974
     18  CA       -18.9560    5.3880  -12.3510 C.3   131  ASN131      0.1688
     19  C        -20.3820    5.8470  -12.0770 C.2   131  ASN131      0.2292
     20  O        -21.3160    5.3140  -12.6810 O.2   131  ASN131     -0.2864
     21  CB       -18.9300    3.8600  -12.3910 C.3   131  ASN131      0.1181
     22  CG       -17.6180    3.3180  -12.8970 C.2   131  ASN131      0.2629
     23  OD1      -16.8630    4.0230  -13.5600 O.2   131  ASN131     -0.2716
     24  ND2      -17.3440    2.0540  -12.5920 N.am  131  ASN131     -0.0877
     25  N        -22.8200    7.9710  -12.8590 N.3   133  PHE133     -0.1241
     26  CA       -23.1550    8.8870  -13.9490 C.3   133  PHE133      0.1605
     27  C        -24.6570    9.1210  -14.0960 C.2   133  PHE133      0.2264
     28  O        -25.4790    8.3280  -13.6350 O.2   133  PHE133     -0.2867
     29  CB       -22.7050    8.3430  -15.3100 C.3   133  PHE133      0.0534
     30  CG       -21.3330    7.7480  -15.3590 C.ar  133  PHE133     -0.0203
     31  CD1      -20.2180    8.4990  -15.0460 C.ar  133  PHE133     -0.0042
     32  CD2      -21.1570    6.4520  -15.8410 C.ar  133  PHE133     -0.0042
     33  CE1      -18.9490    7.9580  -15.1300 C.ar  133  PHE133     -0.0003
     34  CE2      -19.8760    5.9030  -15.9400 C.ar  133  PHE133     -0.0003
     35  CZ       -18.7800    6.6560  -15.5910 C.ar  133  PHE133     -0.0000
     36  N        -19.6580   12.0330  -13.9440 N.3   161  GLN161     -0.1245
     37  CA       -20.0050   12.9870  -14.9970 C.3   161  GLN161      0.1566
     38  C        -21.4850   12.8960  -15.3770 C.2   161  GLN161      0.2260
     39  O        -22.1950   11.9540  -15.0150 O.2   161  GLN161     -0.2867
     40  CB       -19.1430   12.7620  -16.2460 C.3   161  GLN161      0.0367
     41  CG       -17.6520   13.0960  -16.0680 C.3   161  GLN161      0.0905
     42  CD       -16.8100   11.8870  -15.6860 C.2   161  GLN161      0.2608
     43  OE1      -17.2980   10.9230  -15.0950 O.2   161  GLN161     -0.2717
     44  NE2      -15.5250   11.9340  -16.0370 N.am  161  GLN161     -0.0878
     45  N        -16.0960   12.5310   -9.4140 N.3   191  SER191     -0.1217
     46  CA       -15.5220   13.0140  -10.6680 C.3   191  SER191      0.1889
     47  C        -16.5960   13.8110  -11.4170 C.2   191  SER191      0.2288
     48  O        -17.2240   13.3270  -12.3560 O.2   191  SER191     -0.2866
     49  CB       -15.0020   11.8460  -11.5040 C.3   191  SER191      0.2089
     50  OG       -14.5200   12.2840  -12.7600 O.3   191  SER191     -0.2183
     51  N        -12.2460   14.9470   -7.8610 N.3   212  GLN212     -0.1245
     52  CA       -11.2230   15.1950   -8.8770 C.3   212  GLN212      0.1566
     53  C        -11.3830   16.5750   -9.5030 C.2   212  GLN212      0.2260
     54  O        -10.4190   17.3460   -9.5860 O.2   212  GLN212     -0.2867
     55  CB       -11.2720   14.1470   -9.9910 C.3   212  GLN212      0.0367
     56  CG       -10.9470   12.7300   -9.6130 C.3   212  GLN212      0.0905
     57  CD       -11.0370   11.8160  -10.8210 C.2   212  GLN212      0.2608
     58  OE1      -11.1630   12.2750  -11.9700 O.2   212  GLN212     -0.2717
     59  NE2      -10.9700   10.5270  -10.5740 N.am  212  GLN212     -0.0878
     60  N        -21.2170   15.8200  -21.6890 N.3   561  TRP561     -0.1241
     61  CA       -20.1860   14.7920  -21.5810 C.3   561  TRP561      0.1605
     62  C        -20.0340   14.1150  -22.9320 C.2   561  TRP561      0.2264
     63  O        -20.9720   13.4760  -23.4160 O.2   561  TRP561     -0.2867
     64  CB       -20.5710   13.7620  -20.5310 C.3   561  TRP561      0.0550
     65  CG       -19.4960   12.7950  -20.1380 C.ar  561  TRP561      0.0003
     66  CD1      -18.1200   12.9310  -20.2900 C.ar  561  TRP561      0.0946
     67  CD2      -19.7070   11.5610  -19.4650 C.ar  561  TRP561      0.0152
     68  NE1      -17.4890   11.8320  -19.7370 N.ar  561  TRP561     -0.2442
     69  CE2      -18.4410   10.9820  -19.2330 C.ar  561  TRP561      0.0810
     70  CE3      -20.8560   10.8710  -19.0520 C.ar  561  TRP561      0.0012
     71  CZ2      -18.2960    9.7600  -18.5870 C.ar  561  TRP561      0.0191
     72  CZ3      -20.7060    9.6580  -18.4230 C.ar  561  TRP561      0.0001
     73  CH2      -19.4310    9.1070  -18.2100 C.ar  561  TRP561      0.0015
     74  N        -18.3000   11.2070  -24.3950 N.3   563  TRP563     -0.1241
     75  CA       -17.6680   10.0330  -23.8010 C.3   563  TRP563      0.1605
     76  C        -17.6060    8.8900  -24.7940 C.2   563  TRP563      0.2264
     77  O        -18.6400    8.4490  -25.3140 O.2   563  TRP563     -0.2867
     78  CB       -18.4370    9.5770  -22.5720 C.3   563  TRP563      0.0550
     79  CG       -17.8780    8.4150  -21.7840 C.ar  563  TRP563      0.0003
     80  CD1      -16.8120    8.4450  -20.9300 C.ar  563  TRP563      0.0946
     81  CD2      -18.4190    7.0820  -21.7000 C.ar  563  TRP563      0.0152
     82  NE1      -16.6510    7.2220  -20.3290 N.ar  563  TRP563     -0.2442
     83  CE2      -17.6320    6.3720  -20.7670 C.ar  563  TRP563      0.0810
     84  CE3      -19.4960    6.4250  -22.3140 C.ar  563  TRP563      0.0012
     85  CZ2      -17.8710    5.0290  -20.4430 C.ar  563  TRP563      0.0191
     86  CZ3      -19.7400    5.0900  -21.9810 C.ar  563  TRP563      0.0001
     87  CH2      -18.9270    4.4100  -21.0490 C.ar  563  TRP563      0.0015
     88  N        -14.9590    3.4790  -22.1680 N.3   566  ASP566     -0.1225
     89  CA       -13.8440    2.6860  -21.6770 C.3   566  ASP566      0.1805
     90  C        -14.2960    1.3770  -21.0570 C.2   566  ASP566      0.2597
     91  O        -13.4800    0.4620  -20.9230 O.2   566  ASP566     -0.2718
     92  CB       -13.0670    3.4680  -20.6240 C.3   566  ASP566      0.1424
     93  CG       -13.9290    3.8040  -19.4290 C.2   566  ASP566      0.3668
     94  OD1      -14.7160    4.7670  -19.5370 O.co2 566  ASP566     -0.2456
     95  OD2      -13.8640    3.0800  -18.4080 O.co2 566  ASP566     -0.2456
     96  N        -15.5690    1.2670  -20.6560 N.am  567  HIS567     -0.1975
     97  CA       -16.0600    0.0480  -20.0340 C.3   567  HIS567      0.1656
     98  C        -17.5550   -0.0870  -20.3010 C.2   567  HIS567      0.2291
     99  O        -18.2250    0.8650  -20.7100 O.2   567  HIS567     -0.2864
    100  CB       -15.7370    0.0120  -18.5190 C.3   567  HIS567      0.0771
    101  CG       -16.5710    0.9360  -17.6770 C.ar  567  HIS567      0.0820
    102  ND1      -16.2020    2.2370  -17.4030 N.ar  567  HIS567     -0.2267
    103  CD2      -17.7400    0.7330  -17.0240 C.ar  567  HIS567      0.1154
    104  CE1      -17.1140    2.7990  -16.6260 C.ar  567  HIS567      0.1986
    105  NE2      -18.0610    1.9090  -16.3890 N.ar  567  HIS567     -0.2212
    106  N        -13.7120   12.4900  -23.5100 N.3   602  GLU602     -0.1231
    107  CA       -12.8590   11.3910  -23.0640 C.3   602  GLU602      0.1699
    108  C        -12.7790   10.2450  -24.0640 C.2   602  GLU602      0.2592
    109  O        -13.8080    9.7600  -24.5480 O.2   602  GLU602     -0.2718
    110  CB       -13.3460   10.8220  -21.7360 C.3   602  GLU602      0.0402
    111  CG       -13.3770   11.8050  -20.5830 C.3   602  GLU602      0.1161
    112  CD       -13.7520   11.0940  -19.3170 C.2   602  GLU602      0.3649
    113  OE1      -14.9110   10.6130  -19.2250 O.co2 602  GLU602     -0.2457
    114  OE2      -12.8850   10.9490  -18.4320 O.co2 602  GLU602     -0.2457
    115  N        -11.5420    9.7770  -24.2920 N.am  603  HIS603     -0.1976
    116  CA       -11.1830    8.4690  -24.8510 C.3   603  HIS603      0.1656
    117  C        -11.2960    8.4220  -26.3740 C.2   603  HIS603      0.2291
    118  O        -11.5280    7.3570  -26.9490 O.2   603  HIS603     -0.2864
    119  CB       -12.0190    7.3370  -24.2240 C.3   603  HIS603      0.0771
    120  CG       -12.0560    7.3550  -22.7180 C.ar  603  HIS603      0.0820
    121  ND1      -13.2170    7.1510  -22.0030 N.ar  603  HIS603     -0.2267
    122  CD2      -11.0760    7.5320  -21.7970 C.ar  603  HIS603      0.1154
    123  CE1      -12.9560    7.2210  -20.7070 C.ar  603  HIS603      0.1986
    124  NE2      -11.6620    7.4530  -20.5540 N.ar  603  HIS603     -0.2212
    125  N        -12.1410   18.6320  -18.9770 N.3   623  GLN623     -0.1245
    126  CA       -11.6010   17.3820  -18.4640 C.3   623  GLN623      0.1566
    127  C        -11.5240   16.3690  -19.5960 C.2   623  GLN623      0.2260
    128  O        -12.4650   16.2410  -20.3810 O.2   623  GLN623     -0.2867
    129  CB       -12.4620   16.8430  -17.3120 C.3   623  GLN623      0.0367
    130  CG       -11.9110   15.5720  -16.6490 C.3   623  GLN623      0.0905
    131  CD       -12.5640   14.3250  -17.1980 C.2   623  GLN623      0.2608
    132  OE1      -13.7910   14.2420  -17.2890 O.2   623  GLN623     -0.2717
    133  NE2      -11.7570   13.3480  -17.5710 N.am  623  GLN623     -0.0878
    134  N         -9.5640   12.3370  -20.9110 N.3   625  GLU625     -0.1245
    135  CA        -8.7610   11.1420  -20.6780 C.3   625  GLU625      0.1567
    136  C         -8.3370   10.5570  -22.0180 C.2   625  GLU625      0.2260
    137  O         -9.0870   10.5940  -22.9950 O.2   625  GLU625     -0.2867
    138  CB        -9.5170   10.0670  -19.8920 C.3   625  GLU625      0.0388
    139  CG        -9.6210   10.3450  -18.3930 C.3   625  GLU625      0.1160
    140  CD       -10.2190    9.1810  -17.6010 C.2   625  GLU625      0.3649
    141  OE1      -10.6430    8.1610  -18.1980 O.co2 625  GLU625     -0.2457
    142  OE2      -10.2820    9.2940  -16.3610 O.co2 625  GLU625     -0.2457
    143  N         -7.8090    4.0070  -22.9980 N.3   628  TYR628     -0.1241
    144  CA        -6.9880    3.1570  -22.1410 C.3   628  TYR628      0.1605
    145  C         -6.1940    2.1360  -22.9430 C.2   628  TYR628      0.2264
    146  O         -5.1870    1.6230  -22.4430 O.2   628  TYR628     -0.2867
    147  CB        -7.8500    2.4300  -21.0990 C.3   628  TYR628      0.0534
    148  CG        -8.6030    3.3190  -20.1180 C.ar  628  TYR628     -0.0201
    149  CD1       -8.3590    4.6880  -20.0410 C.ar  628  TYR628     -0.0009
    150  CD2       -9.5530    2.7710  -19.2520 C.ar  628  TYR628     -0.0009
    151  CE1       -9.0460    5.4940  -19.1260 C.ar  628  TYR628      0.0417
    152  CE2      -10.2410    3.5660  -18.3380 C.ar  628  TYR628      0.0417
    153  CZ        -9.9820    4.9230  -18.2860 C.ar  628  TYR628      0.1957
    154  OH       -10.6590    5.7180  -17.3810 O.3   628  TYR628     -0.2866
    155  N         -3.9310    7.7790  -17.9570 N.3   687  PHE687     -0.1241
    156  CA        -3.8370    6.8300  -16.8550 C.3   687  PHE687      0.1605
    157  C         -3.2300    5.4810  -17.2260 C.2   687  PHE687      0.2264
    158  O         -2.9880    4.6720  -16.3220 O.2   687  PHE687     -0.2867
    159  CB        -5.2250    6.5900  -16.2350 C.3   687  PHE687      0.0534
    160  CG        -5.7140    7.7290  -15.3930 C.ar  687  PHE687     -0.0203
    161  CD1       -4.9960    8.1450  -14.2900 C.ar  687  PHE687     -0.0042
    162  CD2       -6.8900    8.3820  -15.7060 C.ar  687  PHE687     -0.0042
    163  CE1       -5.4390    9.2010  -13.5100 C.ar  687  PHE687     -0.0003
    164  CE2       -7.3480    9.4310  -14.9320 C.ar  687  PHE687     -0.0003
    165  CZ        -6.6160    9.8440  -13.8350 C.ar  687  PHE687     -0.0000
@<TRIPOS>BOND
     1   118   117    2
     2   117   116    1
     3    77    76    2
     4   116   115    1
     5   116   119    1
     6    76    75    1
     7   109   108    2
     8    74    75    1
     9   115   108   am
    10   119   120    1
    11   108   107    1
    12    75    78    1
    13   106   107    1
    14    63    62    2
    15   107   110    1
    16   143   144    1
    17   137   136    2
    18   145   146    2
    19   145   144    1
    20    62    61    1
    21   120   121   ar
    22   120   122   ar
    23    78    79    1
    24    84    86   ar
    25    84    81   ar
    26    88    89    1
    27   144   147    1
    28   136   135    1
    29   121   123   ar
    30    86    87   ar
    31   122   124   ar
    32    79    81   ar
    33    79    80   ar
    34   110   111    1
    35    81    83   ar
    36    60    61    1
    37    89    90    1
    38    89    92    1
    39    61    64    1
    40   147   148    1
    41    90    91    2
    42    90    96   am
    43    87    85   ar
    44    80    82   ar
    45   134   135    1
    46    83    85   ar
    47    83    82   ar
    48    99    98    2
    49   123   124   ar
    50   135   138    1
    51    96    97    1
    52    92    93    1
    53   111   112    1
    54    64    65    1
    55   128   127    2
    56    98    97    1
    57    66    65   ar
    58    66    68   ar
    59    65    67   ar
    60   148   149   ar
    61   148   150   ar
    62   149   151   ar
    63    97   100    1
    64   138   139    1
    65    68    69   ar
    66   127   126    1
    67    94    93   ar
    68    67    69   ar
    69    67    70   ar
    70    93    95   ar
    71   112   113   ar
    72   112   114   ar
    73   150   152   ar
    74    69    71   ar
    75   151   153   ar
    76    70    72   ar
    77   125   126    1
    78    71    73   ar
    79   100   101    1
    80   126   129    1
    81    72    73   ar
    82   139   140    1
    83   152   153   ar
    84   153   154    1
    85   141   140   ar
    86   155   156    1
    87   101   102   ar
    88   101   103   ar
    89   140   142   ar
    90   133   131   am
    91   102   104   ar
    92   129   130    1
    93   132   131    2
    94   157   156    1
    95   157   158    2
    96   131   130    1
    97   103   105   ar
    98   156   159    1
    99   104   105   ar
   100    40    41    1
   101    40    37    1
   102   159   160    1
   103    41    42    1
   104    44    42   am
   105    34    32   ar
   106    34    35   ar
   107    32    30   ar
   108   162   160   ar
   109   162   164   ar
   110    42    43    2
   111    35    33   ar
   112   160   161   ar
   113    38    39    2
   114    38    37    1
   115    30    29    1
   116    30    31   ar
   117    29    26    1
   118    33    31   ar
   119    37    36    1
   120   164   165   ar
   121   161   163   ar
   122    27    26    1
   123    27    28    2
   124    26    25    1
   125   165   163   ar
   126    23    22    2
   127    22    24   am
   128    22    21    1
   129    11    10    2
   130    50    49    1
   131    20    19    2
   132    21    18    1
   133    48    47    2
   134    18    19    1
   135    18    17    1
   136    58    57    2
   137    10    17   am
   138    10     9    1
   139    49    46    1
   140    47    46    1
   141    12     9    1
   142    12    13    1
   143    57    59   am
   144    57    56    1
   145    46    45    1
   146     9     8    1
   147    13    14    1
   148    55    56    1
   149    55    52    1
   150    54    53    2
   151    53    52    1
   152    52    51    1
   153     4     3    2
   154    14    15    2
   155    14    16   am
   156     7     5    1
   157     5     6    1
   158     5     2    1
   159     3     2    1
   160     2     1    1
