@<TRIPOS>MOLECULE
tmp/5m61B00.pdb
 76 71 0 0 0
SMALL
GASTEIGER

@<TRIPOS>ATOM
      1  N         22.8540   33.8880   41.0460 N.3    47  VAL47      -0.1245
      2  CA        21.8520   33.3770   41.9890 C.3    47  VAL47       0.1561
      3  C         20.5100   33.9700   41.6210 C.2    47  VAL47       0.2260
      4  O         20.3970   35.1780   41.3400 O.2    47  VAL47      -0.2867
      5  CB        22.2150   33.6330   43.4600 C.3    47  VAL47       0.0252
      6  CG1       22.1520   35.1060   43.8190 C.3    47  VAL47       0.0019
      7  CG2       21.3230   32.8210   44.3850 C.3    47  VAL47       0.0019
      8  N         16.8950   34.5500   43.2000 N.3    49  ILE49      -0.1245
      9  CA        16.2950   34.6810   44.5170 C.3    49  ILE49       0.1561
     10  C         14.8200   34.8900   44.3230 C.2    49  ILE49       0.2260
     11  O         14.4010   35.9230   43.7340 O.2    49  ILE49      -0.2867
     12  CB        16.8710   35.8760   45.3150 C.3    49  ILE49       0.0252
     13  CG1       18.3540   35.6910   45.5530 C.3    49  ILE49       0.0019
     14  CG2       16.1260   36.0150   46.6310 C.3    49  ILE49       0.0019
     15  CD1       19.0680   36.9440   46.0560 C.3    49  ILE49       0.0001
     16  N         21.1750   37.8500   40.2990 N.3    61  ARG61      -0.1231
     17  CA        22.3680   38.6310   40.6290 C.3    61  ARG61       0.1679
     18  C         23.6040   37.7990   40.3470 C.2    61  ARG61       0.2434
     19  O         23.6240   36.6170   40.6660 O.2    61  ARG61      -0.2733
     20  CB        22.3350   39.0810   42.1010 C.3    61  ARG61       0.0321
     21  CG        21.1340   39.9490   42.4720 C.3    61  ARG61       0.0489
     22  CD        20.9500   40.0590   43.9800 C.3    61  ARG61       0.2205
     23  NE        19.7480   40.8090   44.4070 N.pl3  61  ARG61      -0.0865
     24  CZ        19.5990   42.1430   44.3580 C.cat  61  ARG61       0.5346
     25  NH1       20.5610   42.9460   43.8690 N.pl3  61  ARG61       0.1354
     26  NH2       18.4580   42.6900   44.7880 N.pl3  61  ARG61       0.1354
     27  N         24.6530   38.4100   39.7550 N.am   62  PRO62      -0.2718
     28  CA        25.9110   37.7150   39.5390 C.3    62  PRO62       0.1535
     29  C         26.5730   37.2920   40.8470 C.2    62  PRO62       0.2598
     30  O         26.5820   38.0790   41.8070 O.2    62  PRO62      -0.2715
     31  CB        26.8070   38.7820   38.8790 C.3    62  PRO62       0.0310
     32  CG        25.9030   39.8260   38.3980 C.3    62  PRO62       0.0237
     33  CD        24.7140   39.8110   39.2870 C.3    62  PRO62       0.0939
     34  N         27.1620   36.0960   40.8480 N.am   63  ILE63      -0.1978
     35  CA        27.9150   35.5850   41.9650 C.3    63  ILE63       0.1596
     36  C         29.1600   34.8650   41.5200 C.2    63  ILE63       0.2287
     37  O         29.2910   34.4990   40.3530 O.2    63  ILE63      -0.2864
     38  CB        27.0890   34.5530   42.8110 C.3    63  ILE63       0.0276
     39  CG1       26.6690   33.3330   41.9640 C.3    63  ILE63       0.0022
     40  CG2       25.9020   35.2370   43.4510 C.3    63  ILE63       0.0022
     41  CD1       26.0660   32.1940   42.7760 C.3    63  ILE63       0.0001
     42  N         22.0630   37.1430   52.9410 N.3    77  ILE77      -0.1245
     43  CA        22.4510   35.9300   52.2200 C.3    77  ILE77       0.1561
     44  C         23.8920   35.5840   52.5640 C.2    77  ILE77       0.2260
     45  O         24.7630   36.4730   52.6500 O.2    77  ILE77      -0.2867
     46  CB        22.2060   36.0730   50.6950 C.3    77  ILE77       0.0252
     47  CG1       22.3440   34.7310   49.9920 C.3    77  ILE77       0.0019
     48  CG2       23.1480   37.1090   50.0890 C.3    77  ILE77       0.0019
     49  CD1       21.9110   34.7710   48.5310 C.3    77  ILE77       0.0001
     50  N         27.1460   33.4660   51.3330 N.3    79  LEU79      -0.1245
     51  CA        27.7720   32.8540   50.1630 C.3    79  LEU79       0.1561
     52  C         29.1420   32.3690   50.5680 C.2    79  LEU79       0.2260
     53  O         29.8260   32.9970   51.3760 O.2    79  LEU79      -0.2867
     54  CB        27.8890   33.8670   49.0340 C.3    79  LEU79       0.0270
     55  CG        26.4960   34.3410   48.6280 C.3    79  LEU79       0.0019
     56  CD1       26.4140   35.8300   48.6970 C.3    79  LEU79       0.0001
     57  CD2       26.1160   33.8330   47.2490 C.3    79  LEU79       0.0001
     58  N         25.9380   39.0620   53.1840 N.3    88  PHE88      -0.1241
     59  CA        25.4870   40.3250   52.5750 C.3    88  PHE88       0.1605
     60  C         24.0860   40.6420   53.0290 C.2    88  PHE88       0.2264
     61  O         23.2380   39.7520   53.0660 O.2    88  PHE88      -0.2867
     62  CB        25.4900   40.2590   51.0300 C.3    88  PHE88       0.0534
     63  CG        26.8310   40.1220   50.4410 C.ar   88  PHE88      -0.0203
     64  CD1       27.4430   38.8860   50.3900 C.ar   88  PHE88      -0.0042
     65  CD2       27.5030   41.2190   49.9370 C.ar   88  PHE88      -0.0042
     66  CE1       28.7170   38.7640   49.8640 C.ar   88  PHE88      -0.0003
     67  CE2       28.7700   41.0870   49.4000 C.ar   88  PHE88      -0.0003
     68  CZ        29.3580   39.8400   49.3620 C.ar   88  PHE88      -0.0000
     69  N         21.2300   42.3150   51.4040 N.3    90  ILE90      -0.1245
     70  CA        20.9370   42.6110   49.9960 C.3    90  ILE90       0.1561
     71  C         20.2880   43.9810   49.8270 C.2    90  ILE90       0.2260
     72  O         20.6800   44.7540   48.9490 O.2    90  ILE90      -0.2867
     73  CB        20.0200   41.5250   49.3970 C.3    90  ILE90       0.0252
     74  CG1       20.8010   40.2220   49.3200 C.3    90  ILE90       0.0019
     75  CG2       19.5200   41.9130   47.9960 C.3    90  ILE90       0.0019
     76  CD1       19.9130   39.0310   49.1770 C.3    90  ILE90       0.0001
@<TRIPOS>BOND
     1    32    31    1
     2    32    33    1
     3    31    28    1
     4    33    27    1
     5    28    27    1
     6    28    29    1
     7    27    18   am
     8    16    17    1
     9    18    17    1
    10    18    19    2
    11    37    36    2
    12    17    20    1
    13    29    34   am
    14    29    30    2
    15    34    35    1
    16     1     2    1
    17     4     3    2
    18    36    35    1
    19     3     2    1
    20    39    41    1
    21    39    38    1
    22    35    38    1
    23     2     5    1
    24    20    21    1
    25    21    22    1
    26    38    40    1
    27     8     9    1
    28     5     6    1
    29     5     7    1
    30    11    10    2
    31    25    24    1
    32    22    23    1
    33    10     9    1
    34    24    23    2
    35    24    26    1
    36     9    12    1
    37    12    13    1
    38    12    14    1
    39    13    15    1
    40    57    55    1
    41    75    73    1
    42    49    47    1
    43    55    56    1
    44    55    54    1
    45    72    71    2
    46    54    51    1
    47    76    74    1
    48    74    73    1
    49    68    67   ar
    50    68    66   ar
    51    73    70    1
    52    67    65   ar
    53    71    70    1
    54    66    64   ar
    55    65    63   ar
    56    47    46    1
    57    70    69    1
    58    48    46    1
    59    51    52    1
    60    51    50    1
    61    64    63   ar
    62    63    62    1
    63    52    53    2
    64    46    43    1
    65    62    59    1
    66    43    44    1
    67    43    42    1
    68    44    45    2
    69    59    60    1
    70    59    58    1
    71    60    61    2
