@<TRIPOS>MOLECULE
tmp/5m61B02.pdb
 69 67 0 0 0
SMALL
GASTEIGER

@<TRIPOS>ATOM
      1  N         21.7280   20.5010   72.0920 N.3   161  TRP161     -0.1241
      2  CA        21.7130   19.1610   71.4940 C.3   161  TRP161      0.1605
      3  C         21.8350   19.3620   69.9940 C.2   161  TRP161      0.2264
      4  O         21.0080   20.0610   69.3850 O.2   161  TRP161     -0.2867
      5  CB        20.4330   18.3880   71.8700 C.3   161  TRP161      0.0550
      6  CG        20.3770   18.1240   73.3360 C.ar  161  TRP161      0.0003
      7  CD1       19.7930   18.9030   74.3140 C.ar  161  TRP161      0.0946
      8  CD2       20.9980   17.0330   74.0150 C.ar  161  TRP161      0.0152
      9  NE1       20.0400   18.3540   75.5610 N.ar  161  TRP161     -0.2442
     10  CE2       20.7650   17.2040   75.3980 C.ar  161  TRP161      0.0810
     11  CE3       21.7020   15.9050   73.5810 C.ar  161  TRP161      0.0012
     12  CZ2       21.2110   16.2800   76.3490 C.ar  161  TRP161      0.0191
     13  CZ3       22.1370   14.9940   74.5210 C.ar  161  TRP161      0.0001
     14  CH2       21.8890   15.1870   75.8910 C.ar  161  TRP161      0.0015
     15  N         24.9710   12.6500   67.3700 N.3   180  LEU180     -0.1245
     16  CA        24.2470   13.4290   68.3510 C.3   180  LEU180      0.1561
     17  C         25.2890   13.9410   69.3270 C.2   180  LEU180      0.2260
     18  O         26.0600   13.1620   69.8990 O.2   180  LEU180     -0.2867
     19  CB        23.1590   12.6160   69.0740 C.3   180  LEU180      0.0270
     20  CG        22.4130   13.3710   70.2140 C.3   180  LEU180      0.0019
     21  CD1       21.5300   14.4790   69.6650 C.3   180  LEU180      0.0001
     22  CD2       21.5410   12.4410   71.0060 C.3   180  LEU180      0.0001
     23  N         24.5160    7.2590   65.9910 N.3   191  ILE191     -0.1245
     24  CA        23.2120    6.6440   65.8810 C.3   191  ILE191      0.1561
     25  C         22.9190    6.3390   64.4080 C.2   191  ILE191      0.2260
     26  O         23.1380    7.2250   63.5650 O.2   191  ILE191     -0.2867
     27  CB        22.1410    7.6250   66.4230 C.3   191  ILE191      0.0252
     28  CG1       22.3910    7.9640   67.9090 C.3   191  ILE191      0.0019
     29  CG2       20.7560    7.0060   66.3400 C.3   191  ILE191      0.0019
     30  CD1       21.4260    9.0130   68.4380 C.3   191  ILE191      0.0001
     31  N         13.8380   14.4750   71.0900 N.3   213  PHE213     -0.1241
     32  CA        14.5710   14.1550   69.8820 C.3   213  PHE213      0.1605
     33  C         13.7550   13.0940   69.1710 C.2   213  PHE213      0.2264
     34  O         13.4580   12.0510   69.7680 O.2   213  PHE213     -0.2867
     35  CB        15.9290   13.5930   70.2930 C.3   213  PHE213      0.0534
     36  CG        16.7740   13.0710   69.1650 C.ar  213  PHE213     -0.0203
     37  CD1       16.9720   13.8060   68.0030 C.ar  213  PHE213     -0.0042
     38  CD2       17.4480   11.8950   69.3150 C.ar  213  PHE213     -0.0042
     39  CE1       17.7670   13.2980   66.9850 C.ar  213  PHE213     -0.0003
     40  CE2       18.2350   11.3830   68.3090 C.ar  213  PHE213     -0.0003
     41  CZ        18.4070   12.1010   67.1450 C.ar  213  PHE213     -0.0000
     42  N         12.2550   10.5190   71.9400 N.3   228  ILE228     -0.1231
     43  CA        12.9220   10.3220   73.1870 C.3   228  ILE228      0.1692
     44  C         13.3690   11.6400   73.7620 C.2   228  ILE228      0.2592
     45  O         13.8420   12.5150   73.0220 O.2   228  ILE228     -0.2718
     46  CB        14.0960    9.3150   73.0130 C.3   228  ILE228      0.0266
     47  CG1       14.7490    9.0130   74.3570 C.3   228  ILE228      0.0019
     48  CG2       15.1610    9.8430   72.0890 C.3   228  ILE228      0.0020
     49  CD1       15.6730    7.8070   74.3260 C.3   228  ILE228      0.0001
     50  N         13.2300   11.7730   75.0830 N.am  229  GLU229     -0.1966
     51  CA        13.6580   12.9860   75.7550 C.3   229  GLU229      0.1733
     52  C         15.1830   12.9970   75.7950 C.2   229  GLU229      0.2616
     53  O         15.7850   11.9690   76.1190 O.2   229  GLU229     -0.2715
     54  CB        13.0940   13.0490   77.1770 C.3   229  GLU229      0.0429
     55  CG        13.4090   14.3350   77.9080 C.3   229  GLU229      0.1163
     56  CD        12.6270   14.4650   79.1940 C.2   229  GLU229      0.3649
     57  OE1       12.2010   13.4220   79.7430 O.co2 229  GLU229     -0.2457
     58  OE2       12.4670   15.6100   79.6300 O.co2 229  GLU229     -0.2457
     59  N         15.7970   14.1380   75.4930 N.am  230  VAL230     -0.1963
     60  CA        17.2570   14.2840   75.6530 C.3   230  VAL230      0.1727
     61  C         17.5340   15.0900   76.8980 C.2   230  VAL230      0.2616
     62  O         16.8900   16.1000   77.1180 O.2   230  VAL230     -0.2715
     63  CB        17.9940   14.9580   74.4560 C.3   230  VAL230      0.0290
     64  CG1       18.1360   13.9860   73.3170 C.3   230  VAL230      0.0023
     65  CG2       17.2940   16.2080   73.9680 C.3   230  VAL230      0.0023
     66  N         18.4990   14.6470   77.6880 N.am  231  GLY231     -0.1955
     67  CA        18.9040   15.3810   78.8610 C.3   231  GLY231      0.1869
     68  C         18.0840   14.9530   80.0700 C.2   231  GLY231      0.2309
     69  O         17.1530   14.1450   79.9650 O.2   231  GLY231     -0.2863
@<TRIPOS>BOND
     1    26    25    2
     2    25    24    1
     3    24    23    1
     4    24    27    1
     5    29    27    1
     6    27    28    1
     7    39    41   ar
     8    39    37   ar
     9    41    40   ar
    10    15    16    1
    11    28    30    1
    12    37    36   ar
    13    40    38   ar
    14    16    19    1
    15    16    17    1
    16    19    20    1
    17    36    38   ar
    18    36    35    1
    19    33    34    2
    20    33    32    1
    21    17    18    2
    22     4     3    2
    23    21    20    1
    24    32    35    1
    25    32    31    1
    26     3     2    1
    27    20    22    1
    28     2     5    1
    29     2     1    1
    30     5     6    1
    31    42    43    1
    32    48    46    1
    33    46    43    1
    34    46    47    1
    35    45    44    2
    36    43    44    1
    37    64    63    1
    38     6     8   ar
    39     6     7   ar
    40    11     8   ar
    41    11    13   ar
    42    44    50   am
    43    65    63    1
    44     8    10   ar
    45     7     9   ar
    46    49    47    1
    47    63    60    1
    48    13    14   ar
    49    50    51    1
    50    10     9   ar
    51    10    12   ar
    52    59    60    1
    53    59    52   am
    54    60    61    1
    55    51    52    1
    56    51    54    1
    57    52    53    2
    58    14    12   ar
    59    61    62    2
    60    61    66   am
    61    54    55    1
    62    66    67    1
    63    55    56    1
    64    67    68    1
    65    56    58   ar
    66    56    57   ar
    67    69    68    2
