@<TRIPOS>MOLECULE
tmp/5m62B00.pdb
 85 78 0 0 0
SMALL
GASTEIGER

@<TRIPOS>ATOM
      1  N        -13.5960   43.0700    8.9590 N.3    94  ILE94      -0.1245
      2  CA       -12.1610   42.8200    9.0660 C.3    94  ILE94       0.1561
      3  C        -11.4720   43.6990    8.0180 C.2    94  ILE94       0.2260
      4  O        -11.9120   43.7420    6.8670 O.2    94  ILE94      -0.2867
      5  CB       -11.8510   41.3080    8.8690 C.3    94  ILE94       0.0252
      6  CG1      -12.3890   40.5090   10.0680 C.3    94  ILE94       0.0019
      7  CG2      -10.3520   41.0680    8.6750 C.3    94  ILE94       0.0019
      8  CD1      -12.3470   38.9980    9.8980 C.3    94  ILE94       0.0001
      9  N        -11.7280   43.5440    4.0440 N.3    97  GLU97      -0.1245
     10  CA       -12.9880   42.8920    3.6900 C.3    97  GLU97       0.1567
     11  C        -14.0420   43.9690    3.5050 C.2    97  GLU97       0.2260
     12  O        -13.9280   45.0580    4.0960 O.2    97  GLU97      -0.2867
     13  CB       -13.4290   41.9220    4.8010 C.3    97  GLU97       0.0388
     14  CG       -12.3740   40.8950    5.2150 C.3    97  GLU97       0.1160
     15  CD       -12.0420   39.8730    4.1440 C.2    97  GLU97       0.3649
     16  OE1      -12.7320   39.8050    3.1080 O.co2  97  GLU97      -0.2457
     17  OE2      -11.0650   39.1200    4.3450 O.co2  97  GLU97      -0.2457
     18  N        -13.7280   41.4010    0.4060 N.3    99  ASN99      -0.1240
     19  CA       -12.8310   41.3520   -0.7600 C.3    99  ASN99       0.1653
     20  C        -13.3900   40.5720   -1.9350 C.2    99  ASN99       0.2266
     21  O        -12.7840   40.5540   -3.0090 O.2    99  ASN99      -0.2867
     22  CB       -11.4290   40.8500   -0.3870 C.3    99  ASN99       0.1155
     23  CG       -11.4200   39.4470    0.1970 C.2    99  ASN99       0.2627
     24  OD1      -12.4570   38.8110    0.3410 O.2    99  ASN99      -0.2716
     25  ND2      -10.2350   38.9730    0.5600 N.am   99  ASN99      -0.0877
     26  N        -13.5000   37.3890   -2.5990 N.3   101  ALA101     -0.1245
     27  CA       -12.4870   36.4330   -3.0640 C.3   101  ALA101      0.1562
     28  C        -13.0710   35.5160   -4.1490 C.2   101  ALA101      0.2260
     29  O        -14.1220   34.8800   -3.9600 O.2   101  ALA101     -0.2867
     30  CB       -11.9090   35.6190   -1.9170 C.3   101  ALA101      0.0290
     31  N        -18.0950   35.5440   -3.0600 N.3   105  GLU105     -0.1245
     32  CA       -18.3710   35.6740   -1.6060 C.3   105  GLU105      0.1567
     33  C        -19.5480   36.6040   -1.3780 C.2   105  GLU105      0.2260
     34  O        -19.3810   37.8370   -1.3130 O.2   105  GLU105     -0.2867
     35  CB       -17.1280   36.1460   -0.8610 C.3   105  GLU105      0.0388
     36  CG       -15.9350   35.2420   -1.0610 C.3   105  GLU105      0.1160
     37  CD       -14.8270   35.4590   -0.0490 C.2   105  GLU105      0.3649
     38  OE1      -14.4330   36.6360    0.1640 O.co2 105  GLU105     -0.2457
     39  OE2      -14.3440   34.4410    0.5020 O.co2 105  GLU105     -0.2457
     40  N        -16.4030   36.3790   11.7910 N.3   111  ARG111     -0.1245
     41  CA       -15.3530   35.3720   11.6680 C.3   111  ARG111      0.1563
     42  C        -14.5670   35.1530   12.9610 C.2   111  ARG111      0.2260
     43  O        -14.0920   34.0480   13.2030 O.2   111  ARG111     -0.2867
     44  CB       -14.3890   35.7370   10.5450 C.3   111  ARG111      0.0307
     45  CG       -13.4300   34.6180   10.1970 C.3   111  ARG111      0.0489
     46  CD       -12.5250   34.9440    9.0200 C.3   111  ARG111      0.2205
     47  NE       -11.8020   33.7320    8.6180 N.pl3 111  ARG111     -0.0865
     48  CZ       -11.0350   33.6070    7.5330 C.cat 111  ARG111      0.5346
     49  NH1      -10.8230   34.6340    6.7100 N.pl3 111  ARG111      0.1354
     50  NH2      -10.4420   32.4420    7.2910 N.pl3 111  ARG111      0.1354
     51  N        -16.5080   38.9740    7.7210 N.3   119  ASN119     -0.1225
     52  CA       -15.8770   38.5560    6.4720 C.3   119  ASN119      0.1785
     53  C        -16.9480   38.1420    5.4990 C.2   119  ASN119      0.2597
     54  O        -17.9400   37.5160    5.8830 O.2   119  ASN119     -0.2718
     55  CB       -14.9410   37.3610    6.7090 C.3   119  ASN119      0.1169
     56  CG       -14.2880   36.8520    5.4220 C.2   119  ASN119      0.2627
     57  OD1      -13.9010   37.6280    4.5380 O.2   119  ASN119     -0.2716
     58  ND2      -14.2220   35.5390    5.2830 N.am  119  ASN119     -0.0877
     59  N        -16.7550   38.4710    4.2260 N.am  120  ASP120     -0.1960
     60  CA       -17.5670   37.8760    3.1910 C.3   120  ASP120      0.1840
     61  C        -17.0010   36.5090    2.8210 C.2   120  ASP120      0.2623
     62  O        -15.7670   36.3350    2.7090 O.2   120  ASP120     -0.2715
     63  CB       -17.7490   38.7910    1.9760 C.3   120  ASP120      0.1450
     64  CG       -16.4700   39.1880    1.3010 C.2   120  ASP120      0.3671
     65  OD1      -15.3830   39.1180    1.9030 O.co2 120  ASP120     -0.2456
     66  OD2      -16.5730   39.5980    0.1220 O.co2 120  ASP120     -0.2456
     67  N        -17.8860   35.5420    2.6910 N.am  121  GLY121     -0.1940
     68  CA       -17.5200   34.1800    2.3040 C.3   121  GLY121      0.1998
     69  C        -18.5140   33.5630    1.3310 C.2   121  GLY121      0.2480
     70  O        -19.6320   34.0720    1.1750 O.2   121  GLY121     -0.2729
     71  N        -18.1330   32.4320    0.7020 N.am  122  PRO122     -0.2726
     72  CA       -19.0820   31.7280   -0.1630 C.3   122  PRO122      0.1402
     73  C        -20.2980   31.2690    0.6250 C.2   122  PRO122      0.2269
     74  O        -20.1530   30.7070    1.7270 O.2   122  PRO122     -0.2865
     75  CB       -18.2680   30.5500   -0.7110 C.3   122  PRO122      0.0296
     76  CG       -16.8260   30.9300   -0.5130 C.3   122  PRO122      0.0237
     77  CD       -16.8110   31.7630    0.7280 C.3   122  PRO122      0.0939
     78  N        -20.4430   27.6710    2.2350 N.3   125  ASN125     -0.1240
     79  CA       -19.6360   27.3100    3.4180 C.3   125  ASN125      0.1653
     80  C        -20.5700   27.0090    4.5810 C.2   125  ASN125      0.2266
     81  O        -21.6740   27.5710    4.6600 O.2   125  ASN125     -0.2867
     82  CB       -18.6890   28.4350    3.7930 C.3   125  ASN125      0.1155
     83  CG       -17.4070   28.4460    2.9690 C.2   125  ASN125      0.2627
     84  OD1      -17.1810   27.6230    2.0580 O.2   125  ASN125     -0.2716
     85  ND2      -16.5670   29.3930    3.2800 N.am  125  ASN125     -0.0877
@<TRIPOS>BOND
     1    28    29    2
     2    28    27    1
     3    27    26    1
     4    27    30    1
     5    31    32    1
     6    21    20    2
     7    20    19    1
     8    32    33    1
     9    32    35    1
    10    33    34    2
    11    36    35    1
    12    36    37    1
    13    19    22    1
    14    19    18    1
    15    75    76    1
    16    75    72    1
    17    76    77    1
    18    22    23    1
    19    72    73    1
    20    72    71    1
    21    37    38   ar
    22    37    39   ar
    23    66    64   ar
    24    23    24    2
    25    23    25   am
    26    73    74    2
    27    71    77    1
    28    71    69   am
    29    70    69    2
    30    64    65   ar
    31    64    63    1
    32    69    68    1
    33    63    60    1
    34    84    83    2
    35    78    79    1
    36    68    67    1
    37    67    61   am
    38    62    61    2
    39    61    60    1
    40    83    85   am
    41    83    82    1
    42    16    15   ar
    43    60    59    1
    44    79    82    1
    45    79    80    1
    46    11    10    1
    47    11    12    2
    48    10     9    1
    49    10    13    1
    50    15    17   ar
    51    15    14    1
    52    59    53   am
    53    57    56    2
    54    80    81    2
    55    13    14    1
    56    58    56   am
    57    56    55    1
    58    53    54    2
    59    53    52    1
    60    52    55    1
    61    52    51    1
    62    49    48    1
    63     4     3    2
    64    50    48    1
    65    48    47    2
    66     3     2    1
    67    47    46    1
    68     7     5    1
    69     5     2    1
    70     5     6    1
    71     1     2    1
    72    46    45    1
    73     8     6    1
    74    45    44    1
    75    44    41    1
    76    41    40    1
    77    41    42    1
    78    42    43    2
