@<TRIPOS>MOLECULE
tmp/5m67A01.pdb
 123 116 0 0 0
SMALL
GASTEIGER

@<TRIPOS>ATOM
      1  N         25.1310    4.6380   34.8960 N.3    52  LEU52      -0.1231
      2  CA        25.3030    6.0360   34.4400 C.3    52  LEU52       0.1693
      3  C         25.4210    5.9780   32.9260 C.2    52  LEU52       0.2592
      4  O         26.1870    5.1640   32.3900 O.2    52  LEU52      -0.2718
      5  CB        26.5530    6.6220   35.1020 C.3    52  LEU52       0.0284
      6  CG        26.6560    8.1310   34.9620 C.3    52  LEU52       0.0019
      7  CD1       27.5210    8.6660   36.0920 C.3    52  LEU52       0.0001
      8  CD2       27.1920    8.5430   33.5750 C.3    52  LEU52       0.0001
      9  N         24.5980    6.7870   32.2350 N.am   53  HIS53      -0.1976
     10  CA        24.5760    6.8740   30.7810 C.3    53  HIS53       0.1656
     11  C         25.8760    6.4580   30.1130 C.2    53  HIS53       0.2291
     12  O         26.9440    7.0830   30.3200 O.2    53  HIS53      -0.2864
     13  CB        24.3250    8.3180   30.3930 C.3    53  HIS53       0.0771
     14  CG        23.1630    8.9150   31.1060 C.ar   53  HIS53       0.0820
     15  ND1       21.8600    8.4950   30.9060 N.ar   53  HIS53      -0.2267
     16  CD2       23.1170    9.9030   32.0260 C.ar   53  HIS53       0.1154
     17  CE1       21.0460    9.2130   31.6610 C.ar   53  HIS53       0.1986
     18  NE2       21.7840   10.0930   32.3440 N.ar   53  HIS53      -0.2212
     19  N         28.0080    6.7500   27.7280 N.3    55  THR55      -0.1218
     20  CA        28.4200    7.6500   26.6650 C.3    55  THR55       0.1862
     21  C         29.9450    7.5890   26.4980 C.2    55  THR55       0.2287
     22  O         30.6610    7.0520   27.3200 O.2    55  THR55      -0.2866
     23  CB        28.0290    9.0920   26.9960 C.3    55  THR55       0.1770
     24  OG1       28.7880    9.4650   28.1410 O.3    55  THR55      -0.2211
     25  CG2       26.4700    9.2080   27.3110 C.3    55  THR55       0.0375
     26  N         31.8090   10.1050   27.1620 N.3    57  GLN57      -0.1231
     27  CA        32.3290   10.7640   28.3520 C.3    57  GLN57       0.1698
     28  C         32.4380    9.8060   29.5140 C.2    57  GLN57       0.2592
     29  O         33.4400    9.7980   30.2550 O.2    57  GLN57      -0.2718
     30  CB        31.4440   11.9550   28.7160 C.3    57  GLN57       0.0381
     31  CG        31.4800   13.0730   27.6390 C.3    57  GLN57       0.0905
     32  CD        30.8760   12.6110   26.3200 C.2    57  GLN57       0.2608
     33  OE1       29.7120   12.1630   26.2640 O.2    57  GLN57      -0.2717
     34  NE2       31.6510   12.7500   25.2170 N.am   57  GLN57      -0.0878
     35  N         31.3950    8.9490   29.6870 N.am   58  THR58      -0.1953
     36  CA        31.4430    7.9490   30.7380 C.3    58  THR58       0.1897
     37  C         32.5610    6.9730   30.4850 C.2    58  THR58       0.2313
     38  O         33.1870    6.4800   31.4360 O.2    58  THR58      -0.2863
     39  CB        30.0390    7.2610   30.8060 C.3    58  THR58       0.1794
     40  OG1       29.1320    8.2670   31.2710 O.3    58  THR58      -0.2208
     41  CG2       30.0480    6.1250   31.8090 C.3    58  THR58       0.0378
     42  N         23.6840    7.3640   38.9340 N.3   130  ASP130     -0.1239
     43  CA        23.1400    8.5670   38.3040 C.3   130  ASP130      0.1674
     44  C         21.6450    8.2940   38.2370 C.2   130  ASP130      0.2266
     45  O         21.1780    7.4700   37.4380 O.2   130  ASP130     -0.2867
     46  CB        23.7630    8.7780   36.9270 C.3   130  ASP130      0.1410
     47  CG        23.2130   10.0030   36.2230 C.2   130  ASP130      0.3668
     48  OD1       22.0970   10.4220   36.5450 O.co2 130  ASP130     -0.2456
     49  OD2       23.8910   10.5740   35.3420 O.co2 130  ASP130     -0.2456
     50  N         25.1480   11.2810   41.1500 N.3   192  GLU192     -0.1245
     51  CA        25.4190   12.3380   40.1550 C.3   192  GLU192      0.1567
     52  C         24.3220   13.3910   40.0030 C.2   192  GLU192      0.2260
     53  O         24.6340   14.5540   39.6970 O.2   192  GLU192     -0.2867
     54  CB        25.6020   11.6080   38.7890 C.3   192  GLU192      0.0388
     55  CG        25.7490   12.4980   37.5780 C.3   192  GLU192      0.1160
     56  CD        27.1960   12.9400   37.3480 C.2   192  GLU192      0.3649
     57  OE1       28.0910   12.5560   38.1330 O.co2 192  GLU192     -0.2457
     58  OE2       27.4260   13.6880   36.3580 O.co2 192  GLU192     -0.2457
     59  N         27.6160   21.4390   34.8890 N.3   226  ASP226     -0.1239
     60  CA        26.8880   20.3950   34.1540 C.3   226  ASP226      0.1674
     61  C         25.4130   20.7420   33.9740 C.2   226  ASP226      0.2266
     62  O         24.9030   20.8110   32.8390 O.2   226  ASP226     -0.2867
     63  CB        27.1010   19.0900   34.9400 C.3   226  ASP226      0.1410
     64  CG        26.3080   17.8840   34.4270 C.2   226  ASP226      0.3668
     65  OD1       25.1210   18.0260   34.1110 O.co2 226  ASP226     -0.2456
     66  OD2       26.8930   16.7380   34.4700 O.co2 226  ASP226     -0.2456
     67  N         18.4170   15.2540   25.5690 N.3   380  ASN380     -0.1225
     68  CA        19.7840   15.5470   25.1390 C.3   380  ASN380      0.1785
     69  C         20.5700   14.2670   24.9130 C.2   380  ASN380      0.2597
     70  O         21.3680   14.1820   23.9580 O.2   380  ASN380     -0.2718
     71  CB        20.4900   16.4480   26.1420 C.3   380  ASN380      0.1169
     72  CG        20.5400   15.8850   27.5810 C.2   380  ASN380      0.2627
     73  OD1       19.7030   15.1230   28.0370 O.2   380  ASN380     -0.2716
     74  ND2       21.5510   16.3240   28.3150 N.am  380  ASN380     -0.0877
     75  N         20.3640   13.2800   25.7660 N.am  381  LEU381     -0.1980
     76  CA        21.0500   12.0010   25.6080 C.3   381  LEU381      0.1596
     77  C         20.3620   11.0720   24.6270 C.2   381  LEU381      0.2287
     78  O         21.0130   10.2110   24.0310 O.2   381  LEU381     -0.2864
     79  CB        21.1470   11.3170   26.9660 C.3   381  LEU381      0.0297
     80  CG        22.1340   12.0120   27.9200 C.3   381  LEU381      0.0022
     81  CD1       21.6500   11.9590   29.3740 C.3   381  LEU381      0.0001
     82  CD2       23.5630   11.4360   27.7260 C.3   381  LEU381      0.0001
     83  N         23.8890   13.5570   21.9040 N.3   385  MET385     -0.1230
     84  CA        25.0700   12.9040   22.4870 C.3   385  MET385      0.1702
     85  C         25.2770   13.3480   23.9130 C.2   385  MET385      0.2593
     86  O         26.4090   13.2340   24.4490 O.2   385  MET385     -0.2718
     87  CB        26.3090   13.2190   21.6360 C.3   385  MET385      0.0401
     88  CG        26.1440   12.7450   20.1660 C.3   385  MET385      0.0596
     89  SD        26.0640   10.8890   20.0820 S.3   385  MET385     -0.1393
     90  CE        27.7790   10.4350   20.1640 C.3   385  MET385      0.0692
     91  N         24.2030   13.8390   24.5580 N.am  386  GLY386     -0.1942
     92  CA        24.3360   14.3550   25.9150 C.3   386  GLY386      0.2014
     93  C         25.2200   15.6050   25.9880 C.2   386  GLY386      0.2638
     94  O         25.5140   16.2830   24.9870 O.2   386  GLY386     -0.2714
     95  N         25.6170   15.9270   27.2140 N.am  387  HIS387     -0.1973
     96  CA        26.4990   17.0930   27.3600 C.3   387  HIS387      0.1656
     97  C         27.8160   16.8240   26.6620 C.2   387  HIS387      0.2291
     98  O         28.2840   15.6790   26.6010 O.2   387  HIS387     -0.2864
     99  CB        26.8380   17.3930   28.8140 C.3   387  HIS387      0.0771
    100  CG        25.6660   17.6740   29.6830 C.ar  387  HIS387      0.0820
    101  ND1       24.4200   18.0340   29.2030 N.ar  387  HIS387     -0.2267
    102  CD2       25.6040   17.7360   31.0260 C.ar  387  HIS387      0.1154
    103  CE1       23.6210   18.2700   30.2330 C.ar  387  HIS387      0.1986
    104  NE2       24.3210   18.0820   31.3540 N.ar  387  HIS387     -0.2212
    105  N         31.5140   17.5170   31.1650 N.3   392  MET392     -0.1245
    106  CA        31.4290   16.2670   31.8970 C.3   392  MET392      0.1570
    107  C         32.7260   15.9500   32.6230 C.2   392  MET392      0.2261
    108  O         32.7320   15.1880   33.5990 O.2   392  MET392     -0.2867
    109  CB        31.0870   15.1010   30.9450 C.3   392  MET392      0.0387
    110  CG        29.6580   15.2140   30.3600 C.3   392  MET392      0.0595
    111  SD        28.3860   15.6030   31.6160 S.3   392  MET392     -0.1393
    112  CE        28.5840   14.2170   32.7300 C.3   392  MET392      0.0692
    113  N         32.7170   14.4970   36.2930 N.3   396  PHE396     -0.1241
    114  CA        33.3230   13.1890   36.4920 C.3   396  PHE396      0.1605
    115  C         34.6260   13.2450   37.2730 C.2   396  PHE396      0.2264
    116  O         34.9930   12.2400   37.8690 O.2   396  PHE396     -0.2867
    117  CB        33.5100   12.5540   35.1220 C.3   396  PHE396      0.0534
    118  CG        32.2190   12.0290   34.5020 C.ar  396  PHE396     -0.0203
    119  CD1       31.0110   12.0080   35.2160 C.ar  396  PHE396     -0.0042
    120  CD2       32.2190   11.6180   33.1820 C.ar  396  PHE396     -0.0042
    121  CE1       29.8410   11.5510   34.5800 C.ar  396  PHE396     -0.0003
    122  CE2       31.0760   11.1370   32.5750 C.ar  396  PHE396     -0.0003
    123  CZ        29.8830   11.0840   33.2670 C.ar  396  PHE396     -0.0000
@<TRIPOS>BOND
     1    89    90    1
     2    89    88    1
     3    88    87    1
     4    87    84    1
     5    83    84    1
     6    84    85    1
     7    85    86    2
     8    85    91   am
     9    70    69    2
    10    78    77    2
    11    91    92    1
    12    77    76    1
    13    69    68    1
    14    69    75   am
    15    94    93    2
    16    68    67    1
    17    68    71    1
    18    34    32   am
    19    76    75    1
    20    76    79    1
    21    92    93    1
    22    93    95   am
    23    71    72    1
    24    33    32    2
    25    32    31    1
    26    21    20    1
    27    21    22    2
    28    98    97    2
    29    97    96    1
    30    20    23    1
    31    20    19    1
    32    79    80    1
    33    23    25    1
    34    23    24    1
    35    26    27    1
    36    95    96    1
    37    96    99    1
    38    72    73    2
    39    72    74   am
    40    31    30    1
    41    82    80    1
    42    80    81    1
    43    27    30    1
    44    27    28    1
    45    99   100    1
    46   101   100   ar
    47   101   103   ar
    48    28    35   am
    49    28    29    2
    50   100   102   ar
    51    35    36    1
    52    11    12    2
    53    11    10    1
    54   103   104   ar
    55   110   109    1
    56   110   111    1
    57    13    10    1
    58    13    14    1
    59    37    36    1
    60    37    38    2
    61    36    39    1
    62    10     9    1
    63    39    40    1
    64    39    41    1
    65    15    14   ar
    66    15    17   ar
    67   109   106    1
    68   102   104   ar
    69    14    16   ar
    70   105   106    1
    71   111   112    1
    72    17    18   ar
    73   106   107    1
    74    16    18   ar
    75     9     3   am
    76     4     3    2
    77   122   120   ar
    78   122   123   ar
    79   107   108    2
    80    62    61    2
    81     3     2    1
    82   120   118   ar
    83   123   121   ar
    84     8     6    1
    85    61    60    1
    86    65    64   ar
    87    60    59    1
    88    60    63    1
    89    64    66   ar
    90    64    63    1
    91     2     1    1
    92     2     5    1
    93   118   117    1
    94   118   119   ar
    95   121   119   ar
    96     6     5    1
    97     6     7    1
    98   117   114    1
    99    49    47   ar
   100    47    48   ar
   101    47    46    1
   102   113   114    1
   103    58    56   ar
   104   114   115    1
   105    46    43    1
   106   115   116    2
   107    56    55    1
   108    56    57   ar
   109    45    44    2
   110    55    54    1
   111    44    43    1
   112    43    42    1
   113    54    51    1
   114    53    52    2
   115    52    51    1
   116    51    50    1
