@<TRIPOS>MOLECULE
tmp/5m6eA00.pdb
 135 133 0 0 0
SMALL
GASTEIGER

@<TRIPOS>ATOM
      1  N        -11.9500  -18.4110  -16.4240 N.3     1  MET1       -0.1245
      2  CA       -12.3880  -19.8050  -16.0620 C.3     1  MET1        0.1570
      3  C        -13.0680  -20.5320  -17.2430 C.2     1  MET1        0.2261
      4  O        -13.6580  -19.8890  -18.1240 O.2     1  MET1       -0.2867
      5  CB       -13.3020  -19.7860  -14.8290 C.3     1  MET1        0.0387
      6  CG       -14.5960  -18.9890  -14.9800 C.3     1  MET1        0.0595
      7  SD       -15.0960  -18.0200  -13.5260 S.3     1  MET1       -0.1393
      8  CE       -14.1780  -16.4840  -13.7410 C.3     1  MET1        0.0692
      9  N         -5.2270  -28.0490   -5.5320 N.3    45  LEU45      -0.1245
     10  CA        -4.2620  -27.5690   -6.5410 C.3    45  LEU45       0.1561
     11  C         -2.8590  -27.2480   -6.0190 C.2    45  LEU45       0.2260
     12  O         -1.9120  -27.1680   -6.8140 O.2    45  LEU45      -0.2867
     13  CB        -4.8270  -26.3470   -7.2560 C.3    45  LEU45       0.0270
     14  CG        -6.2110  -26.5430   -7.9040 C.3    45  LEU45       0.0019
     15  CD1       -6.5990  -25.3100   -8.7020 C.3    45  LEU45       0.0001
     16  CD2       -6.2300  -27.7830   -8.7850 C.3    45  LEU45       0.0001
     17  N         -7.1550  -23.4940   -2.8390 N.3    50  LYS50      -0.1231
     18  CA        -7.8710  -23.7140   -4.1000 C.3    50  LYS50       0.1693
     19  C         -8.0950  -25.1990   -4.2620 C.2    50  LYS50       0.2592
     20  O         -7.1650  -25.9870   -4.0950 O.2    50  LYS50      -0.2718
     21  CB        -7.0800  -23.2080   -5.3020 C.3    50  LYS50       0.0285
     22  CG        -6.9590  -21.6910   -5.3910 C.3    50  LYS50       0.0035
     23  CD        -6.4510  -21.3280   -6.7780 C.3    50  LYS50       0.0206
     24  CE        -6.1950  -19.8450   -6.9370 C.3    50  LYS50       0.1093
     25  NZ        -5.9750  -19.5470   -8.3860 N.3    50  LYS50      -0.1314
     26  N         -9.3330  -25.5600   -4.5850 N.am   51  VAL51      -0.1966
     27  CA        -9.6920  -26.9200   -4.9360 C.3    51  VAL51       0.1727
     28  C        -10.4550  -26.9240   -6.2520 C.2    51  VAL51       0.2616
     29  O        -11.0000  -25.9020   -6.6490 O.2    51  VAL51      -0.2715
     30  CB       -10.5310  -27.5850   -3.8200 C.3    51  VAL51       0.0290
     31  CG1       -9.7220  -27.6320   -2.5410 C.3    51  VAL51       0.0023
     32  CG2      -11.8410  -26.8560   -3.5600 C.3    51  VAL51       0.0023
     33  N        -10.4820  -28.0740   -6.9110 N.am   52  LYS52      -0.1977
     34  CA       -11.2970  -28.3010   -8.1150 C.3    52  LYS52       0.1596
     35  C        -12.0420  -29.6120   -7.9380 C.2    52  LYS52       0.2287
     36  O        -11.4860  -30.5640   -7.3690 O.2    52  LYS52      -0.2864
     37  CB       -10.4450  -28.4210   -9.3800 C.3    52  LYS52       0.0298
     38  CG       -10.3030  -27.1560  -10.2030 C.3    52  LYS52       0.0038
     39  CD        -9.3020  -27.3570  -11.3400 C.3    52  LYS52       0.0206
     40  CE        -9.5330  -26.4090  -12.5060 C.3    52  LYS52       0.1093
     41  NZ       -10.7850  -26.7300  -13.2630 N.3    52  LYS52      -0.1314
     42  N        -13.9730  -24.8140   -9.6330 N.3    59  GLY59      -0.1210
     43  CA       -12.9520  -24.3250   -8.7330 C.3    59  GLY59       0.1956
     44  C        -13.5340  -23.4390   -7.6470 C.2    59  GLY59       0.2612
     45  O        -14.4480  -22.6490   -7.8990 O.2    59  GLY59      -0.2717
     46  N        -12.9900  -23.5890   -6.4450 N.am   60  LEU60      -0.1965
     47  CA       -13.3380  -22.7770   -5.2950 C.3    60  LEU60       0.1728
     48  C        -12.1110  -22.4770   -4.4590 C.2    60  LEU60       0.2617
     49  O        -11.1420  -23.2230   -4.4860 O.2    60  LEU60      -0.2715
     50  CB       -14.3570  -23.4950   -4.4200 C.3    60  LEU60       0.0311
     51  CG       -15.7050  -23.8030   -5.0820 C.3    60  LEU60       0.0022
     52  CD1      -16.5030  -24.7120   -4.1580 C.3    60  LEU60       0.0001
     53  CD2      -16.4780  -22.5300   -5.4080 C.3    60  LEU60       0.0001
     54  N        -12.1780  -21.3690   -3.7200 N.am   61  THR61      -0.1937
     55  CA       -11.0910  -20.9480   -2.8740 C.3    61  THR61       0.2028
     56  C        -11.5740  -20.2030   -1.6320 C.2    61  THR61       0.2642
     57  O        -12.7760  -19.9340   -1.4730 O.2    61  THR61      -0.2714
     58  CB       -10.1060  -20.0850   -3.6840 C.3    61  THR61       0.1808
     59  OG1       -8.8440  -20.0810   -3.0270 O.3    61  THR61      -0.2208
     60  CG2      -10.5920  -18.6370   -3.8580 C.3    61  THR61       0.0379
     61  N        -10.6300  -19.8730   -0.7570 N.am   62  ASP62      -0.1957
     62  CA       -10.8790  -18.9860    0.3910 C.3    62  ASP62       0.1840
     63  C        -11.9890  -19.5100    1.3120 C.2    62  ASP62       0.2622
     64  O        -12.9920  -18.8500    1.5580 O.2    62  ASP62      -0.2715
     65  CB       -11.2110  -17.5500   -0.0570 C.3    62  ASP62       0.1450
     66  CG       -10.0720  -16.8560   -0.8100 C.2    62  ASP62       0.3671
     67  OD1      -10.3710  -15.8010   -1.4320 O.co2  62  ASP62      -0.2456
     68  OD2       -8.8980  -17.3320   -0.7980 O.co2  62  ASP62      -0.2456
     69  N        -11.7810  -20.7180    1.8150 N.am   63  TRP63      -0.1960
     70  CA       -12.7440  -21.4250    2.6510 C.3    63  TRP63       0.1771
     71  C        -12.7910  -20.8580    4.0660 C.2    63  TRP63       0.2619
     72  O        -11.8110  -20.9340    4.7860 O.2    63  TRP63      -0.2715
     73  CB       -12.3640  -22.9070    2.7240 C.3    63  TRP63       0.0590
     74  CG       -12.5290  -23.5900    1.4320 C.ar   63  TRP63       0.0006
     75  CD1      -11.6020  -23.7100    0.4390 C.ar   63  TRP63       0.0946
     76  CD2      -13.6970  -24.2560    0.9760 C.ar   63  TRP63       0.0152
     77  NE1      -12.1180  -24.4130   -0.6160 N.ar   63  TRP63      -0.2442
     78  CE2      -13.4110  -24.7630   -0.3100 C.ar   63  TRP63       0.0810
     79  CE3      -14.9600  -24.4770    1.5270 C.ar   63  TRP63       0.0012
     80  CZ2      -14.3320  -25.4680   -1.0440 C.ar   63  TRP63       0.0191
     81  CZ3      -15.8790  -25.1820    0.7900 C.ar   63  TRP63       0.0001
     82  CH2      -15.5570  -25.6700   -0.4860 C.ar   63  TRP63       0.0015
     83  N        -13.9340  -20.2950    4.4450 N.am   64  LYS64      -0.1977
     84  CA       -14.2200  -19.8890    5.8180 C.3    64  LYS64       0.1596
     85  C        -14.6950  -21.1320    6.5810 C.2    64  LYS64       0.2287
     86  O        -15.1460  -22.1010    5.9500 O.2    64  LYS64      -0.2864
     87  CB       -15.2990  -18.8230    5.8460 C.3    64  LYS64       0.0298
     88  CG       -14.9840  -17.5450    5.0800 C.3    64  LYS64       0.0038
     89  CD       -16.2890  -16.8380    4.6760 C.3    64  LYS64       0.0206
     90  CE       -16.1680  -15.3150    4.5380 C.3    64  LYS64       0.1093
     91  NZ       -15.9090  -14.6030    5.8270 N.3    64  LYS64      -0.1314
     92  N        -18.2230  -22.5160    5.8710 N.3    67  GLU67      -0.1245
     93  CA       -18.5440  -22.8990    4.5040 C.3    67  GLU67       0.1567
     94  C        -18.3740  -24.4070    4.3470 C.2    67  GLU67       0.2260
     95  O        -17.2930  -24.9520    4.5730 O.2    67  GLU67      -0.2867
     96  CB       -17.6950  -22.1130    3.4970 C.3    67  GLU67       0.0388
     97  CG       -18.0860  -20.6390    3.4540 C.3    67  GLU67       0.1160
     98  CD       -17.2090  -19.7770    2.5530 C.2    67  GLU67       0.3649
     99  OE1      -15.9780  -20.0580    2.3810 O.co2  67  GLU67      -0.2457
    100  OE2      -17.7660  -18.7980    2.0070 O.co2  67  GLU67      -0.2457
    101  N        -21.2170  -25.4600   -0.9250 N.3    72  GLN72      -0.1245
    102  CA       -20.5340  -24.5850   -1.8740 C.3    72  GLN72       0.1566
    103  C        -20.4920  -25.1740   -3.2890 C.2    72  GLN72       0.2260
    104  O        -20.6090  -24.4440   -4.2860 O.2    72  GLN72      -0.2867
    105  CB       -19.1400  -24.2550   -1.3870 C.3    72  GLN72       0.0367
    106  CG       -19.1270  -23.4270   -0.1060 C.3    72  GLN72       0.0905
    107  CD       -19.7030  -22.0340   -0.2640 C.2    72  GLN72       0.2608
    108  OE1      -19.3010  -21.2690   -1.1300 O.2    72  GLN72      -0.2717
    109  NE2      -20.6560  -21.7070    0.5820 N.am   72  GLN72      -0.0878
    110  N        -22.2100  -22.9190   -6.4120 N.3    76  TRP76      -0.1227
    111  CA       -21.4450  -22.4150   -7.5260 C.3    76  TRP76       0.1737
    112  C        -21.4410  -23.3200   -8.7760 C.2    76  TRP76       0.2595
    113  O        -21.2530  -22.8230   -9.8780 O.2    76  TRP76      -0.2718
    114  CB       -19.9930  -22.1410   -7.0400 C.3    76  TRP76       0.0564
    115  CG       -19.9470  -21.0610   -5.9980 C.ar   76  TRP76       0.0003
    116  CD1      -19.8060  -21.2390   -4.6610 C.ar   76  TRP76       0.0946
    117  CD2      -20.0470  -19.6440   -6.2110 C.ar   76  TRP76       0.0152
    118  NE1      -19.8110  -20.0300   -4.0320 N.ar   76  TRP76      -0.2442
    119  CE2      -19.9570  -19.0320   -4.9600 C.ar   76  TRP76       0.0810
    120  CE3      -20.2030  -18.8460   -7.3360 C.ar   76  TRP76       0.0012
    121  CZ2      -20.0160  -17.6530   -4.7890 C.ar   76  TRP76       0.0191
    122  CZ3      -20.2630  -17.4440   -7.1690 C.ar   76  TRP76       0.0001
    123  CH2      -20.1700  -16.8740   -5.9060 C.ar   76  TRP76       0.0015
    124  N        -21.6450  -24.6310   -8.5900 N.am   77  TYR77      -0.1976
    125  CA       -21.6320  -25.6110   -9.6700 C.3    77  TYR77       0.1639
    126  C        -22.8740  -26.4910   -9.6530 C.2    77  TYR77       0.2290
    127  O        -22.7880  -27.7180   -9.5090 O.2    77  TYR77      -0.2864
    128  CB       -20.3160  -26.4150   -9.6400 C.3    77  TYR77       0.0560
    129  CG       -19.1750  -25.4490   -9.6960 C.ar   77  TYR77      -0.0198
    130  CD1      -18.4120  -25.1720   -8.5700 C.ar   77  TYR77      -0.0009
    131  CD2      -18.8510  -24.7950  -10.8870 C.ar   77  TYR77      -0.0009
    132  CE1      -17.3570  -24.2700   -8.6320 C.ar   77  TYR77       0.0417
    133  CE2      -17.7990  -23.8910  -10.9680 C.ar   77  TYR77       0.0417
    134  CZ       -17.0560  -23.6320   -9.8340 C.ar   77  TYR77       0.1957
    135  OH       -16.0140  -22.7450   -9.8830 O.3    77  TYR77      -0.2866
@<TRIPOS>BOND
     1     4     3    2
     2     3     2    1
     3     1     2    1
     4     2     5    1
     5     6     5    1
     6     6     7    1
     7     8     7    1
     8    41    40    1
     9    40    39    1
    10    39    38    1
    11   133   131   ar
    12   133   134   ar
    13   131   129   ar
    14    38    37    1
    15   135   134    1
    16   113   112    2
    17   134   132   ar
    18   129   128    1
    19   129   130   ar
    20   125   126    1
    21   125   128    1
    22   125   124    1
    23   126   127    2
    24    42    43    1
    25    37    34    1
    26    16    14    1
    27   112   124   am
    28   112   111    1
    29    43    44    1
    30    15    14    1
    31   132   130   ar
    32    25    24    1
    33    34    35    1
    34    34    33    1
    35    35    36    2
    36    14    13    1
    37    45    44    2
    38    44    46   am
    39   111   114    1
    40   111   110    1
    41   120   122   ar
    42   120   117   ar
    43    13    10    1
    44   122   123   ar
    45   114   115    1
    46    24    23    1
    47    33    28   am
    48    12    11    2
    49    23    22    1
    50    29    28    2
    51    10    11    1
    52    10     9    1
    53    46    47    1
    54    28    27    1
    55   117   115   ar
    56   117   119   ar
    57   115   116   ar
    58   123   121   ar
    59    53    51    1
    60    22    21    1
    61    21    18    1
    62    47    48    1
    63    47    50    1
    64    51    50    1
    65    51    52    1
    66   119   121   ar
    67   119   118   ar
    68    27    26    1
    69    27    30    1
    70   116   118   ar
    71    26    19   am
    72    49    48    2
    73    48    54   am
    74   104   103    2
    75    19    18    1
    76    19    20    2
    77    18    17    1
    78    60    58    1
    79    30    32    1
    80    30    31    1
    81    54    55    1
    82    58    59    1
    83    58    55    1
    84   103   102    1
    85    55    56    1
    86   102   105    1
    87   102   101    1
    88    56    57    2
    89    56    61   am
    90    67    66   ar
    91   105   106    1
    92   108   107    2
    93    80    82   ar
    94    80    78   ar
    95    66    68   ar
    96    66    65    1
    97    61    62    1
    98    77    78   ar
    99    77    75   ar
   100    82    81   ar
   101    78    76   ar
   102   107   106    1
   103   107   109   am
   104    65    62    1
   105    62    63    1
   106    75    74   ar
   107    81    79   ar
   108    76    74   ar
   109    76    79   ar
   110    63    64    2
   111    63    69   am
   112    74    73    1
   113    69    70    1
   114   100    98   ar
   115    99    98   ar
   116    98    97    1
   117    70    73    1
   118    70    71    1
   119    97    96    1
   120    96    93    1
   121    71    83   am
   122    71    72    2
   123    94    93    1
   124    94    95    2
   125    83    84    1
   126    93    92    1
   127    90    89    1
   128    90    91    1
   129    89    88    1
   130    88    87    1
   131    84    87    1
   132    84    85    1
   133    86    85    2
