@<TRIPOS>MOLECULE
tmp/5m6fA00.pdb
 135 133 0 0 0
SMALL
GASTEIGER

@<TRIPOS>ATOM
      1  N        -13.5200  -19.6960  -15.3690 N.3     1  MET1       -0.1245
      2  CA       -13.0620  -19.2080  -16.6790 C.3     1  MET1        0.1570
      3  C        -13.1630  -20.2710  -17.8350 C.2     1  MET1        0.2261
      4  O        -13.1600  -19.8860  -19.0230 O.2     1  MET1       -0.2867
      5  CB       -11.6430  -18.6140  -16.5860 C.3     1  MET1        0.0387
      6  CG       -11.4280  -17.4260  -15.6980 C.3     1  MET1        0.0595
      7  SD       -12.2840  -16.0020  -16.4690 S.3     1  MET1       -0.1393
      8  CE       -11.8240  -16.0230  -18.1310 C.3     1  MET1        0.0692
      9  N         -5.2890  -28.0560   -5.4710 N.3    45  LEU45      -0.1245
     10  CA        -4.3670  -27.6190   -6.5120 C.3    45  LEU45       0.1561
     11  C         -2.9200  -27.3330   -6.0130 C.2    45  LEU45       0.2260
     12  O         -2.0000  -27.2850   -6.8210 O.2    45  LEU45      -0.2867
     13  CB        -4.9430  -26.4280   -7.2750 C.3    45  LEU45       0.0270
     14  CG        -6.2740  -26.6900   -8.0330 C.3    45  LEU45       0.0019
     15  CD1       -6.6510  -25.4880   -8.8490 C.3    45  LEU45       0.0001
     16  CD2       -6.1840  -27.9180   -8.9360 C.3    45  LEU45       0.0001
     17  N         -7.1780  -23.5340   -2.8120 N.3    50  LYS50      -0.1231
     18  CA        -7.8260  -23.8030   -4.1070 C.3    50  LYS50       0.1693
     19  C         -8.0720  -25.2750   -4.2940 C.2    50  LYS50       0.2592
     20  O         -7.1580  -26.0780   -4.1700 O.2    50  LYS50      -0.2718
     21  CB        -7.0430  -23.2440   -5.3110 C.3    50  LYS50       0.0285
     22  CG        -7.0480  -21.7120   -5.4280 C.3    50  LYS50       0.0035
     23  CD        -6.4690  -21.3260   -6.7830 C.3    50  LYS50       0.0206
     24  CE        -6.5510  -19.8560   -7.0470 C.3    50  LYS50       0.1093
     25  NZ        -6.0770  -19.5550   -8.4220 N.3    50  LYS50      -0.1314
     26  N         -9.3220  -25.6190   -4.5850 N.am   51  VAL51      -0.1966
     27  CA        -9.7900  -26.9780   -4.8950 C.3    51  VAL51       0.1727
     28  C        -10.5270  -26.9970   -6.2330 C.2    51  VAL51       0.2616
     29  O        -11.0600  -25.9750   -6.6540 O.2    51  VAL51      -0.2715
     30  CB       -10.6570  -27.5770   -3.7550 C.3    51  VAL51       0.0290
     31  CG1       -9.8360  -27.7340   -2.4760 C.3    51  VAL51       0.0023
     32  CG2      -11.8960  -26.7320   -3.5160 C.3    51  VAL51       0.0023
     33  N        -10.5560  -28.1340   -6.8920 N.am   52  LYS52      -0.1977
     34  CA       -11.3830  -28.3220   -8.0970 C.3    52  LYS52       0.1596
     35  C        -12.1190  -29.6140   -7.9400 C.2    52  LYS52       0.2287
     36  O        -11.5630  -30.5610   -7.3520 O.2    52  LYS52      -0.2864
     37  CB       -10.5210  -28.4180   -9.3600 C.3    52  LYS52       0.0298
     38  CG       -10.3620  -27.1240  -10.1290 C.3    52  LYS52       0.0038
     39  CD        -9.2750  -27.2850  -11.1810 C.3    52  LYS52       0.0206
     40  CE        -9.8110  -27.3090  -12.5780 C.3    52  LYS52       0.1093
     41  NZ       -10.1680  -25.9380  -13.0430 N.3    52  LYS52      -0.1314
     42  N        -13.9810  -24.9010   -9.6300 N.3    59  GLY59      -0.1210
     43  CA       -12.9880  -24.4040   -8.6970 C.3    59  GLY59       0.1956
     44  C        -13.5150  -23.4800   -7.6200 C.2    59  GLY59       0.2612
     45  O        -14.3660  -22.6170   -7.8760 O.2    59  GLY59      -0.2717
     46  N        -12.9890  -23.6630   -6.3920 N.am   60  LEU60      -0.1965
     47  CA       -13.3810  -22.9190   -5.2000 C.3    60  LEU60       0.1728
     48  C        -12.1630  -22.5730   -4.3580 C.2    60  LEU60       0.2617
     49  O        -11.2030  -23.3300   -4.3180 O.2    60  LEU60      -0.2715
     50  CB       -14.3800  -23.7420   -4.3670 C.3    60  LEU60       0.0311
     51  CG       -15.7290  -24.0680   -5.0200 C.3    60  LEU60       0.0022
     52  CD1      -16.4940  -25.0730   -4.1680 C.3    60  LEU60       0.0001
     53  CD2      -16.5740  -22.7820   -5.2310 C.3    60  LEU60       0.0001
     54  N        -12.2050  -21.4200   -3.6900 N.am   61  THR61      -0.1937
     55  CA       -11.1080  -20.9510   -2.8450 C.3    61  THR61       0.2028
     56  C        -11.6280  -20.2380   -1.6170 C.2    61  THR61       0.2642
     57  O        -12.8310  -20.0260   -1.5060 O.2    61  THR61      -0.2714
     58  CB       -10.1080  -20.1150   -3.6780 C.3    61  THR61       0.1808
     59  OG1       -8.8460  -20.1200   -3.0100 O.3    61  THR61      -0.2208
     60  CG2      -10.5740  -18.6680   -3.9120 C.3    61  THR61       0.0379
     61  N        -10.7190  -19.8610   -0.6920 N.am   62  ASP62      -0.1957
     62  CA       -10.9770  -19.0290    0.4820 C.3    62  ASP62       0.1840
     63  C        -12.0750  -19.5940    1.3450 C.2    62  ASP62       0.2622
     64  O        -13.1190  -18.9810    1.5710 O.2    62  ASP62      -0.2715
     65  CB       -11.2150  -17.5440    0.1150 C.3    62  ASP62       0.1450
     66  CG       -10.1190  -16.8670   -0.7040 C.2    62  ASP62       0.3671
     67  OD1      -10.4200  -15.8530   -1.3700 O.co2  62  ASP62      -0.2456
     68  OD2       -8.9640  -17.3700   -0.7010 O.co2  62  ASP62      -0.2456
     69  N        -11.8230  -20.7930    1.8290 N.am   63  TRP63      -0.1960
     70  CA       -12.7250  -21.5450    2.6900 C.3    63  TRP63       0.1771
     71  C        -12.7940  -20.9450    4.1110 C.2    63  TRP63       0.2619
     72  O        -11.8220  -20.9790    4.8590 O.2    63  TRP63      -0.2715
     73  CB       -12.2890  -23.0180    2.7080 C.3    63  TRP63       0.0590
     74  CG       -12.5030  -23.6860    1.3910 C.ar   63  TRP63       0.0006
     75  CD1      -11.6230  -23.7620    0.3480 C.ar   63  TRP63       0.0946
     76  CD2      -13.6850  -24.3760    0.9760 C.ar   63  TRP63       0.0152
     77  NE1      -12.1790  -24.4630   -0.6930 N.ar   63  TRP63      -0.2442
     78  CE2      -13.4560  -24.8420   -0.3400 C.ar   63  TRP63       0.0810
     79  CE3      -14.9330  -24.6340    1.5900 C.ar   63  TRP63       0.0012
     80  CZ2      -14.4160  -25.5570   -1.0500 C.ar   63  TRP63       0.0191
     81  CZ3      -15.8810  -25.3350    0.8750 C.ar   63  TRP63       0.0001
     82  CH2      -15.6100  -25.8050   -0.4220 C.ar   63  TRP63       0.0015
     83  N        -13.9580  -20.3860    4.4580 N.am   64  LYS64      -0.1977
     84  CA       -14.3230  -19.9370    5.8040 C.3    64  LYS64       0.1596
     85  C        -14.8030  -21.1570    6.6120 C.2    64  LYS64       0.2287
     86  O        -15.2920  -22.1290    6.0080 O.2    64  LYS64      -0.2864
     87  CB       -15.3930  -18.8400    5.7410 C.3    64  LYS64       0.0298
     88  CG       -14.8220  -17.4840    5.3480 C.3    64  LYS64       0.0038
     89  CD       -14.9420  -17.1930    3.8480 C.3    64  LYS64       0.0206
     90  CE       -13.8460  -16.2890    3.3060 C.3    64  LYS64       0.1093
     91  NZ       -13.8450  -16.2690    1.8090 N.3    64  LYS64      -0.1314
     92  N        -18.3370  -22.5410    5.8860 N.3    67  GLU67      -0.1245
     93  CA       -18.6360  -22.8880    4.4890 C.3    67  GLU67       0.1567
     94  C        -18.4840  -24.3730    4.2910 C.2    67  GLU67       0.2260
     95  O        -17.4100  -24.9220    4.5230 O.2    67  GLU67      -0.2867
     96  CB       -17.7530  -22.1040    3.4920 C.3    67  GLU67       0.0388
     97  CG       -18.1470  -20.6400    3.3750 C.3    67  GLU67       0.1160
     98  CD       -17.2770  -19.7700    2.4920 C.2    67  GLU67       0.3649
     99  OE1      -16.0730  -20.0810    2.3210 O.co2  67  GLU67      -0.2457
    100  OE2      -17.7960  -18.7360    2.0140 O.co2  67  GLU67      -0.2457
    101  N        -21.2570  -25.4870   -0.9910 N.3    72  GLN72      -0.1245
    102  CA       -20.5070  -24.6320   -1.9060 C.3    72  GLN72       0.1566
    103  C        -20.4800  -25.2050   -3.3310 C.2    72  GLN72       0.2260
    104  O        -20.5860  -24.4570   -4.3070 O.2    72  GLN72      -0.2867
    105  CB       -19.1080  -24.3180   -1.3450 C.3    72  GLN72       0.0367
    106  CG       -19.1420  -23.3990   -0.0880 C.3    72  GLN72       0.0905
    107  CD       -19.7810  -22.0250   -0.2640 C.2    72  GLN72       0.2608
    108  OE1      -19.3580  -21.2040   -1.0710 O.2    72  GLN72      -0.2717
    109  NE2      -20.7810  -21.7120    0.5460 N.am   72  GLN72      -0.0878
    110  N        -22.2590  -23.0280   -6.4770 N.3    76  TRP76      -0.1227
    111  CA       -21.4550  -22.5110   -7.5630 C.3    76  TRP76       0.1737
    112  C        -21.4660  -23.3660   -8.7950 C.2    76  TRP76       0.2595
    113  O        -21.2950  -22.8330   -9.9150 O.2    76  TRP76      -0.2718
    114  CB       -20.0090  -22.3020   -7.0640 C.3    76  TRP76       0.0564
    115  CG       -19.9660  -21.2070   -6.0430 C.ar   76  TRP76       0.0003
    116  CD1      -19.8940  -21.3530   -4.6880 C.ar   76  TRP76       0.0946
    117  CD2      -20.0860  -19.7980   -6.2950 C.ar   76  TRP76       0.0152
    118  NE1      -19.9370  -20.1220   -4.0810 N.ar   76  TRP76      -0.2442
    119  CE2      -20.0420  -19.1450   -5.0420 C.ar   76  TRP76       0.0810
    120  CE3      -20.2190  -19.0240   -7.4630 C.ar   76  TRP76       0.0012
    121  CZ2      -20.1040  -17.7380   -4.9140 C.ar   76  TRP76       0.0191
    122  CZ3      -20.2920  -17.6340   -7.3420 C.ar   76  TRP76       0.0001
    123  CH2      -20.2440  -17.0040   -6.0770 C.ar   76  TRP76       0.0015
    124  N        -21.6420  -24.7070   -8.5910 N.am   77  TYR77      -0.1976
    125  CA       -21.6600  -25.6710   -9.6940 C.3    77  TYR77       0.1639
    126  C        -22.9030  -26.5160   -9.6890 C.2    77  TYR77       0.2290
    127  O        -22.8010  -27.7400   -9.6570 O.2    77  TYR77      -0.2864
    128  CB       -20.3620  -26.5050   -9.7460 C.3    77  TYR77       0.0560
    129  CG       -19.2020  -25.5510   -9.7890 C.ar   77  TYR77      -0.0198
    130  CD1      -18.5180  -25.2030   -8.6260 C.ar   77  TYR77      -0.0009
    131  CD2      -18.8380  -24.9200  -10.9820 C.ar   77  TYR77      -0.0009
    132  CE1      -17.5020  -24.2510   -8.6500 C.ar   77  TYR77       0.0417
    133  CE2      -17.8140  -23.9800  -11.0210 C.ar   77  TYR77       0.0417
    134  CZ       -17.1490  -23.6530   -9.8550 C.ar   77  TYR77       0.1957
    135  OH       -16.1470  -22.7330   -9.9060 O.3    77  TYR77      -0.2866
@<TRIPOS>BOND
     1     4     3    2
     2     8     7    1
     3     3     2    1
     4     2     5    1
     5     2     1    1
     6     5     6    1
     7     7     6    1
     8    41    40    1
     9    40    39    1
    10    39    38    1
    11   133   131   ar
    12   133   134   ar
    13   131   129   ar
    14    38    37    1
    15   113   112    2
    16   135   134    1
    17   134   132   ar
    18   129   128    1
    19   129   130   ar
    20   128   125    1
    21   125   126    1
    22   125   124    1
    23   126   127    2
    24    42    43    1
    25    37    34    1
    26    16    14    1
    27    15    14    1
    28   112   124   am
    29   112   111    1
    30    43    44    1
    31   132   130   ar
    32    25    24    1
    33    34    35    1
    34    34    33    1
    35    14    13    1
    36    35    36    2
    37    45    44    2
    38    44    46   am
    39   111   114    1
    40   111   110    1
    41   120   122   ar
    42   120   117   ar
    43   122   123   ar
    44    13    10    1
    45   114   115    1
    46    24    23    1
    47    33    28   am
    48    12    11    2
    49    23    22    1
    50    29    28    2
    51    10    11    1
    52    10     9    1
    53    46    47    1
    54   117   115   ar
    55   117   119   ar
    56    28    27    1
    57   123   121   ar
    58   115   116   ar
    59    22    21    1
    60    21    18    1
    61    53    51    1
    62    47    50    1
    63    47    48    1
    64   119   121   ar
    65   119   118   ar
    66    51    50    1
    67    51    52    1
    68    27    26    1
    69    27    30    1
    70   116   118   ar
    71    26    19   am
    72    48    49    2
    73    48    54   am
    74   104   103    2
    75    19    20    2
    76    19    18    1
    77    18    17    1
    78    60    58    1
    79    30    32    1
    80    30    31    1
    81    54    55    1
    82    58    59    1
    83    58    55    1
    84   103   102    1
    85    55    56    1
    86   102   105    1
    87   102   101    1
    88    56    57    2
    89    56    61   am
    90    67    66   ar
    91   105   106    1
    92   108   107    2
    93    80    82   ar
    94    80    78   ar
    95    66    68   ar
    96    66    65    1
    97    77    78   ar
    98    77    75   ar
    99    61    62    1
   100    82    81   ar
   101    78    76   ar
   102   107   106    1
   103   107   109   am
   104    65    62    1
   105    75    74   ar
   106    62    63    1
   107    81    79   ar
   108    76    74   ar
   109    76    79   ar
   110    63    64    2
   111    63    69   am
   112    74    73    1
   113    91    90    1
   114    69    70    1
   115   100    98   ar
   116    99    98   ar
   117    98    97    1
   118    70    73    1
   119    70    71    1
   120    90    89    1
   121    97    96    1
   122    96    93    1
   123    89    88    1
   124    71    83   am
   125    71    72    2
   126    94    93    1
   127    94    95    2
   128    83    84    1
   129    93    92    1
   130    88    87    1
   131    87    84    1
   132    84    85    1
   133    86    85    2
