@<TRIPOS>MOLECULE
tmp/5m6gA01.pdb
 150 145 0 0 0
SMALL
GASTEIGER

@<TRIPOS>ATOM
      1  N        -21.8030   -4.9170  -12.9720 N.3    53  LEU53      -0.1245
      2  CA       -20.6190   -4.6000  -13.7620 C.3    53  LEU53       0.1561
      3  C        -20.4400   -5.6330  -14.8620 C.2    53  LEU53       0.2260
      4  O        -20.9460   -6.7570  -14.7890 O.2    53  LEU53      -0.2867
      5  CB       -19.3160   -4.5360  -12.9280 C.3    53  LEU53       0.0270
      6  CG       -18.6390   -5.8600  -12.5340 C.3    53  LEU53       0.0019
      7  CD1      -17.1220   -5.7040  -12.4000 C.3    53  LEU53       0.0001
      8  CD2      -19.2120   -6.4240  -11.2380 C.3    53  LEU53       0.0001
      9  N        -17.2250   -7.4790  -16.0470 N.3    55  GLY55      -0.1210
     10  CA       -15.8060   -7.7300  -15.9160 C.3    55  GLY55       0.1956
     11  C        -15.1280   -7.6240  -17.2790 C.2    55  GLY55       0.2612
     12  O        -15.7750   -7.5000  -18.3200 O.2    55  GLY55      -0.2717
     13  N        -13.7970   -7.6620  -17.2710 N.am   56  GLY56      -0.1956
     14  CA       -13.0530   -7.6380  -18.5140 C.3    56  GLY56       0.1869
     15  C        -13.4960   -8.7590  -19.4320 C.2    56  GLY56       0.2309
     16  O        -13.5650   -9.9220  -19.0210 O.2    56  GLY56      -0.2863
     17  N        -14.6900   -1.5530  -16.7830 N.3    93  ASP93      -0.1239
     18  CA       -13.3160   -1.0760  -16.9760 C.3    93  ASP93       0.1674
     19  C        -13.2330   -0.3890  -18.3340 C.2    93  ASP93       0.2266
     20  O        -13.0970   -1.0430  -19.3690 O.2    93  ASP93      -0.2867
     21  CB       -12.3060   -2.2150  -16.8930 C.3    93  ASP93       0.1410
     22  CG       -12.2610   -2.8580  -15.5230 C.2    93  ASP93       0.3668
     23  OD1      -11.6410   -2.2720  -14.6030 O.co2  93  ASP93      -0.2456
     24  OD2      -12.8410   -3.9540  -15.3750 O.co2  93  ASP93      -0.2456
     25  N        -14.1240    2.1360  -14.0670 N.3   142  PHE142     -0.1241
     26  CA       -13.1130    1.8450  -13.0500 C.3   142  PHE142      0.1605
     27  C        -11.7740    2.3970  -13.5430 C.2   142  PHE142      0.2264
     28  O        -10.8480    1.6690  -13.8960 O.2   142  PHE142     -0.2867
     29  CB       -13.0630    0.3490  -12.7700 C.3   142  PHE142      0.0534
     30  CG       -14.4210   -0.2530  -12.4180 C.ar  142  PHE142     -0.0203
     31  CD1      -15.2570    0.3660  -11.5010 C.ar  142  PHE142     -0.0042
     32  CD2      -14.8510   -1.4330  -13.0140 C.ar  142  PHE142     -0.0042
     33  CE1      -16.5030   -0.1890  -11.1790 C.ar  142  PHE142     -0.0003
     34  CE2      -16.0830   -1.9930  -12.7020 C.ar  142  PHE142     -0.0003
     35  CZ       -16.9180   -1.3680  -11.7840 C.ar  142  PHE142     -0.0000
     36  N          0.9250   -4.6480  -13.7330 N.3   156  ARG156     -0.1245
     37  CA         0.0940   -3.4790  -13.9900 C.3   156  ARG156      0.1563
     38  C          0.9180   -2.2030  -14.1250 C.2   156  ARG156      0.2260
     39  O          0.3650   -1.0980  -14.0550 O.2   156  ARG156     -0.2867
     40  CB        -0.9650   -3.3270  -12.8920 C.3   156  ARG156      0.0307
     41  CG        -1.5970   -4.6450  -12.4970 C.3   156  ARG156      0.0489
     42  CD        -2.8830   -4.4360  -11.6960 C.3   156  ARG156      0.2205
     43  NE        -3.9780   -3.9540  -12.5280 N.pl3 156  ARG156     -0.0865
     44  CZ        -5.2590   -3.9800  -12.1560 C.cat 156  ARG156      0.5346
     45  NH1       -5.5890   -4.4670  -10.9630 N.pl3 156  ARG156      0.1354
     46  NH2       -6.2090   -3.5280  -12.9710 N.pl3 156  ARG156      0.1354
     47  N         -8.1870    4.3670   -8.3810 N.3   195  LYS195     -0.1231
     48  CA        -7.8110    3.0190   -7.9410 C.3   195  LYS195      0.1693
     49  C         -6.2920    2.8030   -8.0570 C.2   195  LYS195      0.2592
     50  O         -5.6240    3.5200   -8.8000 O.2   195  LYS195     -0.2718
     51  CB        -8.5590    1.9570   -8.7630 C.3   195  LYS195      0.0285
     52  CG        -8.0930    1.8160  -10.2120 C.3   195  LYS195      0.0035
     53  CD        -9.0320    0.8950  -11.0200 C.3   195  LYS195      0.0206
     54  CE        -8.3980    0.5170  -12.3840 C.3   195  LYS195      0.1093
     55  NZ        -9.2710   -0.4390  -13.1440 N.3   195  LYS195     -0.1314
     56  N         -5.7310    1.8300   -7.3410 N.am  196  HIS196     -0.1976
     57  CA        -6.3860    1.0870   -6.2740 C.3   196  HIS196      0.1656
     58  C         -5.8300    1.5710   -4.9280 C.2   196  HIS196      0.2291
     59  O         -4.6140    1.5990   -4.7150 O.2   196  HIS196     -0.2864
     60  CB        -6.1580   -0.4160   -6.4230 C.3   196  HIS196      0.0771
     61  CG        -6.4180   -0.9390   -7.8020 C.ar  196  HIS196      0.0820
     62  ND1       -5.5040   -0.8220   -8.8290 N.ar  196  HIS196     -0.2267
     63  CD2       -7.4840   -1.5960   -8.3210 C.ar  196  HIS196      0.1154
     64  CE1       -6.0000   -1.3750   -9.9240 C.ar  196  HIS196      0.1986
     65  NE2       -7.1970   -1.8560   -9.6410 N.ar  196  HIS196     -0.2212
     66  N        -11.6930    2.8490   -5.5000 N.3   239  MET239     -0.1245
     67  CA       -11.6650    1.3940   -5.4150 C.3   239  MET239      0.1570
     68  C        -10.4970    0.9510   -4.5390 C.2   239  MET239      0.2261
     69  O         -9.3720    1.4360   -4.7050 O.2   239  MET239     -0.2867
     70  CB       -11.5500    0.7500   -6.8000 C.3   239  MET239      0.0387
     71  CG       -11.5890   -0.7590   -6.7050 C.3   239  MET239      0.0595
     72  SD       -11.3380   -1.6110   -8.2640 S.3   239  MET239     -0.1393
     73  CE       -12.7180   -0.9750   -9.2000 C.3   239  MET239      0.0692
     74  N         -6.4760   -4.9720   -3.6850 N.3   242  TYR242     -0.1241
     75  CA        -6.2190   -6.3250   -3.1980 C.3   242  TYR242      0.1605
     76  C         -5.0010   -6.3860   -2.2870 C.2   242  TYR242      0.2264
     77  O         -4.9010   -7.2970   -1.4590 O.2   242  TYR242     -0.2867
     78  CB        -5.9390   -7.2750   -4.3570 C.3   242  TYR242      0.0534
     79  CG        -7.0660   -7.7020   -5.2460 C.ar  242  TYR242     -0.0201
     80  CD1       -8.3030   -8.0750   -4.7390 C.ar  242  TYR242     -0.0009
     81  CD2       -6.8600   -7.7850   -6.6240 C.ar  242  TYR242     -0.0009
     82  CE1       -9.3260   -8.4960   -5.6010 C.ar  242  TYR242      0.0417
     83  CE2       -7.8580   -8.1990   -7.4830 C.ar  242  TYR242      0.0417
     84  CZ        -9.0820   -8.5560   -6.9740 C.ar  242  TYR242      0.1957
     85  OH       -10.0440   -8.9700   -7.8550 O.3   242  TYR242     -0.2866
     86  N        -12.5370   -4.1660   -4.7290 N.3   274  ASP274     -0.1225
     87  CA       -12.1190   -4.8450   -5.9470 C.3   274  ASP274      0.1805
     88  C        -12.8740   -6.1680   -6.0610 C.2   274  ASP274      0.2597
     89  O        -13.6460   -6.5620   -5.1780 O.2   274  ASP274     -0.2718
     90  CB       -10.5970   -5.0490   -5.9740 C.3   274  ASP274      0.1424
     91  CG       -10.0270   -5.0850   -7.4040 C.2   274  ASP274      0.3668
     92  OD1      -10.7540   -5.4860   -8.3520 O.co2 274  ASP274     -0.2456
     93  OD2       -8.8440   -4.7050   -7.5790 O.co2 274  ASP274     -0.2456
     94  N        -12.6300   -6.8660   -7.1640 N.am  275  TYR275     -0.1976
     95  CA       -13.4630   -7.9720   -7.6260 C.3   275  TYR275      0.1639
     96  C        -13.2250   -9.2050   -6.7640 C.2   275  TYR275      0.2290
     97  O        -12.1090   -9.7310   -6.7320 O.2   275  TYR275     -0.2864
     98  CB       -13.1170   -8.2370   -9.0890 C.3   275  TYR275      0.0560
     99  CG       -13.9630   -9.2160   -9.8610 C.ar  275  TYR275     -0.0198
    100  CD1      -13.5990  -10.5560   -9.9640 C.ar  275  TYR275     -0.0009
    101  CD2      -15.0880   -8.7840  -10.5720 C.ar  275  TYR275     -0.0009
    102  CE1      -14.3580  -11.4490  -10.7290 C.ar  275  TYR275      0.0417
    103  CE2      -15.8480   -9.6670  -11.3290 C.ar  275  TYR275      0.0417
    104  CZ       -15.4820  -10.9920  -11.4040 C.ar  275  TYR275      0.1957
    105  OH       -16.2440  -11.8570  -12.1620 O.3   275  TYR275     -0.2866
    106  N        -17.9770   -5.5660   -4.9190 N.3   304  MET304     -0.1245
    107  CA       -17.9230   -6.0730   -6.2820 C.3   304  MET304      0.1570
    108  C        -17.7050   -7.5770   -6.2230 C.2   304  MET304      0.2261
    109  O        -16.7050   -8.0360   -5.6600 O.2   304  MET304     -0.2867
    110  CB       -16.7910   -5.3880   -7.0480 C.3   304  MET304      0.0387
    111  CG       -16.6860   -5.7870   -8.5150 C.3   304  MET304      0.0595
    112  SD       -15.1410   -5.1600   -9.2230 S.3   304  MET304     -0.1393
    113  CE       -15.3580   -3.4020   -9.0220 C.3   304  MET304      0.0692
    114  N         -6.4890   -5.4910  -21.3960 N.3   412  TRP412     -0.1241
    115  CA        -7.7470   -4.7590  -21.2660 C.3   412  TRP412      0.1605
    116  C         -8.1950   -4.2130  -22.6210 C.2   412  TRP412      0.2264
    117  O         -8.4970   -3.0310  -22.7740 O.2   412  TRP412     -0.2867
    118  CB        -7.6170   -3.6230  -20.2480 C.3   412  TRP412      0.0550
    119  CG        -7.3570   -4.0560  -18.8300 C.ar  412  TRP412      0.0003
    120  CD1       -6.1670   -4.0000  -18.1570 C.ar  412  TRP412      0.0946
    121  CD2       -8.3160   -4.5740  -17.9030 C.ar  412  TRP412      0.0152
    122  NE1       -6.3240   -4.4700  -16.8720 N.ar  412  TRP412     -0.2442
    123  CE2       -7.6360   -4.8260  -16.6900 C.ar  412  TRP412      0.0810
    124  CE3       -9.6860   -4.8600  -17.9820 C.ar  412  TRP412      0.0012
    125  CZ2       -8.2800   -5.3490  -15.5630 C.ar  412  TRP412      0.0191
    126  CZ3      -10.3250   -5.3750  -16.8590 C.ar  412  TRP412      0.0001
    127  CH2       -9.6190   -5.6150  -15.6690 C.ar  412  TRP412      0.0015
    128  N        -10.0400   -9.4750  -21.2540 N.3   416  TRP416     -0.1241
    129  CA        -9.3650   -9.0240  -20.0360 C.3   416  TRP416      0.1605
    130  C         -7.8490   -8.9810  -20.2200 C.2   416  TRP416      0.2264
    131  O         -7.2050   -7.9450  -20.0040 O.2   416  TRP416     -0.2867
    132  CB        -9.7430   -9.9620  -18.8840 C.3   416  TRP416      0.0550
    133  CG        -8.9750   -9.7640  -17.6190 C.ar  416  TRP416      0.0003
    134  CD1       -8.6440   -8.5790  -17.0280 C.ar  416  TRP416      0.0946
    135  CD2       -8.4320  -10.7950  -16.7850 C.ar  416  TRP416      0.0152
    136  NE1       -7.9350   -8.8110  -15.8710 N.ar  416  TRP416     -0.2442
    137  CE2       -7.7920  -10.1630  -15.7010 C.ar  416  TRP416      0.0810
    138  CE3       -8.4290  -12.1940  -16.8510 C.ar  416  TRP416      0.0012
    139  CZ2       -7.1540  -10.8800  -14.6860 C.ar  416  TRP416      0.0191
    140  CZ3       -7.7990  -12.9040  -15.8390 C.ar  416  TRP416      0.0001
    141  CH2       -7.1700  -12.2450  -14.7750 C.ar  416  TRP416      0.0015
    142  N         -2.8850   -7.6100  -14.9250 N.3   469  GLU469     -0.1245
    143  CA        -2.8350   -7.9640  -13.4880 C.3   469  GLU469      0.1567
    144  C         -1.7260   -9.0010  -13.2790 C.2   469  GLU469      0.2260
    145  O         -0.6630   -8.9050  -13.9150 O.2   469  GLU469     -0.2867
    146  CB        -4.2120   -8.4000  -13.0020 C.3   469  GLU469      0.0388
    147  CG        -5.3390   -7.4500  -13.3900 C.3   469  GLU469      0.1160
    148  CD        -6.6640   -7.8070  -12.7220 C.2   469  GLU469      0.3649
    149  OE1       -6.6490   -8.2380  -11.5510 O.co2 469  GLU469     -0.2457
    150  OE2       -7.7180   -7.6570  -13.3760 O.co2 469  GLU469     -0.2457
@<TRIPOS>BOND
     1   117   116    2
     2   116   115    1
     3   114   115    1
     4   115   118    1
     5   128   129    1
     6   118   119    1
     7   130   129    1
     8   130   131    2
     9   129   132    1
    10    15    16    2
    11    15    14    1
    12    20    19    2
    13   132   133    1
    14   119   120   ar
    15   119   121   ar
    16    14    13    1
    17    19    18    1
    18    12    11    2
    19   120   122   ar
    20   124   121   ar
    21   124   126   ar
    22   121   123   ar
    23   133   134   ar
    24   133   135   ar
    25    11    13   am
    26    11    10    1
    27   134   136   ar
    28    18    21    1
    29    18    17    1
    30    21    22    1
    31   122   123   ar
    32   126   127   ar
    33   138   135   ar
    34   138   140   ar
    35   135   137   ar
    36   123   125   ar
    37     9    10    1
    38   136   137   ar
    39   140   141   ar
    40   137   139   ar
    41   127   125   ar
    42    22    24   ar
    43    22    23   ar
    44   142   143    1
    45     3     4    2
    46     3     2    1
    47   141   139   ar
    48    38    39    2
    49    38    37    1
    50    25    26    1
    51    37    36    1
    52    37    40    1
    53   145   144    2
    54    28    27    2
    55     2     1    1
    56     2     5    1
    57    27    26    1
    58   143   144    1
    59   143   146    1
    60   147   146    1
    61   147   148    1
    62   150   148   ar
    63    55    54    1
    64    26    29    1
    65    32    34   ar
    66    32    30   ar
    67    46    44    1
    68     5     6    1
    69    40    41    1
    70    29    30    1
    71   148   149   ar
    72    34    35   ar
    73     6     7    1
    74     6     8    1
    75    43    44    2
    76    43    42    1
    77    41    42    1
    78    30    31   ar
    79    54    53    1
    80   105   104    1
    81    44    45    1
    82    35    33   ar
    83    31    33   ar
    84   104   103   ar
    85   104   102   ar
    86   103   101   ar
    87    53    52    1
    88   102   100   ar
    89   101    99   ar
    90    52    51    1
    91   100    99   ar
    92    64    65   ar
    93    64    62   ar
    94    99    98    1
    95    65    63   ar
    96   112   113    1
    97   112   111    1
    98    73    72    1
    99    98    95    1
   100    62    61   ar
   101    50    49    2
   102    51    48    1
   103   111   110    1
   104    47    48    1
   105    92    91   ar
   106    63    61   ar
   107    72    71    1
   108    49    48    1
   109    49    56   am
   110    85    84    1
   111    61    60    1
   112    95    94    1
   113    95    96    1
   114    93    91   ar
   115    83    84   ar
   116    83    81   ar
   117    91    90    1
   118    56    57    1
   119    94    88   am
   120   110   107    1
   121    84    82   ar
   122    70    71    1
   123    70    67    1
   124    96    97    2
   125    81    79   ar
   126    60    57    1
   127   107   108    1
   128   107   106    1
   129    57    58    1
   130   108   109    2
   131    88    87    1
   132    88    89    2
   133    90    87    1
   134    87    86    1
   135    82    80   ar
   136    66    67    1
   137    67    68    1
   138    79    80   ar
   139    79    78    1
   140    58    59    2
   141    69    68    2
   142    78    75    1
   143    74    75    1
   144    75    76    1
   145    76    77    2
