@<TRIPOS>MOLECULE
tmp/5m6lA00.pdb
 135 133 0 0 0
SMALL
GASTEIGER

@<TRIPOS>ATOM
      1  N        -10.8280  -18.5720  -18.6170 N.3     1  MET1       -0.1245
      2  CA       -12.0500  -19.1290  -18.0290 C.3     1  MET1        0.1570
      3  C        -12.6380  -20.3150  -18.8430 C.2     1  MET1        0.2261
      4  O        -12.7860  -20.2120  -20.0750 O.2     1  MET1       -0.2867
      5  CB       -13.1060  -18.0270  -17.7770 C.3     1  MET1        0.0387
      6  CG       -13.1090  -17.5010  -16.3530 C.3     1  MET1        0.0595
      7  SD       -13.5110  -18.8180  -15.1780 S.3     1  MET1       -0.1393
      8  CE       -14.6010  -17.9090  -14.0170 C.3     1  MET1        0.0692
      9  N         -5.0850  -28.0420   -5.3310 N.3    45  LEU45      -0.1245
     10  CA        -4.1940  -27.5930   -6.3880 C.3    45  LEU45       0.1561
     11  C         -2.7890  -27.2820   -5.9220 C.2    45  LEU45       0.2260
     12  O         -1.9080  -27.1670   -6.7610 O.2    45  LEU45      -0.2867
     13  CB        -4.7860  -26.4150   -7.1610 C.3    45  LEU45       0.0270
     14  CG        -5.8360  -26.8260   -8.1750 C.3    45  LEU45       0.0019
     15  CD1       -6.7640  -25.7050   -8.4310 C.3    45  LEU45       0.0001
     16  CD2       -5.1980  -27.2630   -9.4800 C.3    45  LEU45       0.0001
     17  N         -7.1300  -23.4520   -2.7900 N.3    50  LYS50      -0.1231
     18  CA        -7.7590  -23.7330   -4.0880 C.3    50  LYS50       0.1693
     19  C         -8.0410  -25.2380   -4.2620 C.2    50  LYS50       0.2592
     20  O         -7.1190  -26.0720   -4.2540 O.2    50  LYS50      -0.2718
     21  CB        -6.8920  -23.2090   -5.2590 C.3    50  LYS50       0.0285
     22  CG        -6.9270  -21.7000   -5.4230 C.3    50  LYS50       0.0035
     23  CD        -6.3940  -21.2970   -6.7850 C.3    50  LYS50       0.0206
     24  CE        -6.3210  -19.8050   -6.9360 C.3    50  LYS50       0.1093
     25  NZ        -5.9160  -19.4470   -8.3140 N.3    50  LYS50      -0.1314
     26  N         -9.3290  -25.5780   -4.4100 N.am   51  VAL51      -0.1966
     27  CA        -9.7450  -26.9170   -4.8200 C.3    51  VAL51       0.1727
     28  C        -10.5190  -26.9090   -6.1370 C.2    51  VAL51       0.2616
     29  O        -11.1010  -25.8870   -6.4990 O.2    51  VAL51      -0.2715
     30  CB       -10.4880  -27.6850   -3.7200 C.3    51  VAL51       0.0290
     31  CG1       -9.5710  -27.9240   -2.5340 C.3    51  VAL51       0.0023
     32  CG2      -11.7880  -26.9890   -3.3230 C.3    51  VAL51       0.0023
     33  N        -10.5150  -28.0600   -6.8520 N.am   52  LYS52      -0.1977
     34  CA       -11.2200  -28.2370   -8.1170 C.3    52  LYS52       0.1596
     35  C        -11.9990  -29.5190   -7.9580 C.2    52  LYS52       0.2287
     36  O        -11.4480  -30.4830   -7.4190 O.2    52  LYS52      -0.2864
     37  CB       -10.1610  -28.4060   -9.2230 C.3    52  LYS52       0.0298
     38  CG       -10.5330  -27.9400  -10.6140 C.3    52  LYS52       0.0038
     39  CD        -9.3890  -27.1630  -11.1920 C.3    52  LYS52       0.0206
     40  CE        -9.7150  -26.5520  -12.5270 C.3    52  LYS52       0.1093
     41  NZ        -8.5850  -25.7100  -13.0260 N.3    52  LYS52      -0.1314
     42  N        -14.0130  -24.8530   -9.5580 N.3    59  GLY59      -0.1210
     43  CA       -12.9830  -24.3790   -8.6480 C.3    59  GLY59       0.1956
     44  C        -13.4650  -23.4440   -7.5650 C.2    59  GLY59       0.2612
     45  O        -14.2430  -22.5180   -7.8120 O.2    59  GLY59      -0.2717
     46  N        -12.9830  -23.6850   -6.3510 N.am   60  LEU60      -0.1965
     47  CA       -13.3290  -22.8890   -5.1870 C.3    60  LEU60       0.1728
     48  C        -12.0850  -22.5040   -4.4250 C.2    60  LEU60       0.2617
     49  O        -11.0580  -23.1770   -4.5480 O.2    60  LEU60      -0.2715
     50  CB       -14.3400  -23.6370   -4.2830 C.3    60  LEU60       0.0311
     51  CG       -15.6630  -24.0470   -4.9270 C.3    60  LEU60       0.0022
     52  CD1      -16.4160  -25.0200   -4.0480 C.3    60  LEU60       0.0001
     53  CD2      -16.5150  -22.8200   -5.2980 C.3    60  LEU60       0.0001
     54  N        -12.1780  -21.4030   -3.6450 N.am   61  THR61      -0.1937
     55  CA       -11.0620  -20.8470   -2.8580 C.3    61  THR61       0.2028
     56  C        -11.5590  -20.1500   -1.5850 C.2    61  THR61       0.2642
     57  O        -12.7630  -19.9630   -1.4010 O.2    61  THR61      -0.2714
     58  CB       -10.1800  -19.9410   -3.7530 C.3    61  THR61       0.1808
     59  OG1       -8.8790  -19.8270   -3.1870 O.3    61  THR61      -0.2208
     60  CG2      -10.7830  -18.5680   -3.9990 C.3    61  THR61       0.0379
     61  N        -10.6260  -19.7680   -0.7070 N.am   62  ASP62      -0.1957
     62  CA       -10.8750  -18.8880    0.4530 C.3    62  ASP62       0.1840
     63  C        -11.9800  -19.4310    1.3670 C.2    62  ASP62       0.2622
     64  O        -12.9420  -18.7320    1.6860 O.2    62  ASP62      -0.2715
     65  CB       -11.1270  -17.4180    0.0290 C.3    62  ASP62       0.1450
     66  CG       -10.0500  -16.7650   -0.8280 C.2    62  ASP62       0.3671
     67  OD1      -10.3250  -15.6870   -1.4090 O.co2  62  ASP62      -0.2456
     68  OD2       -8.9260  -17.3250   -0.9140 O.co2  62  ASP62      -0.2456
     69  N        -11.8120  -20.7050    1.7750 N.am   63  TRP63      -0.1960
     70  CA       -12.6790  -21.4650    2.6810 C.3    63  TRP63       0.1771
     71  C        -12.7320  -20.8320    4.0640 C.2    63  TRP63       0.2619
     72  O        -11.7490  -20.8690    4.7950 O.2    63  TRP63      -0.2715
     73  CB       -12.2020  -22.9340    2.7530 C.3    63  TRP63       0.0590
     74  CG       -12.3940  -23.6380    1.4510 C.ar   63  TRP63       0.0006
     75  CD1      -11.4960  -23.7310    0.4310 C.ar   63  TRP63       0.0946
     76  CD2      -13.5830  -24.3060    1.0030 C.ar   63  TRP63       0.0152
     77  NE1      -12.0370  -24.4360   -0.6170 N.ar   63  TRP63      -0.2442
     78  CE2      -13.3230  -24.7960   -0.2970 C.ar   63  TRP63       0.0810
     79  CE3      -14.8420  -24.5560    1.5860 C.ar   63  TRP63       0.0012
     80  CZ2      -14.2760  -25.5140   -1.0340 C.ar   63  TRP63       0.0191
     81  CZ3      -15.7850  -25.2520    0.8520 C.ar   63  TRP63       0.0001
     82  CH2      -15.5000  -25.7300   -0.4390 C.ar   63  TRP63       0.0015
     83  N        -13.8740  -20.2320    4.4140 N.am   64  LYS64      -0.1977
     84  CA       -14.1700  -19.7890    5.7810 C.3    64  LYS64       0.1596
     85  C        -14.6200  -21.0140    6.6040 C.2    64  LYS64       0.2287
     86  O        -15.1890  -21.9510    6.0210 O.2    64  LYS64      -0.2864
     87  CB       -15.2330  -18.6910    5.7790 C.3    64  LYS64       0.0298
     88  CG       -14.7400  -17.3870    5.1680 C.3    64  LYS64       0.0038
     89  CD       -15.8370  -16.7200    4.3360 C.3    64  LYS64       0.0206
     90  CE       -15.3860  -16.4820    2.9080 C.3    64  LYS64       0.1093
     91  NZ       -16.4990  -15.9850    2.0440 N.3    64  LYS64      -0.1314
     92  N        -18.0650  -22.4740    5.9610 N.3    67  GLU67      -0.1245
     93  CA       -18.4470  -22.8980    4.6170 C.3    67  GLU67       0.1567
     94  C        -18.3570  -24.3820    4.4530 C.2    67  GLU67       0.2260
     95  O        -17.3250  -24.9790    4.8030 O.2    67  GLU67      -0.2867
     96  CB       -17.6320  -22.1630    3.5550 C.3    67  GLU67       0.0388
     97  CG       -18.1280  -20.7440    3.3910 C.3    67  GLU67       0.1160
     98  CD       -17.2700  -19.8150    2.5680 C.2    67  GLU67       0.3649
     99  OE1      -16.0840  -20.1430    2.3070 O.co2  67  GLU67      -0.2457
    100  OE2      -17.7910  -18.7350    2.2030 O.co2  67  GLU67      -0.2457
    101  N        -21.1540  -25.3610   -0.9460 N.3    72  GLN72      -0.1245
    102  CA       -20.4090  -24.5330   -1.8840 C.3    72  GLN72       0.1566
    103  C        -20.3700  -25.1280   -3.2890 C.2    72  GLN72       0.2260
    104  O        -20.4860  -24.3920   -4.2840 O.2    72  GLN72      -0.2867
    105  CB       -19.0220  -24.2230   -1.3380 C.3    72  GLN72       0.0367
    106  CG       -19.0410  -23.3110   -0.1040 C.3    72  GLN72       0.0905
    107  CD       -19.6610  -21.9440   -0.3110 C.2    72  GLN72       0.2608
    108  OE1      -19.2680  -21.1680   -1.1870 O.2    72  GLN72      -0.2717
    109  NE2      -20.6510  -21.6230    0.5090 N.am   72  GLN72      -0.0878
    110  N        -22.0230  -22.9530   -6.4150 N.3    76  TRP76      -0.1227
    111  CA       -21.2750  -22.4570   -7.5430 C.3    76  TRP76       0.1737
    112  C        -21.3070  -23.3680   -8.7540 C.2    76  TRP76       0.2595
    113  O        -21.1500  -22.8960   -9.8820 O.2    76  TRP76      -0.2718
    114  CB       -19.8520  -22.1430   -7.0960 C.3    76  TRP76       0.0564
    115  CG       -19.8160  -21.0670   -6.0490 C.ar   76  TRP76       0.0003
    116  CD1      -19.6790  -21.2370   -4.6980 C.ar   76  TRP76       0.0946
    117  CD2      -20.0050  -19.6600   -6.2610 C.ar   76  TRP76       0.0152
    118  NE1      -19.7320  -20.0150   -4.0600 N.ar   76  TRP76      -0.2442
    119  CE2      -19.9260  -19.0280   -4.9960 C.ar   76  TRP76       0.0810
    120  CE3      -20.2200  -18.8660   -7.4010 C.ar   76  TRP76       0.0012
    121  CZ2      -20.0440  -17.6370   -4.8390 C.ar   76  TRP76       0.0191
    122  CZ3      -20.3180  -17.4810   -7.2430 C.ar   76  TRP76       0.0001
    123  CH2      -20.2440  -16.8840   -5.9740 C.ar   76  TRP76       0.0015
    124  N        -21.5230  -24.6760   -8.5380 N.am   77  TYR77      -0.1976
    125  CA       -21.5590  -25.6220   -9.6460 C.3    77  TYR77       0.1639
    126  C        -22.8050  -26.4650   -9.6420 C.2    77  TYR77       0.2290
    127  O        -22.6980  -27.6910   -9.5800 O.2    77  TYR77      -0.2864
    128  CB       -20.2710  -26.4540   -9.6870 C.3    77  TYR77       0.0560
    129  CG       -19.1100  -25.5020   -9.7460 C.ar   77  TYR77      -0.0198
    130  CD1      -18.4020  -25.1650   -8.5900 C.ar   77  TYR77      -0.0009
    131  CD2      -18.7760  -24.8510  -10.9360 C.ar   77  TYR77      -0.0009
    132  CE1      -17.3660  -24.2400   -8.6290 C.ar   77  TYR77       0.0417
    133  CE2      -17.7360  -23.9280  -10.9880 C.ar   77  TYR77       0.0417
    134  CZ       -17.0360  -23.6240   -9.8300 C.ar   77  TYR77       0.1957
    135  OH       -16.0150  -22.7170   -9.8660 O.3    77  TYR77      -0.2866
@<TRIPOS>BOND
     1     4     3    2
     2     3     2    1
     3     1     2    1
     4     2     5    1
     5     5     6    1
     6     6     7    1
     7     7     8    1
     8    41    40    1
     9    40    39    1
    10    39    38    1
    11   133   131   ar
    12   133   134   ar
    13   131   129   ar
    14    38    37    1
    15   113   112    2
    16   135   134    1
    17   134   132   ar
    18   129   128    1
    19   129   130   ar
    20   128   125    1
    21   125   126    1
    22   125   124    1
    23   126   127    2
    24    42    43    1
    25    16    14    1
    26    37    34    1
    27   112   124   am
    28   112   111    1
    29    43    44    1
    30   132   130   ar
    31    15    14    1
    32    25    24    1
    33    14    13    1
    34    34    35    1
    35    34    33    1
    36    35    36    2
    37    45    44    2
    38    44    46   am
    39   111   114    1
    40   111   110    1
    41   120   122   ar
    42   120   117   ar
    43   122   123   ar
    44    13    10    1
    45   114   115    1
    46    24    23    1
    47    33    28   am
    48    23    22    1
    49    12    11    2
    50    29    28    2
    51    10    11    1
    52    10     9    1
    53    46    47    1
    54   117   115   ar
    55   117   119   ar
    56    28    27    1
    57   115   116   ar
    58   123   121   ar
    59    22    21    1
    60    53    51    1
    61    21    18    1
    62    47    48    1
    63    47    50    1
    64   119   121   ar
    65   119   118   ar
    66    51    50    1
    67    51    52    1
    68    27    26    1
    69    27    30    1
    70   116   118   ar
    71    49    48    2
    72    48    54   am
    73    26    19   am
    74   104   103    2
    75    19    20    2
    76    19    18    1
    77    18    17    1
    78    60    58    1
    79    58    59    1
    80    58    55    1
    81    30    32    1
    82    30    31    1
    83    54    55    1
    84   103   102    1
    85    55    56    1
    86   102   105    1
    87   102   101    1
    88    56    57    2
    89    56    61   am
    90    67    66   ar
    91   105   106    1
    92   108   107    2
    93    80    82   ar
    94    80    78   ar
    95    68    66   ar
    96    66    65    1
    97    61    62    1
    98    77    78   ar
    99    77    75   ar
   100    82    81   ar
   101   107   106    1
   102   107   109   am
   103    78    76   ar
   104    65    62    1
   105    75    74   ar
   106    62    63    1
   107    81    79   ar
   108    76    74   ar
   109    76    79   ar
   110    63    64    2
   111    63    69   am
   112    74    73    1
   113    69    70    1
   114    91    90    1
   115   100    98   ar
   116    99    98   ar
   117    98    97    1
   118    70    73    1
   119    70    71    1
   120    90    89    1
   121    97    96    1
   122    96    93    1
   123    71    83   am
   124    71    72    2
   125    89    88    1
   126    83    84    1
   127    94    93    1
   128    94    95    2
   129    93    92    1
   130    88    87    1
   131    87    84    1
   132    84    85    1
   133    86    85    2
