@<TRIPOS>MOLECULE
tmp/5m6mA00.pdb
 135 133 0 0 0
SMALL
GASTEIGER

@<TRIPOS>ATOM
      1  N        -13.5630  -19.8440  -14.9040 N.3     1  MET1       -0.1245
      2  CA       -13.2830  -19.0760  -16.1160 C.3     1  MET1        0.1570
      3  C        -13.5240  -19.8770  -17.4230 C.2     1  MET1        0.2261
      4  O        -13.9860  -19.2870  -18.4080 O.2     1  MET1       -0.2867
      5  CB       -11.8630  -18.4790  -16.0860 C.3     1  MET1        0.0387
      6  CG       -11.6450  -17.4400  -14.9730 C.3     1  MET1        0.0595
      7  SD       -12.4060  -15.8000  -15.2490 S.3     1  MET1       -0.1393
      8  CE       -11.3730  -14.7880  -14.1630 C.3     1  MET1        0.0692
      9  N         -5.2300  -27.9460   -5.4550 N.3    45  LEU45      -0.1245
     10  CA        -4.3290  -27.4950   -6.5240 C.3    45  LEU45       0.1561
     11  C         -2.8530  -27.2140   -6.0670 C.2    45  LEU45       0.2260
     12  O         -1.9670  -27.0960   -6.9220 O.2    45  LEU45      -0.2867
     13  CB        -4.9310  -26.2810   -7.2510 C.3    45  LEU45       0.0270
     14  CG        -6.2990  -26.4970   -7.9550 C.3    45  LEU45       0.0019
     15  CD1       -6.5610  -25.3990   -8.9050 C.3    45  LEU45       0.0001
     16  CD2       -6.3660  -27.8310   -8.6980 C.3    45  LEU45       0.0001
     17  N         -7.0800  -23.4890   -2.7710 N.3    50  LYS50      -0.1231
     18  CA        -7.7300  -23.7000   -4.0690 C.3    50  LYS50       0.1693
     19  C         -7.9250  -25.1840   -4.2800 C.2    50  LYS50       0.2592
     20  O         -6.9770  -25.9790   -4.1600 O.2    50  LYS50      -0.2718
     21  CB        -6.9200  -23.1160   -5.2470 C.3    50  LYS50       0.0285
     22  CG        -7.0410  -21.6130   -5.4230 C.3    50  LYS50       0.0035
     23  CD        -6.4000  -21.2700   -6.7420 C.3    50  LYS50       0.0206
     24  CE        -6.3480  -19.8020   -7.0140 C.3    50  LYS50       0.1093
     25  NZ        -5.7900  -19.5420   -8.3710 N.3    50  LYS50      -0.1314
     26  N         -9.1770  -25.5420   -4.5790 N.am   51  VAL51      -0.1966
     27  CA        -9.6140  -26.9060   -4.8700 C.3    51  VAL51       0.1727
     28  C        -10.3710  -26.8610   -6.1890 C.2    51  VAL51       0.2616
     29  O        -10.8890  -25.7950   -6.5590 O.2    51  VAL51      -0.2715
     30  CB       -10.4620  -27.5080   -3.7230 C.3    51  VAL51       0.0290
     31  CG1       -9.6330  -27.6230   -2.4450 C.3    51  VAL51       0.0023
     32  CG2      -11.7410  -26.7100   -3.4760 C.3    51  VAL51       0.0023
     33  N        -10.4210  -27.9850   -6.8960 N.am   52  LYS52      -0.1977
     34  CA       -11.2430  -28.1410   -8.0940 C.3    52  LYS52       0.1596
     35  C        -11.9630  -29.4490   -7.9210 C.2    52  LYS52       0.2287
     36  O        -11.4060  -30.4000   -7.3400 O.2    52  LYS52      -0.2864
     37  CB       -10.3850  -28.2620   -9.3620 C.3    52  LYS52       0.0298
     38  CG       -10.2230  -27.0250  -10.2160 C.3    52  LYS52       0.0038
     39  CD        -9.3080  -27.3710  -11.3920 C.3    52  LYS52       0.0206
     40  CE        -9.6690  -26.6790  -12.6830 C.3    52  LYS52       0.1093
     41  NZ        -9.2380  -25.2540  -12.6780 N.3    52  LYS52      -0.1314
     42  N        -13.7820  -24.7450   -9.5940 N.3    59  GLY59      -0.1210
     43  CA       -12.7970  -24.2840   -8.6300 C.3    59  GLY59       0.1956
     44  C        -13.3450  -23.3600   -7.5690 C.2    59  GLY59       0.2612
     45  O        -14.1800  -22.4880   -7.8490 O.2    59  GLY59      -0.2717
     46  N        -12.8640  -23.5500   -6.3290 N.am   60  LEU60      -0.1965
     47  CA       -13.2410  -22.7360   -5.1660 C.3    60  LEU60       0.1728
     48  C        -12.0390  -22.4060   -4.3250 C.2    60  LEU60       0.2617
     49  O        -11.0740  -23.1790   -4.2890 O.2    60  LEU60      -0.2715
     50  CB       -14.2910  -23.4580   -4.3050 C.3    60  LEU60       0.0311
     51  CG       -15.6490  -23.7560   -4.9670 C.3    60  LEU60       0.0022
     52  CD1      -16.4610  -24.7160   -4.1040 C.3    60  LEU60       0.0001
     53  CD2      -16.4150  -22.4540   -5.2740 C.3    60  LEU60       0.0001
     54  N        -12.0950  -21.2500   -3.6370 N.am   61  THR61      -0.1937
     55  CA       -10.9850  -20.8120   -2.8080 C.3    61  THR61       0.2028
     56  C        -11.4920  -20.1320   -1.5520 C.2    61  THR61       0.2642
     57  O        -12.6880  -19.9310   -1.4100 O.2    61  THR61      -0.2714
     58  CB        -9.9820  -19.9810   -3.6360 C.3    61  THR61       0.1808
     59  OG1       -8.7370  -19.9920   -2.9550 O.3    61  THR61      -0.2208
     60  CG2      -10.4390  -18.5380   -3.8790 C.3    61  THR61       0.0379
     61  N        -10.5810  -19.7830   -0.6360 N.am   62  ASP62      -0.1957
     62  CA       -10.8440  -18.9270    0.5400 C.3    62  ASP62       0.1840
     63  C        -11.9300  -19.5060    1.4280 C.2    62  ASP62       0.2622
     64  O        -12.9570  -18.8800    1.6710 O.2    62  ASP62      -0.2715
     65  CB       -11.1280  -17.4460    0.1530 C.3    62  ASP62       0.1450
     66  CG       -10.0940  -16.7230   -0.7100 C.2    62  ASP62       0.3671
     67  OD1      -10.4200  -15.6270   -1.2370 O.co2  62  ASP62      -0.2456
     68  OD2       -8.9530  -17.2380   -0.8450 O.co2  62  ASP62      -0.2456
     69  N        -11.6840  -20.7340    1.9050 N.am   63  TRP63      -0.1960
     70  CA       -12.5990  -21.4900    2.7450 C.3    63  TRP63       0.1771
     71  C        -12.6800  -20.9290    4.1580 C.2    63  TRP63       0.2619
     72  O        -11.7170  -21.0020    4.9230 O.2    63  TRP63      -0.2715
     73  CB       -12.1990  -22.9720    2.7480 C.3    63  TRP63       0.0590
     74  CG       -12.4010  -23.6250    1.4180 C.ar   63  TRP63       0.0006
     75  CD1      -11.4970  -23.7230    0.3990 C.ar   63  TRP63       0.0946
     76  CD2      -13.5910  -24.2720    0.9640 C.ar   63  TRP63       0.0152
     77  NE1      -12.0600  -24.3690   -0.6740 N.ar   63  TRP63      -0.2442
     78  CE2      -13.3450  -24.7250   -0.3520 C.ar   63  TRP63       0.0810
     79  CE3      -14.8530  -24.5070    1.5440 C.ar   63  TRP63       0.0012
     80  CZ2      -14.3110  -25.3920   -1.0990 C.ar   63  TRP63       0.0191
     81  CZ3      -15.8060  -25.1510    0.7950 C.ar   63  TRP63       0.0001
     82  CH2      -15.5240  -25.6100   -0.5020 C.ar   63  TRP63       0.0015
     83  N        -13.8410  -20.3610    4.4970 N.am   64  LYS64      -0.1977
     84  CA       -14.1500  -19.9220    5.8610 C.3    64  LYS64       0.1596
     85  C        -14.5850  -21.1480    6.6880 C.2    64  LYS64       0.2287
     86  O        -15.0090  -22.1470    6.0830 O.2    64  LYS64      -0.2864
     87  CB       -15.1970  -18.7990    5.8580 C.3    64  LYS64       0.0298
     88  CG       -14.7220  -17.5270    5.1490 C.3    64  LYS64       0.0038
     89  CD       -15.8130  -17.0120    4.2020 C.3    64  LYS64       0.0206
     90  CE       -15.4850  -15.7310    3.4720 C.3    64  LYS64       0.1093
     91  NZ       -15.9410  -14.5330    4.2380 N.3    64  LYS64      -0.1314
     92  N        -18.0970  -22.4500    5.9470 N.3    67  GLU67      -0.1245
     93  CA       -18.4230  -22.8710    4.5890 C.3    67  GLU67       0.1567
     94  C        -18.3180  -24.3800    4.4210 C.2    67  GLU67       0.2260
     95  O        -17.2750  -24.9710    4.7120 O.2    67  GLU67      -0.2867
     96  CB       -17.5910  -22.1090    3.5490 C.3    67  GLU67       0.0388
     97  CG       -17.9200  -20.6290    3.5400 C.3    67  GLU67       0.1160
     98  CD       -17.1050  -19.7760    2.5980 C.2    67  GLU67       0.3649
     99  OE1      -15.8920  -20.0480    2.4280 O.co2  67  GLU67      -0.2457
    100  OE2      -17.6640  -18.7770    2.0900 O.co2  67  GLU67      -0.2457
    101  N        -21.0960  -25.3090   -0.9920 N.3    72  GLN72      -0.1245
    102  CA       -20.3810  -24.4700   -1.9240 C.3    72  GLN72       0.1566
    103  C        -20.3400  -25.0710   -3.2980 C.2    72  GLN72       0.2260
    104  O        -20.4370  -24.3310   -4.2850 O.2    72  GLN72      -0.2867
    105  CB       -18.9790  -24.1520   -1.3800 C.3    72  GLN72       0.0367
    106  CG       -19.0390  -23.3950   -0.0280 C.3    72  GLN72       0.0905
    107  CD       -19.6370  -22.0120   -0.1500 C.2    72  GLN72       0.2608
    108  OE1      -19.2420  -21.2270   -0.9980 O.2    72  GLN72      -0.2717
    109  NE2      -20.6330  -21.6970    0.6750 N.am   72  GLN72      -0.0878
    110  N        -22.0130  -22.8450   -6.4080 N.3    76  TRP76      -0.1227
    111  CA       -21.2160  -22.3370   -7.4900 C.3    76  TRP76       0.1737
    112  C        -21.2030  -23.2230   -8.7260 C.2    76  TRP76       0.2595
    113  O        -20.9590  -22.7190   -9.8470 O.2    76  TRP76      -0.2718
    114  CB       -19.7880  -22.1020   -6.9630 C.3    76  TRP76       0.0564
    115  CG       -19.7590  -21.0050   -5.9360 C.ar   76  TRP76       0.0003
    116  CD1      -19.6770  -21.1430   -4.5730 C.ar   76  TRP76       0.0946
    117  CD2      -19.8920  -19.6000   -6.1940 C.ar   76  TRP76       0.0152
    118  NE1      -19.7170  -19.9070   -3.9730 N.ar   76  TRP76      -0.2442
    119  CE2      -19.8510  -18.9390   -4.9460 C.ar   76  TRP76       0.0810
    120  CE3      -20.0370  -18.8350   -7.3680 C.ar   76  TRP76       0.0012
    121  CZ2      -19.9340  -17.5440   -4.8340 C.ar   76  TRP76       0.0191
    122  CZ3      -20.1090  -17.4510   -7.2550 C.ar   76  TRP76       0.0001
    123  CH2      -20.0700  -16.8210   -6.0000 C.ar   76  TRP76       0.0015
    124  N        -21.4500  -24.5570   -8.5260 N.am   77  TYR77      -0.1976
    125  CA       -21.4850  -25.5240   -9.6260 C.3    77  TYR77       0.1639
    126  C        -22.7330  -26.3630   -9.6380 C.2    77  TYR77       0.2290
    127  O        -22.6180  -27.5840   -9.6030 O.2    77  TYR77      -0.2864
    128  CB       -20.2090  -26.3820   -9.6450 C.3    77  TYR77       0.0560
    129  CG       -19.0490  -25.4360   -9.6940 C.ar   77  TYR77      -0.0198
    130  CD1      -18.3090  -25.1470   -8.5460 C.ar   77  TYR77      -0.0009
    131  CD2      -18.7490  -24.7340  -10.8630 C.ar   77  TYR77      -0.0009
    132  CE1      -17.2870  -24.1980   -8.5730 C.ar   77  TYR77       0.0417
    133  CE2      -17.7240  -23.7930  -10.9020 C.ar   77  TYR77       0.0417
    134  CZ       -16.9940  -23.5340   -9.7590 C.ar   77  TYR77       0.1957
    135  OH       -15.9920  -22.6160   -9.8320 O.3    77  TYR77      -0.2866
@<TRIPOS>BOND
     1     4     3    2
     2     3     2    1
     3     2     5    1
     4     2     1    1
     5     5     6    1
     6     7     6    1
     7     7     8    1
     8    40    41    1
     9    40    39    1
    10    39    38    1
    11   133   131   ar
    12   133   134   ar
    13   131   129   ar
    14    38    37    1
    15   113   112    2
    16   135   134    1
    17   134   132   ar
    18   129   128    1
    19   129   130   ar
    20   128   125    1
    21   126   125    1
    22   126   127    2
    23   125   124    1
    24    42    43    1
    25    37    34    1
    26    15    14    1
    27   112   124   am
    28   112   111    1
    29    16    14    1
    30    43    44    1
    31   132   130   ar
    32    25    24    1
    33    34    35    1
    34    34    33    1
    35    14    13    1
    36    35    36    2
    37    45    44    2
    38    44    46   am
    39   111   114    1
    40   111   110    1
    41   120   122   ar
    42   120   117   ar
    43   122   123   ar
    44    13    10    1
    45    24    23    1
    46   114   115    1
    47    12    11    2
    48    33    28   am
    49    23    22    1
    50    29    28    2
    51    10    11    1
    52    10     9    1
    53    46    47    1
    54   117   115   ar
    55   117   119   ar
    56    28    27    1
    57   123   121   ar
    58   115   116   ar
    59    22    21    1
    60    53    51    1
    61    21    18    1
    62    47    48    1
    63    47    50    1
    64    51    50    1
    65    51    52    1
    66   119   121   ar
    67   119   118   ar
    68    27    26    1
    69    27    30    1
    70    26    19   am
    71   116   118   ar
    72    48    49    2
    73    48    54   am
    74   104   103    2
    75    19    20    2
    76    19    18    1
    77    18    17    1
    78    60    58    1
    79    30    32    1
    80    30    31    1
    81    54    55    1
    82    58    59    1
    83    58    55    1
    84   103   102    1
    85    55    56    1
    86   102   105    1
    87   102   101    1
    88    56    57    2
    89    56    61   am
    90   105   106    1
    91    67    66   ar
    92    80    82   ar
    93    80    78   ar
    94   108   107    2
    95    68    66   ar
    96    66    65    1
    97    77    78   ar
    98    77    75   ar
    99    61    62    1
   100    82    81   ar
   101    78    76   ar
   102   107   106    1
   103   107   109   am
   104    65    62    1
   105    75    74   ar
   106    62    63    1
   107    81    79   ar
   108    76    74   ar
   109    76    79   ar
   110    74    73    1
   111    63    64    2
   112    63    69   am
   113    69    70    1
   114   100    98   ar
   115    99    98   ar
   116    98    97    1
   117    70    73    1
   118    70    71    1
   119    90    89    1
   120    90    91    1
   121    97    96    1
   122    96    93    1
   123    71    83   am
   124    71    72    2
   125    89    88    1
   126    94    93    1
   127    94    95    2
   128    83    84    1
   129    93    92    1
   130    88    87    1
   131    87    84    1
   132    84    85    1
   133    86    85    2
