@<TRIPOS>MOLECULE
tmp/5m6nB00.pdb
 144 141 0 0 0
SMALL
GASTEIGER

@<TRIPOS>ATOM
      1  N         -5.3730  -12.0620   26.1240 N.3    34  VAL34      -0.1245
      2  CA        -6.6200  -12.1280   25.3410 C.3    34  VAL34       0.1561
      3  C         -6.8880  -10.8450   24.4900 C.2    34  VAL34       0.2260
      4  O         -7.8900  -10.7730   23.8040 O.2    34  VAL34      -0.2867
      5  CB        -7.8600  -12.5190   26.2230 C.3    34  VAL34       0.0252
      6  CG1       -7.5820  -13.7830   27.0370 C.3    34  VAL34       0.0019
      7  CG2       -8.2800  -11.3740   27.1340 C.3    34  VAL34       0.0019
      8  N         -7.3600   -7.6130   25.4460 N.3    36  ARG36      -0.1245
      9  CA        -8.2190   -6.6230   26.1150 C.3    36  ARG36       0.1563
     10  C         -7.5980   -6.2650   27.4590 C.2    36  ARG36       0.2260
     11  O         -7.1890   -7.1690   28.1970 O.2    36  ARG36      -0.2867
     12  CB        -9.6210   -7.2130   26.3290 C.3    36  ARG36       0.0307
     13  CG       -10.4180   -7.3860   25.0280 C.3    36  ARG36       0.0489
     14  CD       -11.7990   -7.9780   25.3020 C.3    36  ARG36       0.2205
     15  NE       -11.6990   -9.2840   25.9650 N.pl3  36  ARG36      -0.0865
     16  CZ       -11.5020  -10.4340   25.3330 C.cat  36  ARG36       0.5346
     17  NH1      -11.3900  -10.4620   24.0110 N.pl3  36  ARG36       0.1354
     18  NH2      -11.4200  -11.5640   26.0160 N.pl3  36  ARG36       0.1354
     19  N         -5.8740   -8.4380   30.5750 N.3    39  ASP39      -0.1225
     20  CA        -6.5500   -9.7180   30.8390 C.3    39  ASP39       0.1805
     21  C         -5.7430  -10.8820   30.2410 C.2    39  ASP39       0.2598
     22  O         -5.4540  -10.9120   29.0430 O.2    39  ASP39      -0.2718
     23  CB        -7.9110   -9.7250   30.1960 C.3    39  ASP39       0.1424
     24  CG        -8.8970   -8.7760   30.7990 C.2    39  ASP39       0.3668
     25  OD1       -8.5700   -8.1550   31.8260 O.co2  39  ASP39      -0.2456
     26  OD2      -10.0270   -8.7810   30.3610 O.co2  39  ASP39      -0.2456
     27  N         -5.3760  -11.8150   31.0810 N.am   40  VAL40      -0.1966
     28  CA        -4.6470  -13.0110   30.6500 C.3    40  VAL40       0.1727
     29  C         -5.4450  -14.2740   31.0390 C.2    40  VAL40       0.2616
     30  O         -6.2420  -14.2230   31.9650 O.2    40  VAL40      -0.2715
     31  CB        -3.1870  -13.0520   31.1970 C.3    40  VAL40       0.0290
     32  CG1       -2.3890  -11.7840   30.7710 C.3    40  VAL40       0.0023
     33  CG2       -3.1610  -13.2400   32.7240 C.3    40  VAL40       0.0023
     34  N         -5.2260  -15.3820   30.3240 N.am   41  LYS41      -0.1977
     35  CA        -5.8350  -16.6960   30.6370 C.3    41  LYS41       0.1596
     36  C         -4.7420  -17.7440   30.6370 C.2    41  LYS41       0.2287
     37  O         -3.7790  -17.6320   29.8740 O.2    41  LYS41      -0.2864
     38  CB        -6.9140  -17.1180   29.6060 C.3    41  LYS41       0.0298
     39  CG        -8.1720  -16.2480   29.7970 C.3    41  LYS41       0.0038
     40  CD        -9.4140  -16.6750   29.0450 C.3    41  LYS41       0.0206
     41  CE       -10.1590  -17.8200   29.6760 C.3    41  LYS41       0.1093
     42  NZ       -11.1140  -17.4890   30.7830 N.3    41  LYS41      -0.1314
     43  N         -8.7190  -16.9770   34.4500 N.3    48  GLY48      -0.1210
     44  CA        -8.4610  -15.5970   34.0380 C.3    48  GLY48       0.1956
     45  C         -7.9660  -14.7000   35.1450 C.2    48  GLY48       0.2612
     46  O         -8.4720  -14.7690   36.2650 O.2    48  GLY48      -0.2717
     47  N         -6.9640  -13.8300   34.8460 N.am   49  LEU49      -0.1965
     48  CA        -6.4630  -12.8410   35.8020 C.3    49  LEU49       0.1728
     49  C         -6.2680  -11.4710   35.1330 C.2    49  LEU49       0.2616
     50  O         -5.9520  -11.4040   33.9400 O.2    49  LEU49      -0.2715
     51  CB        -5.1050  -13.2710   36.4500 C.3    49  LEU49       0.0311
     52  CG        -5.0630  -14.6300   37.1870 C.3    49  LEU49       0.0022
     53  CD1       -3.6200  -14.9820   37.5800 C.3    49  LEU49       0.0001
     54  CD2       -5.9620  -14.6420   38.4520 C.3    49  LEU49       0.0001
     55  N         -6.4650  -10.3980   35.9110 N.am   50  ARG50      -0.1963
     56  CA        -6.2650   -9.0210   35.4620 C.3    50  ARG50       0.1729
     57  C         -5.7670   -8.1290   36.5810 C.2    50  ARG50       0.2616
     58  O         -5.5440   -8.6090   37.6820 O.2    50  ARG50      -0.2715
     59  CB        -7.5580   -8.4420   34.8310 C.3    50  ARG50       0.0348
     60  CG        -8.7430   -8.3170   35.8000 C.3    50  ARG50       0.0492
     61  CD        -9.7850   -7.3540   35.2230 C.3    50  ARG50       0.2205
     62  NE       -10.3420   -7.8330   33.9580 N.pl3  50  ARG50      -0.0865
     63  CZ       -11.6320   -8.0170   33.7140 C.cat  50  ARG50       0.5346
     64  NH1      -12.5400   -7.7430   34.6490 N.pl3  50  ARG50       0.1354
     65  NH2      -12.0310   -8.4480   32.5280 N.pl3  50  ARG50       0.1354
     66  N         -5.5900   -6.8090   36.2930 N.am   51  CYS51      -0.1954
     67  CA        -5.2000   -5.7830   37.2830 C.3    51  CYS51       0.1843
     68  C         -3.8680   -6.1650   37.9310 C.2    51  CYS51       0.2625
     69  O         -3.7390   -6.2120   39.1510 O.2    51  CYS51      -0.2714
     70  CB        -6.3040   -5.5470   38.3170 C.3    51  CYS51       0.0997
     71  SG        -7.8960   -5.0650   37.6040 S.3    51  CYS51      -0.0797
     72  N         -2.8780   -6.4510   37.0850 N.am   52  TRP52      -0.1960
     73  CA        -1.5210   -6.7780   37.5140 C.3    52  TRP52       0.1771
     74  C         -0.8580   -5.5500   38.1170 C.2    52  TRP52       0.2619
     75  O         -0.9860   -4.4350   37.5830 O.2    52  TRP52      -0.2715
     76  CB        -0.7170   -7.3490   36.3340 C.3    52  TRP52       0.0590
     77  CG        -1.2770   -8.6710   35.8510 C.ar   52  TRP52       0.0006
     78  CD1       -2.2220   -8.8660   34.8740 C.ar   52  TRP52       0.0946
     79  CD2       -0.9410   -9.9700   36.3480 C.ar   52  TRP52       0.0152
     80  NE1       -2.4820  -10.2130   34.7210 N.ar   52  TRP52      -0.2442
     81  CE2       -1.6960  -10.9180   35.6030 C.ar   52  TRP52       0.0810
     82  CE3       -0.0540  -10.4300   37.3350 C.ar   52  TRP52       0.0012
     83  CZ2       -1.6350  -12.2910   35.8580 C.ar   52  TRP52       0.0191
     84  CZ3        0.0170  -11.7820   37.5760 C.ar   52  TRP52       0.0001
     85  CH2       -0.7510  -12.7070   36.8350 C.ar   52  TRP52       0.0015
     86  N         -0.1710   -5.7440   39.2440 N.am   53  GLU53      -0.1977
     87  CA         0.4410   -4.6710   40.0140 C.3    53  GLU53       0.1602
     88  C          1.9310   -4.9440   40.1090 C.2    53  GLU53       0.2287
     89  O          2.3570   -6.0950   40.0150 O.2    53  GLU53      -0.2864
     90  CB        -0.1610   -4.6210   41.4350 C.3    53  GLU53       0.0415
     91  CG        -1.6700   -4.3810   41.4670 C.3    53  GLU53       0.1163
     92  CD        -2.2350   -4.2600   42.8680 C.2    53  GLU53       0.3649
     93  OE1       -2.8550   -5.2330   43.3590 O.co2  53  GLU53      -0.2457
     94  OE2       -2.0620   -3.1760   43.4740 O.co2  53  GLU53      -0.2457
     95  N          3.8590   -8.2580   41.4700 N.3    56  ASP56      -0.1239
     96  CA         3.0340   -9.4890   41.3840 C.3    56  ASP56       0.1674
     97  C          3.8380  -10.6070   40.7550 C.2    56  ASP56       0.2266
     98  O          4.6320  -10.3770   39.8210 O.2    56  ASP56      -0.2867
     99  CB         1.7610   -9.2750   40.5540 C.3    56  ASP56       0.1410
    100  CG         0.6420   -8.5190   41.2480 C.2    56  ASP56       0.3668
    101  OD1        0.7670   -8.2350   42.4700 O.co2  56  ASP56      -0.2456
    102  OD2       -0.3530   -8.2120   40.5880 O.co2  56  ASP56      -0.2456
    103  N          0.1000  -15.9350   41.8490 N.3    61  GLU61      -0.1245
    104  CA        -1.2970  -15.6580   41.4430 C.3    61  GLU61       0.1567
    105  C         -1.9630  -16.9400   40.8670 C.2    61  GLU61       0.2260
    106  O         -3.1260  -17.2360   41.1850 O.2    61  GLU61      -0.2867
    107  CB        -1.3090  -14.5090   40.4210 C.3    61  GLU61       0.0388
    108  CG        -0.8150  -13.1760   40.9710 C.3    61  GLU61       0.1160
    109  CD        -1.5990  -12.6330   42.1570 C.2    61  GLU61       0.3649
    110  OE1       -2.8450  -12.7650   42.1980 O.co2  61  GLU61      -0.2457
    111  OE2       -0.9300  -12.2170   43.1240 O.co2  61  GLU61      -0.2457
    112  N         -5.2730  -18.7730   42.9130 N.3    65  TRP65      -0.1227
    113  CA        -6.6100  -18.7680   42.3190 C.3    65  TRP65       0.1737
    114  C         -6.9750  -20.1120   41.6720 C.2    65  TRP65       0.2595
    115  O         -8.1420  -20.5290   41.7270 O.2    65  TRP65      -0.2718
    116  CB        -6.7120  -17.6070   41.3110 C.3    65  TRP65       0.0564
    117  CG        -6.6800  -16.2640   41.9770 C.ar   65  TRP65       0.0003
    118  CD1       -5.6570  -15.3570   41.9770 C.ar   65  TRP65       0.0946
    119  CD2       -7.7320  -15.6920   42.7600 C.ar   65  TRP65       0.0152
    120  NE1       -6.0110  -14.2480   42.7050 N.ar   65  TRP65      -0.2442
    121  CE2       -7.2790  -14.4280   43.2060 C.ar   65  TRP65       0.0810
    122  CE3       -9.0210  -16.1290   43.1330 C.ar   65  TRP65       0.0012
    123  CZ2       -8.0840  -13.5790   43.9950 C.ar   65  TRP65       0.0191
    124  CZ3       -9.8150  -15.2910   43.9270 C.ar   65  TRP65       0.0001
    125  CH2       -9.3440  -14.0350   44.3530 C.ar   65  TRP65       0.0015
    126  N         -5.9970  -20.7900   41.0870 N.am   66  PHE66      -0.1976
    127  CA        -6.2550  -21.9950   40.2630 C.3    66  PHE66       0.1639
    128  C         -5.4050  -23.1830   40.7390 C.2    66  PHE66       0.2290
    129  O         -4.6630  -23.7500   39.9280 O.2    66  PHE66      -0.2864
    130  CB        -6.0030  -21.7180   38.7700 C.3    66  PHE66       0.0560
    131  CG        -6.5400  -20.3630   38.3170 C.ar   66  PHE66      -0.0200
    132  CD1       -7.8800  -20.0370   38.4860 C.ar   66  PHE66      -0.0042
    133  CD2       -5.6840  -19.3990   37.7730 C.ar   66  PHE66      -0.0042
    134  CE1       -8.3640  -18.7880   38.1300 C.ar   66  PHE66      -0.0003
    135  CE2       -6.1810  -18.1330   37.3960 C.ar   66  PHE66      -0.0003
    136  CZ        -7.5090  -17.8490   37.5640 C.ar   66  PHE66      -0.0000
    137  N         -9.6930  -16.0560   50.4770 N.3    91  LEU91      -0.1245
    138  CA        -9.5890  -15.0480   49.4060 C.3    91  LEU91       0.1561
    139  C        -10.9780  -14.5280   49.0080 C.2    91  LEU91       0.2260
    140  O        -11.0640  -13.4820   48.3680 O.2    91  LEU91      -0.2867
    141  CB        -8.9060  -15.6320   48.1530 C.3    91  LEU91       0.0270
    142  CG        -7.3930  -15.7590   48.1630 C.3    91  LEU91       0.0019
    143  CD1       -6.9580  -16.8610   47.2330 C.3    91  LEU91       0.0001
    144  CD2       -6.7140  -14.4460   47.7720 C.3    91  LEU91       0.0001
@<TRIPOS>BOND
     1     4     3    2
     2    17    16    1
     3     3     2    1
     4    13    14    1
     5    13    12    1
     6    14    15    1
     7    16    15    2
     8    16    18    1
     9     2     1    1
    10     2     5    1
    11     8     9    1
    12     9    12    1
    13     9    10    1
    14     5     6    1
    15     5     7    1
    16    10    11    2
    17    22    21    2
    18    40    41    1
    19    40    39    1
    20    38    39    1
    21    38    35    1
    22    41    42    1
    23    37    36    2
    24    23    24    1
    25    23    20    1
    26    21    20    1
    27    21    27   am
    28    34    35    1
    29    34    29   am
    30    26    24   ar
    31    19    20    1
    32    35    36    1
    33    28    29    1
    34    28    27    1
    35    28    31    1
    36    32    31    1
    37    24    25   ar
    38    29    30    2
    39    31    33    1
    40    65    63    1
    41    63    62    2
    42    63    64    1
    43    50    49    2
    44    62    61    1
    45    44    43    1
    46    44    45    1
    47    80    78   ar
    48    80    81   ar
    49    59    56    1
    50    59    60    1
    51    47    45   am
    52    47    48    1
    53    78    77   ar
    54    49    48    1
    55    49    55   am
    56    45    46    2
    57    61    60    1
    58    56    55    1
    59    56    57    1
    60    81    83   ar
    61    81    79   ar
    62    48    51    1
    63    77    76    1
    64    77    79   ar
    65    83    85   ar
    66    66    57   am
    67    66    67    1
    68    76    73    1
    69    79    82   ar
    70    51    52    1
    71    57    58    2
    72    85    84   ar
    73    72    73    1
    74    72    68   am
    75    52    53    1
    76    52    54    1
    77    67    68    1
    78    67    70    1
    79    82    84   ar
    80   135   136   ar
    81   135   133   ar
    82    73    74    1
    83   136   134   ar
    84    75    74    2
    85    71    70    1
    86   133   131   ar
    87    68    69    2
    88    74    86   am
    89   134   132   ar
    90   131   132   ar
    91   131   130    1
    92   130   127    1
    93    86    87    1
    94    98    97    2
    95   129   128    2
    96    87    88    1
    97    87    90    1
    98    89    88    2
    99   127   128    1
   100   127   126    1
   101   107   108    1
   102   107   104    1
   103    99   100    1
   104    99    96    1
   105   102   100   ar
   106    97    96    1
   107   105   106    2
   108   105   104    1
   109   108   109    1
   110   126   114   am
   111   100   101   ar
   112   116   117    1
   113   116   113    1
   114    96    95    1
   115    90    91    1
   116   104   103    1
   117    91    92    1
   118   114   115    2
   119   114   113    1
   120   117   118   ar
   121   117   119   ar
   122   118   120   ar
   123   109   110   ar
   124   109   111   ar
   125   113   112    1
   126   120   121   ar
   127   119   122   ar
   128   119   121   ar
   129    92    93   ar
   130    92    94   ar
   131   122   124   ar
   132   121   123   ar
   133   124   125   ar
   134   123   125   ar
   135   143   142    1
   136   144   142    1
   137   141   142    1
   138   141   138    1
   139   140   139    2
   140   139   138    1
   141   138   137    1
