@<TRIPOS>MOLECULE
tmp/5m6qB01.pdb
 90 87 0 0 0
SMALL
GASTEIGER

@<TRIPOS>ATOM
      1  N        -46.4810  -45.2240   21.0270 N.3    62  LEU62      -0.1231
      2  CA       -47.5010  -46.0360   20.3840 C.3    62  LEU62       0.1693
      3  C        -48.2150  -45.2870   19.2570 C.2    62  LEU62       0.2592
      4  O        -49.3100  -45.6790   18.8520 O.2    62  LEU62      -0.2718
      5  CB       -48.5160  -46.4990   21.4310 C.3    62  LEU62       0.0284
      6  CG       -47.8330  -47.1290   22.6420 C.3    62  LEU62       0.0019
      7  CD1      -48.8380  -47.4060   23.7550 C.3    62  LEU62       0.0001
      8  CD2      -47.1220  -48.4050   22.2230 C.3    62  LEU62       0.0001
      9  N        -47.5750  -44.2240   18.7590 N.am   63  ASN63      -0.1974
     10  CA       -48.1560  -43.3350   17.7460 C.3    63  ASN63       0.1688
     11  C        -48.5690  -44.0510   16.4710 C.2    63  ASN63       0.2292
     12  O        -49.5760  -43.7010   15.8540 O.2    63  ASN63      -0.2864
     13  CB       -47.1560  -42.2350   17.3680 C.3    63  ASN63       0.1181
     14  CG       -46.5980  -41.5160   18.5720 C.2    63  ASN63       0.2629
     15  OD1      -45.3940  -41.5280   18.8080 O.2    63  ASN63      -0.2716
     16  ND2      -47.4670  -40.8770   19.3340 N.am   63  ASN63      -0.0877
     17  N        -50.5950  -39.4440   13.2190 N.3   107  ASN107     -0.1240
     18  CA       -49.4600  -39.3370   14.1530 C.3   107  ASN107      0.1653
     19  C        -48.0800  -39.5190   13.5220 C.2   107  ASN107      0.2266
     20  O        -47.1070  -39.7140   14.2370 O.2   107  ASN107     -0.2867
     21  CB       -49.5850  -40.3560   15.3060 C.3   107  ASN107      0.1155
     22  CG       -50.9520  -40.3460   15.9640 C.2   107  ASN107      0.2627
     23  OD1      -51.5220  -39.2920   16.2150 O.2   107  ASN107     -0.2716
     24  ND2      -51.4900  -41.5310   16.2350 N.am  107  ASN107     -0.0877
     25  N        -45.9140  -36.4670   14.6160 N.3   110  LYS110     -0.1245
     26  CA       -45.6360  -36.6750   16.0310 C.3   110  LYS110      0.1561
     27  C        -44.5530  -37.7470   16.2570 C.2   110  LYS110      0.2260
     28  O        -43.7110  -37.6050   17.1450 O.2   110  LYS110     -0.2867
     29  CB       -46.9220  -37.0750   16.7710 C.3   110  LYS110      0.0271
     30  CG       -46.8000  -37.0110   18.2770 C.3   110  LYS110      0.0035
     31  CD       -47.9790  -37.6720   18.9920 C.3   110  LYS110      0.0206
     32  CE       -49.3250  -37.1110   18.5500 C.3   110  LYS110      0.1093
     33  NZ       -50.4290  -37.6240   19.4300 N.3   110  LYS110     -0.1314
     34  N        -55.9980  -46.9880   16.8400 N.3   157  ASP157     -0.1225
     35  CA       -55.9910  -45.7560   17.6000 C.3   157  ASP157      0.1805
     36  C        -55.6530  -46.0630   19.0630 C.2   157  ASP157      0.2598
     37  O        -56.4960  -46.5660   19.8150 O.2   157  ASP157     -0.2718
     38  CB       -57.3560  -45.0750   17.4840 C.3   157  ASP157      0.1424
     39  CG       -57.3630  -43.6480   18.0150 C.2   157  ASP157      0.3668
     40  OD1      -56.4100  -43.2250   18.7040 O.co2 157  ASP157     -0.2456
     41  OD2      -58.3540  -42.9470   17.7450 O.co2 157  ASP157     -0.2456
     42  N        -54.4330  -45.7420   19.4660 N.am  158  MET158     -0.1965
     43  CA       -53.9990  -45.9750   20.8330 C.3   158  MET158      0.1736
     44  C        -54.2050  -44.7650   21.7620 C.2   158  MET158      0.2617
     45  O        -53.7470  -44.7890   22.9110 O.2   158  MET158     -0.2715
     46  CB       -52.5150  -46.3850   20.8450 C.3   158  MET158      0.0427
     47  CG       -52.2140  -47.7150   20.1540 C.3   158  MET158      0.0599
     48  SD       -53.0550  -49.1160   20.9300 S.3   158  MET158     -0.1393
     49  CE       -52.1290  -49.3090   22.4540 C.3   158  MET158      0.0692
     50  N        -54.8900  -43.7210   21.2960 N.am  159  SER159     -0.1950
     51  CA       -54.9420  -42.4710   22.0730 C.3   159  SER159      0.1924
     52  C        -55.6780  -42.6370   23.4170 C.2   159  SER159      0.2314
     53  O        -55.3330  -41.9690   24.3830 O.2   159  SER159     -0.2863
     54  CB       -55.5720  -41.3340   21.2510 C.3   159  SER159      0.2116
     55  OG       -56.9070  -41.6210   20.8800 O.3   159  SER159     -0.2180
     56  N        -55.5570  -45.3330   25.2560 N.3   161  TYR161     -0.1227
     57  CA       -54.8870  -46.3370   26.0600 C.3   161  TYR161      0.1736
     58  C        -54.2580  -45.7400   27.3210 C.2   161  TYR161      0.2595
     59  O        -53.6130  -44.6840   27.2670 O.2   161  TYR161     -0.2718
     60  CB       -53.8300  -47.0450   25.2350 C.3   161  TYR161      0.0548
     61  CG       -53.1320  -48.1470   25.9890 C.ar  161  TYR161     -0.0200
     62  CD1      -53.7510  -49.3810   26.1820 C.ar  161  TYR161     -0.0009
     63  CD2      -51.8580  -47.9550   26.5140 C.ar  161  TYR161     -0.0009
     64  CE1      -53.1150  -50.3950   26.8800 C.ar  161  TYR161      0.0417
     65  CE2      -51.2170  -48.9620   27.1980 C.ar  161  TYR161      0.0417
     66  CZ       -51.8500  -50.1770   27.3780 C.ar  161  TYR161      0.1957
     67  OH       -51.2080  -51.1670   28.0620 O.3   161  TYR161     -0.2866
     68  N        -54.4280  -46.4450   28.4400 N.am  162  ARG162     -0.1966
     69  CA       -54.0780  -45.9420   29.7810 C.3   162  ARG162      0.1729
     70  C        -53.2360  -46.9140   30.6090 C.2   162  ARG162      0.2616
     71  O        -53.1330  -46.7530   31.8220 O.2   162  ARG162     -0.2715
     72  CB       -55.3450  -45.6260   30.5820 C.3   162  ARG162      0.0348
     73  CG       -56.1870  -44.5140   30.0250 C.3   162  ARG162      0.0492
     74  CD       -55.3510  -43.2340   29.8590 C.3   162  ARG162      0.2205
     75  NE       -56.1280  -42.1540   29.2490 N.pl3 162  ARG162     -0.0865
     76  CZ       -55.9740  -41.7280   27.9980 C.cat 162  ARG162      0.5346
     77  NH1      -55.0420  -42.2670   27.2050 N.pl3 162  ARG162      0.1354
     78  NH2      -56.7440  -40.7460   27.5460 N.pl3 162  ARG162      0.1354
     79  N        -52.6640  -47.9340   29.9730 N.am  163  TYR163     -0.1974
     80  CA       -51.8750  -48.9500   30.6840 C.3   163  TYR163      0.1639
     81  C        -52.6590  -49.6840   31.7870 C.2   163  TYR163      0.2290
     82  O        -52.0740  -50.2270   32.7240 O.2   163  TYR163     -0.2864
     83  CB       -50.6070  -48.3130   31.2810 C.3   163  TYR163      0.0560
     84  CG       -49.7010  -47.7110   30.2260 C.ar  163  TYR163     -0.0198
     85  CD1      -48.7450  -48.4870   29.5870 C.ar  163  TYR163     -0.0009
     86  CD2      -49.8120  -46.3750   29.8610 C.ar  163  TYR163     -0.0009
     87  CE1      -47.9140  -47.9560   28.6250 C.ar  163  TYR163      0.0417
     88  CE2      -48.9790  -45.8250   28.8870 C.ar  163  TYR163      0.0417
     89  CZ       -48.0310  -46.6260   28.2750 C.ar  163  TYR163      0.1957
     90  OH       -47.2030  -46.1110   27.3060 O.3   163  TYR163     -0.2866
@<TRIPOS>BOND
     1    17    18    1
     2    19    18    1
     3    19    20    2
     4    18    21    1
     5    25    26    1
     6    21    22    1
     7    12    11    2
     8    22    23    2
     9    22    24   am
    10    26    27    1
    11    26    29    1
    12    27    28    2
    13    11    10    1
    14    29    30    1
    15    34    35    1
    16    13    10    1
    17    13    14    1
    18    38    35    1
    19    38    39    1
    20    35    36    1
    21    41    39   ar
    22    10     9    1
    23    39    40   ar
    24    30    31    1
    25    32    31    1
    26    32    33    1
    27    14    15    2
    28    14    16   am
    29     9     3   am
    30     4     3    2
    31    36    42   am
    32    36    37    2
    33     3     2    1
    34    42    43    1
    35    47    46    1
    36    47    48    1
    37     2     1    1
    38     2     5    1
    39    43    46    1
    40    43    44    1
    41    55    54    1
    42    48    49    1
    43    54    51    1
    44    50    44   am
    45    50    51    1
    46     5     6    1
    47    44    45    2
    48    51    52    1
    49     8     6    1
    50     6     7    1
    51    52    53    2
    52    60    61    1
    53    60    57    1
    54    56    57    1
    55    61    62   ar
    56    61    63   ar
    57    57    58    1
    58    62    64   ar
    59    63    65   ar
    60    64    66   ar
    61    65    66   ar
    62    77    76    1
    63    59    58    2
    64    90    89    1
    65    58    68   am
    66    66    67    1
    67    78    76    1
    68    76    75    2
    69    89    87   ar
    70    89    88   ar
    71    68    69    1
    72    87    85   ar
    73    88    86   ar
    74    75    74    1
    75    85    84   ar
    76    69    72    1
    77    69    70    1
    78    74    73    1
    79    86    84   ar
    80    79    70   am
    81    79    80    1
    82    73    72    1
    83    84    83    1
    84    70    71    2
    85    80    83    1
    86    80    81    1
    87    81    82    2
