@<TRIPOS>MOLECULE
tmp/5m6rA01.pdb
 107 107 0 0 0
SMALL
GASTEIGER

@<TRIPOS>ATOM
      1  N         -8.3440    7.8610    8.0560 N.3    99  ARG99      -0.1245
      2  CA        -9.3850    6.9160    8.3290 C.3    99  ARG99       0.1563
      3  C        -10.2780    7.3180    9.4860 C.2    99  ARG99       0.2260
      4  O         -9.7920    7.7450   10.5240 O.2    99  ARG99      -0.2867
      5  CB        -8.7340    5.5490    8.5630 C.3    99  ARG99       0.0307
      6  CG        -9.6570    4.3760    8.3300 C.3    99  ARG99       0.0489
      7  CD        -8.8510    3.1070    8.1130 C.3    99  ARG99       0.2205
      8  NE        -9.6840    2.0090    7.6190 N.pl3  99  ARG99      -0.0865
      9  CZ        -9.2260    0.8570    7.1470 C.cat  99  ARG99       0.5346
     10  NH1       -7.9140    0.6200    7.0970 N.pl3  99  ARG99       0.1354
     11  NH2      -10.0670   -0.0640    6.7130 N.pl3  99  ARG99       0.1354
     12  N        -13.7440    5.7580   11.8890 N.3   101  ASN101     -0.1226
     13  CA       -13.8830    4.4360   12.5330 C.3   101  ASN101      0.1770
     14  C        -14.1280    3.3170   11.5230 C.2   101  ASN101      0.2439
     15  O        -15.1750    3.2850   10.8760 O.2   101  ASN101     -0.2733
     16  CB       -14.9710    4.4190   13.5970 C.3   101  ASN101      0.1168
     17  CG       -14.8130    3.2660   14.5430 C.2   101  ASN101      0.2627
     18  OD1      -14.6840    2.1300   14.1470 O.2   101  ASN101     -0.2716
     19  ND2      -14.7770    3.5280   15.8280 N.am  101  ASN101     -0.0877
     20  N        -13.1790    2.3700   11.3940 N.am  102  PRO102     -0.2718
     21  CA       -13.3770    1.2980   10.4210 C.3   102  PRO102      0.1535
     22  C        -14.3260    0.1990   10.8740 C.2   102  PRO102      0.2598
     23  O        -14.7120   -0.5860   10.0320 O.2   102  PRO102     -0.2715
     24  CB       -11.9640    0.7540   10.2250 C.3   102  PRO102      0.0310
     25  CG       -11.3090    0.9330   11.5460 C.3   102  PRO102      0.0237
     26  CD       -11.8860    2.2170   12.0980 C.3   102  PRO102      0.0939
     27  N        -14.6790    0.1150   12.1620 N.am  103  HIS103     -0.1974
     28  CA       -15.5080   -0.9580   12.6980 C.3   103  HIS103      0.1656
     29  C        -16.9660   -0.9740   12.2960 C.2   103  HIS103      0.2291
     30  O        -17.6000    0.0540   12.0620 O.2   103  HIS103     -0.2864
     31  CB       -15.4520   -0.9790   14.2300 C.3   103  HIS103      0.0771
     32  CG       -14.0690   -1.1450   14.7380 C.ar  103  HIS103      0.0820
     33  ND1      -13.3180   -0.0570   15.1060 N.ar  103  HIS103     -0.2267
     34  CD2      -13.2860   -2.2530   14.7510 C.ar  103  HIS103      0.1154
     35  CE1      -12.1090   -0.5210   15.3690 C.ar  103  HIS103      0.1986
     36  NE2      -12.0500   -1.8520   15.2010 N.ar  103  HIS103     -0.2212
     37  N        -15.7680   -5.6260   17.5020 N.3   190  HIS190     -0.1227
     38  CA       -14.3290   -5.8310   17.4270 C.3   190  HIS190      0.1737
     39  C        -14.0210   -6.9750   16.4540 C.2   190  HIS190      0.2438
     40  O        -14.8990   -7.8090   16.2340 O.2   190  HIS190     -0.2733
     41  CB       -13.7920   -6.2280   18.8070 C.3   190  HIS190      0.0758
     42  CG       -14.1850   -5.3140   19.9170 C.ar  190  HIS190      0.0818
     43  ND1      -14.0480   -3.9320   19.8010 N.ar  190  HIS190     -0.2268
     44  CD2      -14.6920   -5.6070   21.1410 C.ar  190  HIS190      0.1154
     45  CE1      -14.5030   -3.4250   20.9460 C.ar  190  HIS190      0.1986
     46  NE2      -14.8980   -4.3990   21.7880 N.ar  190  HIS190     -0.2212
     47  N        -12.7660   -7.1000   15.9350 N.am  191  PRO191     -0.2718
     48  CA       -12.4210   -8.2190   15.0280 C.3   191  PRO191      0.1535
     49  C        -12.8470   -9.6240   15.4050 C.2   191  PRO191      0.2598
     50  O        -13.0320  -10.4240   14.5080 O.2   191  PRO191     -0.2715
     51  CB       -10.8900   -8.1610   14.9820 C.3   191  PRO191      0.0310
     52  CG       -10.4790   -7.1440   16.0070 C.3   191  PRO191      0.0237
     53  CD       -11.6070   -6.2010   16.0720 C.3   191  PRO191      0.0939
     54  N        -12.9890   -9.9190   16.6990 N.am  192  GLU192     -0.1978
     55  CA       -13.3660  -11.2490   17.2150 C.3   192  GLU192      0.1602
     56  C        -14.8330  -11.5310   16.9380 C.2   192  GLU192      0.2287
     57  O        -15.1950  -12.6630   16.6500 O.2   192  GLU192     -0.2864
     58  CB       -13.0490  -11.3520   18.7150 C.3   192  GLU192      0.0415
     59  CG       -11.5600  -11.1910   19.0200 C.3   192  GLU192      0.1163
     60  CD       -10.9520   -9.8000   18.8600 C.2   192  GLU192      0.3649
     61  OE1       -9.8870   -9.6950   18.2060 O.co2 192  GLU192     -0.2457
     62  OE2      -11.5830   -8.8090   19.3030 O.co2 192  GLU192     -0.2457
     63  N        -13.7920   -5.9450    9.7230 N.3   196  TYR196     -0.1241
     64  CA       -14.3490   -4.9720    8.7790 C.3   196  TYR196      0.1605
     65  C        -13.9460   -5.2020    7.3460 C.2   196  TYR196      0.2264
     66  O        -13.0670   -6.0110    7.0760 O.2   196  TYR196     -0.2867
     67  CB       -14.0490   -3.5400    9.2010 C.3   196  TYR196      0.0534
     68  CG       -12.6110   -3.2510    9.5340 C.ar  196  TYR196     -0.0201
     69  CD1      -11.6860   -2.9590    8.5290 C.ar  196  TYR196     -0.0009
     70  CD2      -12.1990   -3.1090   10.8600 C.ar  196  TYR196     -0.0009
     71  CE1      -10.3670   -2.6330    8.8320 C.ar  196  TYR196      0.0417
     72  CE2      -10.8970   -2.7130   11.1740 C.ar  196  TYR196      0.0417
     73  CZ        -9.9810   -2.4960   10.1550 C.ar  196  TYR196      0.1957
     74  OH        -8.6750   -2.2390   10.4660 O.3   196  TYR196     -0.2866
     75  N         -2.0900    1.0100    5.1900 N.3   229  ARG229     -0.1245
     76  CA        -3.0440    0.0160    5.6270 C.3   229  ARG229      0.1563
     77  C         -4.0130   -0.3020    4.4960 C.2   229  ARG229      0.2260
     78  O         -4.3710   -1.4530    4.2700 O.2   229  ARG229     -0.2867
     79  CB        -3.8400    0.5750    6.8280 C.3   229  ARG229      0.0307
     80  CG        -3.0000    0.8460    8.0730 C.3   229  ARG229      0.0489
     81  CD        -3.7990    1.6010    9.0760 C.3   229  ARG229      0.2205
     82  NE        -5.0330    0.8990    9.4490 N.pl3 229  ARG229     -0.0865
     83  CZ        -6.0300    1.4190   10.1670 C.cat 229  ARG229      0.5346
     84  NH1       -5.9560    2.6630   10.6160 N.pl3 229  ARG229      0.1354
     85  NH2       -7.1210    0.6920   10.4350 N.pl3 229  ARG229      0.1354
     86  N         -8.3290   -6.6570    9.1880 N.3   251  HIS251     -0.1226
     87  CA        -8.0570   -5.8060   10.3360 C.3   251  HIS251      0.1752
     88  C         -6.6260   -5.3610   10.1850 C.2   251  HIS251      0.2597
     89  O         -5.7690   -6.1790    9.8800 O.2   251  HIS251     -0.2718
     90  CB        -8.3270   -6.4570   11.7160 C.3   251  HIS251      0.0759
     91  CG        -7.7580   -5.6630   12.8480 C.ar  251  HIS251      0.0818
     92  ND1       -6.6600   -6.1180   13.5610 N.ar  251  HIS251     -0.2268
     93  CD2       -8.0980   -4.4200   13.3000 C.ar  251  HIS251      0.1154
     94  CE1       -6.3660   -5.1470   14.4280 C.ar  251  HIS251      0.1986
     95  NE2       -7.2150   -4.1070   14.3150 N.ar  251  HIS251     -0.2212
     96  N         -6.3710   -4.0580   10.3430 N.am  252  THR252     -0.1939
     97  CA        -5.0260   -3.5210   10.2150 C.3   252  THR252      0.2028
     98  C         -4.6750   -2.5910   11.3420 C.2   252  THR252      0.2642
     99  O         -5.5370   -1.9080   11.8800 O.2   252  THR252     -0.2714
    100  CB        -4.8440   -2.7680    8.8980 C.3   252  THR252      0.1808
    101  OG1       -5.9010   -1.8130    8.7400 O.3   252  THR252     -0.2208
    102  CG2       -4.7560   -3.6860    7.7150 C.3   252  THR252      0.0379
    103  N         -3.3820   -2.5390   11.6550 N.am  253  ALA253     -0.1977
    104  CA        -2.8460   -1.6910   12.6990 C.3   253  ALA253      0.1597
    105  C         -1.4130   -1.3330   12.4110 C.2   253  ALA253      0.2287
    106  O         -0.7070   -2.1400   11.8360 O.2   253  ALA253     -0.2864
    107  CB        -2.8930   -2.4240   14.0200 C.3   253  ALA253      0.0319
@<TRIPOS>BOND
     1    78    77    2
     2    77    76    1
     3    75    76    1
     4    76    79    1
     5    11     9    1
     6    79    80    1
     7    66    65    2
     8    10     9    1
     9     9     8    2
    10    65    64    1
    11     8     7    1
    12   102   100    1
    13     1     2    1
    14    80    81    1
    15     7     6    1
    16     2     5    1
    17     2     3    1
    18     6     5    1
    19    69    71   ar
    20    69    68   ar
    21   101   100    1
    22    64    67    1
    23    64    63    1
    24    71    73   ar
    25   100    97    1
    26    81    82    1
    27    86    87    1
    28    67    68    1
    29    82    83    2
    30     3     4    2
    31    68    70   ar
    32    89    88    2
    33    23    22    2
    34    73    74    1
    35    73    72   ar
    36    83    85    1
    37    83    84    1
    38    88    87    1
    39    88    96   am
    40    97    96    1
    41    97    98    1
    42    24    21    1
    43    24    25    1
    44    87    90    1
    45    21    22    1
    46    21    20    1
    47    70    72   ar
    48    22    27   am
    49    15    14    2
    50    98   103   am
    51    98    99    2
    52    20    14   am
    53    20    26    1
    54    14    13    1
    55    25    26    1
    56   103   104    1
    57    90    91    1
    58   106   105    2
    59    12    13    1
    60    30    29    2
    61    27    28    1
    62    29    28    1
    63   105   104    1
    64    13    16    1
    65    28    31    1
    66   104   107    1
    67    91    93   ar
    68    91    92   ar
    69    93    95   ar
    70    92    94   ar
    71    16    17    1
    72    18    17    2
    73    31    32    1
    74    95    94   ar
    75    50    49    2
    76    17    19   am
    77    32    34   ar
    78    32    33   ar
    79    34    36   ar
    80    51    48    1
    81    51    52    1
    82    48    49    1
    83    48    47    1
    84    33    35   ar
    85    36    35   ar
    86    49    54   am
    87    47    53    1
    88    47    39   am
    89    52    53    1
    90    40    39    2
    91    39    38    1
    92    57    56    2
    93    54    55    1
    94    56    55    1
    95    55    58    1
    96    38    37    1
    97    38    41    1
    98    61    60   ar
    99    58    59    1
   100    41    42    1
   101    60    59    1
   102    60    62   ar
   103    43    42   ar
   104    43    45   ar
   105    42    44   ar
   106    45    46   ar
   107    44    46   ar
