@<TRIPOS>MOLECULE
tmp/5m6uA00.pdb
 170 164 0 0 0
SMALL
GASTEIGER

@<TRIPOS>ATOM
      1  N         45.1940   17.7410   26.9910 N.3   657  THR657     -0.1203
      2  CA        45.6800   16.4560   27.5150 C.3   657  THR657      0.1994
      3  C         44.6330   15.3490   27.2860 C.2   657  THR657      0.2618
      4  O         43.7410   15.5000   26.4480 O.2   657  THR657     -0.2717
      5  CB        46.0280   16.5760   29.0140 C.3   657  THR657      0.1784
      6  OG1       46.6860   15.3790   29.4430 O.3   657  THR657     -0.2211
      7  CG2       44.7790   16.8190   29.8420 C.3   657  THR657      0.0376
      8  N         44.7700   14.2310   27.9980 N.am  658  PHE658     -0.1961
      9  CA        43.8200   13.1180   27.9080 C.3   658  PHE658      0.1771
     10  C         43.8320   12.2640   29.1680 C.2   658  PHE658      0.2619
     11  O         44.7590   12.3460   29.9780 O.2   658  PHE658     -0.2715
     12  CB        44.1520   12.2320   26.7050 C.3   658  PHE658      0.0574
     13  CG        45.3430   11.3340   26.9010 C.ar  658  PHE658     -0.0200
     14  CD1       46.6410   11.8300   26.8100 C.ar  658  PHE658     -0.0042
     15  CD2       45.1980    9.9900   27.2370 C.ar  658  PHE658     -0.0042
     16  CE1       47.7290   11.0440   27.0840 C.ar  658  PHE658     -0.0003
     17  CE2       46.2890    9.1740   27.4630 C.ar  658  PHE658     -0.0003
     18  CZ        47.5690    9.6920   27.3830 C.ar  658  PHE658     -0.0000
     19  N         42.7970   11.4380   29.3110 N.am  659  MET659     -0.1977
     20  CA        42.6650   10.5160   30.4380 C.3   659  MET659      0.1605
     21  C         43.0220    9.1050   29.9650 C.2   659  MET659      0.2287
     22  O         42.3030    8.5250   29.1580 O.2   659  MET659     -0.2864
     23  CB        41.2330   10.5630   30.9800 C.3   659  MET659      0.0413
     24  CG        41.0250    9.7900   32.2830 C.3   659  MET659      0.0598
     25  SD        39.3000    9.7630   32.9160 S.3   659  MET659     -0.1393
     26  CE        39.2050   11.3440   33.6370 C.3   659  MET659      0.0692
     27  N         39.3900    9.4820   26.6500 N.3   665  PRO665     -0.2116
     28  CA        38.7720   10.7240   26.2020 C.3   665  PRO665      0.1372
     29  C         39.8030   11.8460   26.0880 C.2   665  PRO665      0.2244
     30  O         40.7350   11.9130   26.8980 O.2   665  PRO665     -0.2868
     31  CB        37.7250   11.0130   27.2850 C.3   665  PRO665      0.0268
     32  CG        38.1990   10.2870   28.4770 C.3   665  PRO665      0.0207
     33  CD        38.9190    9.0810   27.9840 C.3   665  PRO665      0.0892
     34  N         40.8870   15.8200   26.0160 N.3   667  TRP667     -0.1241
     35  CA        40.5480   17.0750   26.6770 C.3   667  TRP667      0.1605
     36  C         41.0590   18.1980   25.7800 C.2   667  TRP667      0.2264
     37  O         42.2550   18.4730   25.7650 O.2   667  TRP667     -0.2867
     38  CB        41.2250   17.0810   28.0550 C.3   667  TRP667      0.0550
     39  CG        41.1090   18.3050   28.9140 C.ar  667  TRP667      0.0003
     40  CD1       41.8610   19.4420   28.8340 C.ar  667  TRP667      0.0946
     41  CD2       40.2550   18.4710   30.0520 C.ar  667  TRP667      0.0152
     42  NE1       41.5010   20.3230   29.8270 N.ar  667  TRP667     -0.2442
     43  CE2       40.5190   19.7530   30.5910 C.ar  667  TRP667      0.0810
     44  CE3       39.2740   17.6680   30.6580 C.ar  667  TRP667      0.0012
     45  CZ2       39.8340   20.2580   31.7100 C.ar  667  TRP667      0.0191
     46  CZ3       38.5900   18.1690   31.7770 C.ar  667  TRP667      0.0001
     47  CH2       38.8790   19.4530   32.2890 C.ar  667  TRP667      0.0015
     48  N         35.3490   17.8830   25.9290 N.3   684  ILE684     -0.1245
     49  CA        35.8670   16.5230   26.0290 C.3   684  ILE684      0.1561
     50  C         35.3250   15.7260   24.8510 C.2   684  ILE684      0.2260
     51  O         34.1200   15.4820   24.7680 O.2   684  ILE684     -0.2867
     52  CB        35.4200   15.8180   27.3360 C.3   684  ILE684      0.0252
     53  CG1       36.0670   16.4920   28.5530 C.3   684  ILE684      0.0019
     54  CG2       35.7530   14.3340   27.3060 C.3   684  ILE684      0.0019
     55  CD1       37.5850   16.4660   28.5580 C.3   684  ILE684      0.0001
     56  N         26.0450   20.8290   32.7870 N.3   720  TYR720     -0.1241
     57  CA        27.0230   20.8990   31.7020 C.3   720  TYR720      0.1605
     58  C         26.5290   20.1310   30.4700 C.2   720  TYR720      0.2264
     59  O         25.7940   19.1460   30.5990 O.2   720  TYR720     -0.2867
     60  CB        28.3940   20.3780   32.1600 C.3   720  TYR720      0.0534
     61  CG        28.4160   18.9230   32.5570 C.ar  720  TYR720     -0.0201
     62  CD1       28.6130   17.9290   31.6080 C.ar  720  TYR720     -0.0009
     63  CD2       28.2540   18.5370   33.8940 C.ar  720  TYR720     -0.0009
     64  CE1       28.6410   16.5790   31.9720 C.ar  720  TYR720      0.0417
     65  CE2       28.2840   17.1850   34.2720 C.ar  720  TYR720      0.0417
     66  CZ        28.4770   16.2150   33.3030 C.ar  720  TYR720      0.1957
     67  OH        28.5010   14.8880   33.6440 O.3   720  TYR720     -0.2866
     68  N         31.3680   16.2730   25.5420 N.3   732  ILE732     -0.1231
     69  CA        30.9140   16.6940   26.8710 C.3   732  ILE732      0.1692
     70  C         31.5510   18.0530   27.1460 C.2   732  ILE732      0.2592
     71  O         32.7370   18.2390   26.8660 O.2   732  ILE732     -0.2718
     72  CB        31.3660   15.7140   27.9790 C.3   732  ILE732      0.0266
     73  CG1       30.8540   14.2720   27.6990 C.3   732  ILE732      0.0019
     74  CG2       30.8740   16.2090   29.3430 C.3   732  ILE732      0.0020
     75  CD1       31.8380   13.3240   27.0290 C.3   732  ILE732      0.0001
     76  N         30.7760   18.9870   27.6960 N.am  733  GLU733     -0.1966
     77  CA        31.2990   20.3150   28.0400 C.3   733  GLU733      0.1733
     78  C         32.2020   20.2340   29.2650 C.2   733  GLU733      0.2616
     79  O         31.8190   19.6610   30.2770 O.2   733  GLU733     -0.2715
     80  CB        30.1730   21.3160   28.3250 C.3   733  GLU733      0.0429
     81  CG        30.6760   22.7670   28.3830 C.3   733  GLU733      0.1163
     82  CD        29.6480   23.7740   28.8780 C.2   733  GLU733      0.3649
     83  OE1       28.5780   23.3700   29.3940 O.co2 733  GLU733     -0.2457
     84  OE2       29.9350   24.9880   28.7490 O.co2 733  GLU733     -0.2457
     85  N         33.3860   20.8270   29.1710 N.am  734  VAL734     -0.1963
     86  CA        34.2920   20.9080   30.3090 C.3   734  VAL734      0.1727
     87  C         33.7610   21.9540   31.2810 C.2   734  VAL734      0.2616
     88  O         33.3680   23.0470   30.8680 O.2   734  VAL734     -0.2715
     89  CB        35.7190   21.2910   29.8780 C.3   734  VAL734      0.0290
     90  CG1       36.6000   21.5480   31.0950 C.3   734  VAL734      0.0023
     91  CG2       36.3130   20.1960   28.9990 C.3   734  VAL734      0.0023
     92  N         33.7300   21.5960   32.5620 N.am  735  VAL735     -0.1977
     93  CA        33.4020   22.5280   33.6320 C.3   735  VAL735      0.1596
     94  C         34.7210   22.9430   34.2540 C.2   735  VAL735      0.2287
     95  O         35.4060   22.1160   34.8530 O.2   735  VAL735     -0.2864
     96  CB        32.5030   21.8870   34.7020 C.3   735  VAL735      0.0276
     97  CG1       32.0230   22.9380   35.6720 C.3   735  VAL735      0.0022
     98  CG2       31.3150   21.1900   34.0560 C.3   735  VAL735      0.0022
     99  N         37.2780   22.9110   38.8790 N.3   738  SER738     -0.1202
    100  CA        36.6110   21.7240   39.4100 C.3   738  SER738      0.2020
    101  C         37.5760   20.5720   39.6480 C.2   738  SER738      0.2619
    102  O         38.6590   20.5280   39.0660 O.2   738  SER738     -0.2717
    103  CB        35.5230   21.2720   38.4430 C.3   738  SER738      0.2103
    104  OG        36.0790   21.0170   37.1680 O.3   738  SER738     -0.2182
    105  N         37.1760   19.6460   40.5150 N.am  739  ASP739     -0.1959
    106  CA        37.9550   18.4330   40.7680 C.3   739  ASP739      0.1840
    107  C         37.0630   17.3510   41.3730 C.2   739  ASP739      0.2622
    108  O         36.0050   17.6480   41.9330 O.2   739  ASP739     -0.2715
    109  CB        39.1470   18.7440   41.6940 C.3   739  ASP739      0.1450
    110  CG        40.3630   17.8570   41.4260 C.2   739  ASP739      0.3671
    111  OD1       40.1840   16.6520   41.1390 O.co2 739  ASP739     -0.2456
    112  OD2       41.5040   18.3710   41.5080 O.co2 739  ASP739     -0.2456
    113  N         37.4990   16.1000   41.2380 N.am  740  THR740     -0.1951
    114  CA        36.7840   14.9450   41.7930 C.3   740  THR740      0.1897
    115  C         36.8790   14.9490   43.3090 C.2   740  THR740      0.2313
    116  O         37.8320   15.5010   43.8600 O.2   740  THR740     -0.2863
    117  CB        37.3790   13.6100   41.2810 C.3   740  THR740      0.1794
    118  OG1       38.8000   13.5950   41.4970 O.3   740  THR740     -0.2208
    119  CG2       37.0850   13.4240   39.8030 C.3   740  THR740      0.0378
    120  N         40.1680   12.9270   44.4170 N.3   743  ASN743     -0.1240
    121  CA        41.4450   13.6620   44.3920 C.3   743  ASN743      0.1653
    122  C         41.5740   14.7020   45.5090 C.2   743  ASN743      0.2266
    123  O         42.6720   14.9060   46.0330 O.2   743  ASN743     -0.2867
    124  CB        41.6770   14.3230   43.0270 C.3   743  ASN743      0.1155
    125  CG        42.0200   13.3000   41.9600 C.2   743  ASN743      0.2627
    126  OD1       42.6270   13.6450   40.9380 O.2   743  ASN743     -0.2716
    127  ND2       41.5690   12.0380   42.1450 N.am  743  ASN743     -0.0877
    128  N         35.0820    9.0930   42.8210 N.3   791  ASP791     -0.1239
    129  CA        35.6440    9.4340   41.4970 C.3   791  ASP791      0.1674
    130  C         34.6190    9.7760   40.3850 C.2   791  ASP791      0.2266
    131  O         35.0160   10.0150   39.2350 O.2   791  ASP791     -0.2867
    132  CB        36.6460    8.3550   41.0270 C.3   791  ASP791      0.1410
    133  CG        35.9880    7.0270   40.6630 C.2   791  ASP791      0.3668
    134  OD1       34.7460    6.9060   40.7360 O.co2 791  ASP791     -0.2456
    135  OD2       36.7350    6.0920   40.3020 O.co2 791  ASP791     -0.2456
    136  N         32.0340   15.4840   41.4400 N.3   794  MET794     -0.1245
    137  CA        33.0270   16.5620   41.4090 C.3   794  MET794      0.1570
    138  C         32.5510   17.7450   42.2310 C.2   794  MET794      0.2261
    139  O         31.3540   17.9090   42.4600 O.2   794  MET794     -0.2867
    140  CB        33.2860   17.0180   39.9700 C.3   794  MET794      0.0387
    141  CG        33.7450   15.9070   39.0320 C.3   794  MET794      0.0595
    142  SD        34.2760   16.5000   37.4140 S.3   794  MET794     -0.1393
    143  CE        35.8890   17.1640   37.7950 C.3   794  MET794      0.0692
    144  N         28.5940   18.5450   41.7680 N.3   802  PHE802     -0.1241
    145  CA        27.8800   17.9930   40.6020 C.3   802  PHE802      0.1605
    146  C         28.3670   16.5900   40.2480 C.2   802  PHE802      0.2264
    147  O         29.5080   16.2260   40.5380 O.2   802  PHE802     -0.2867
    148  CB        27.9410   18.9240   39.3750 C.3   802  PHE802      0.0534
    149  CG        29.2960   19.0310   38.7460 C.ar  802  PHE802     -0.0203
    150  CD1       30.2270   19.9400   39.2230 C.ar  802  PHE802     -0.0042
    151  CD2       29.6340   18.2430   37.6530 C.ar  802  PHE802     -0.0042
    152  CE1       31.4890   20.0530   38.6280 C.ar  802  PHE802     -0.0003
    153  CE2       30.8950   18.3480   37.0510 C.ar  802  PHE802     -0.0003
    154  CZ        31.8200   19.2530   37.5420 C.ar  802  PHE802     -0.0000
    155  N         28.9670   13.1930   37.6300 N.3   804  ILE804     -0.1231
    156  CA        29.4800   12.8600   36.3070 C.3   804  ILE804      0.1692
    157  C         29.3650   11.3640   36.0290 C.2   804  ILE804      0.2592
    158  O         29.1250   10.5710   36.9370 O.2   804  ILE804     -0.2718
    159  CB        30.9540   13.2970   36.1350 C.3   804  ILE804      0.0266
    160  CG1       31.8710   12.6080   37.1460 C.3   804  ILE804      0.0019
    161  CG2       31.0760   14.7900   36.2890 C.3   804  ILE804      0.0020
    162  CD1       33.3400   12.7690   36.8200 C.3   804  ILE804      0.0001
    163  N         29.5550   10.9970   34.7640 N.am  805  ASP805     -0.1974
    164  CA        29.6070    9.6020   34.3410 C.3   805  ASP805      0.1709
    165  C         28.3900    8.8170   34.8420 C.2   805  ASP805      0.2293
    166  O         28.5200    7.8910   35.6470 O.2   805  ASP805     -0.2864
    167  CB        30.9170    8.9550   34.8020 C.3   805  ASP805      0.1436
    168  CG        32.1380    9.6250   34.2040 C.2   805  ASP805      0.3671
    169  OD1       32.6160   10.6240   34.7840 O.co2 805  ASP805     -0.2456
    170  OD2       32.6160    9.1560   33.1490 O.co2 805  ASP805     -0.2456
@<TRIPOS>BOND
     1    51    50    2
     2    50    49    1
     3    68    69    1
     4    37    36    2
     5    36    35    1
     6    48    49    1
     7    34    35    1
     8    49    52    1
     9    29    28    1
    10    29    30    2
    11    28    27    1
    12    28    31    1
    13     4     3    2
    14    27    33    1
    15    35    38    1
    16    12    13    1
    17    12     9    1
    18    14    13   ar
    19    14    16   ar
    20    71    70    2
    21    69    70    1
    22    69    72    1
    23    13    15   ar
    24     1     2    1
    25    75    73    1
    26    16    18   ar
    27    70    76   am
    28    15    17   ar
    29    31    32    1
    30     3     2    1
    31     3     8   am
    32    54    52    1
    33    52    53    1
    34    18    17   ar
    35     2     5    1
    36    76    77    1
    37    73    72    1
    38     9     8    1
    39     9    10    1
    40    72    74    1
    41    33    32    1
    42    77    80    1
    43    77    78    1
    44    38    39    1
    45    80    81    1
    46    81    82    1
    47    53    55    1
    48    84    82   ar
    49    40    39   ar
    50    40    42   ar
    51    82    83   ar
    52    39    41   ar
    53    91    89    1
    54     5     6    1
    55     5     7    1
    56    22    21    2
    57    10    19   am
    58    10    11    2
    59    85    78   am
    60    85    86    1
    61    78    79    2
    62    19    20    1
    63    42    43   ar
    64    89    86    1
    65    89    90    1
    66    21    20    1
    67    41    43   ar
    68    41    44   ar
    69    86    87    1
    70    20    23    1
    71    58    59    2
    72    58    57    1
    73    43    45   ar
    74    44    46   ar
    75    88    87    2
    76    23    24    1
    77    87    92   am
    78    62    64   ar
    79    62    61   ar
    80    57    60    1
    81    57    56    1
    82    45    47   ar
    83    46    47   ar
    84    64    66   ar
    85    60    61    1
    86    24    25    1
    87    61    63   ar
    88    92    93    1
    89    25    26    1
    90   170   168   ar
    91    66    67    1
    92    66    65   ar
    93    93    94    1
    94    93    96    1
    95    63    65   ar
    96    98    96    1
    97   168   169   ar
    98   168   167    1
    99    94    95    2
   100   164   163    1
   101   164   167    1
   102   164   165    1
   103    96    97    1
   104   163   157   am
   105   165   166    2
   106   157   156    1
   107   157   158    2
   108   159   161    1
   109   159   156    1
   110   159   160    1
   111   156   155    1
   112   162   160    1
   113   153   154   ar
   114   153   151   ar
   115   104   103    1
   116   142   143    1
   117   142   141    1
   118   154   152   ar
   119   151   149   ar
   120   103   100    1
   121   152   150   ar
   122   149   150   ar
   123   149   148    1
   124    99   100    1
   125   141   140    1
   126   102   101    2
   127   131   130    2
   128   148   145    1
   129   100   101    1
   130   101   105   am
   131   119   117    1
   132   140   137    1
   133   146   147    2
   134   146   145    1
   135   135   133   ar
   136   130   129    1
   137   105   106    1
   138   145   144    1
   139   133   134   ar
   140   133   132    1
   141   106   107    1
   142   106   109    1
   143   126   125    2
   144   132   129    1
   145   111   110   ar
   146   113   107   am
   147   113   114    1
   148   117   118    1
   149   117   114    1
   150   107   108    2
   151   137   136    1
   152   137   138    1
   153   110   112   ar
   154   110   109    1
   155   129   128    1
   156   114   115    1
   157   125   127   am
   158   125   124    1
   159   138   139    2
   160   124   121    1
   161   115   116    2
   162   121   120    1
   163   121   122    1
   164   122   123    2
