@<TRIPOS>MOLECULE
tmp/5m6wC00.pdb
 70 66 0 0 0
SMALL
GASTEIGER

@<TRIPOS>ATOM
      1  N       -191.1850   77.2320   24.8610 N.3    52  THR52      -0.1203
      2  CA      -189.8050   77.4300   24.4470 C.3    52  THR52       0.1994
      3  C       -189.7990   78.1390   23.1030 C.2    52  THR52       0.2617
      4  O       -190.8400   78.3300   22.4690 O.2    52  THR52      -0.2717
      5  CB      -189.0390   76.1040   24.3600 C.3    52  THR52       0.1784
      6  OG1     -187.6450   76.3670   24.1560 O.3    52  THR52      -0.2211
      7  CG2     -189.5630   75.2700   23.2020 C.3    52  THR52       0.0376
      8  N       -188.6050   78.5420   22.6790 N.am   53  VAL53      -0.1979
      9  CA      -188.3910   79.1690   21.3820 C.3    53  VAL53       0.1595
     10  C       -187.3930   78.3210   20.6160 C.2    53  VAL53       0.2287
     11  O       -186.2530   78.1410   21.0630 O.2    53  VAL53      -0.2864
     12  CB      -187.8810   80.6130   21.5170 C.3    53  VAL53       0.0276
     13  CG1     -187.6760   81.2250   20.1460 C.3    53  VAL53       0.0022
     14  CG2     -188.8490   81.4520   22.3310 C.3    53  VAL53       0.0022
     15  N       -179.8320   77.1060   18.6560 N.3    58  THR58      -0.1218
     16  CA      -180.0250   75.7220   19.0570 C.3    58  THR58       0.1862
     17  C       -180.3250   74.8190   17.8700 C.2    58  THR58       0.2287
     18  O       -180.6810   73.6530   18.0700 O.2    58  THR58      -0.2866
     19  CB      -181.1620   75.6150   20.0770 C.3    58  THR58       0.1770
     20  OG1     -182.3840   76.0510   19.4680 O.3    58  THR58      -0.2211
     21  CG2     -180.8790   76.4800   21.3020 C.3    58  THR58       0.0375
     22  N       -183.9410   73.5780   18.0980 N.3    61  MET61      -0.1230
     23  CA      -184.2020   72.5030   19.0330 C.3    61  MET61       0.1702
     24  C       -184.7310   73.0860   20.3360 C.2    61  MET61       0.2593
     25  O       -184.3300   74.1750   20.7620 O.2    61  MET61      -0.2718
     26  CB      -182.9410   71.6870   19.3190 C.3    61  MET61       0.0401
     27  CG      -182.4160   70.8640   18.1570 C.3    61  MET61       0.0596
     28  SD      -181.2890   69.5880   18.7550 S.3    61  MET61      -0.1393
     29  CE      -179.8850   70.5790   19.2640 C.3    61  MET61       0.0692
     30  N       -185.6480   72.3590   20.9520 N.am   62  GLY62      -0.1942
     31  CA      -186.1430   72.7050   22.2640 C.3    62  GLY62       0.2014
     32  C       -186.6290   71.4480   22.9510 C.2    62  GLY62       0.2639
     33  O       -187.2540   70.5960   22.3160 O.2    62  GLY62      -0.2714
     34  N       -186.3260   71.2960   24.2290 N.am   63  ASN63      -0.1958
     35  CA      -186.9060   70.2140   25.0010 C.3    63  ASN63       0.1819
     36  C       -187.2390   70.7190   26.3900 C.2    63  ASN63       0.2621
     37  O       -186.5240   71.5520   26.9600 O.2    63  ASN63      -0.2715
     38  CB      -185.9810   69.0060   25.1260 C.3    63  ASN63       0.1195
     39  CG      -185.4180   68.8900   26.5070 C.2    63  ASN63       0.2630
     40  OD1     -185.9810   68.2310   27.3780 O.2    63  ASN63      -0.2716
     41  ND2     -184.3330   69.5750   26.7430 N.am   63  ASN63      -0.0877
     42  N       -188.3320   70.2000   26.9120 N.am   64  VAL64      -0.1977
     43  CA      -188.8950   70.5700   28.1910 C.3    64  VAL64       0.1596
     44  C       -189.3530   69.2760   28.8510 C.2    64  VAL64       0.2287
     45  O       -189.1260   68.1780   28.3300 O.2    64  VAL64      -0.2864
     46  CB      -190.0590   71.5640   28.0370 C.3    64  VAL64       0.0276
     47  CG1     -189.5280   72.8910   27.5180 C.3    64  VAL64       0.0022
     48  CG2     -191.0990   70.9860   27.0790 C.3    64  VAL64       0.0022
     49  N       -183.7370   59.7920   27.4820 N.3   479  LEU479     -0.1231
     50  CA      -182.5440   60.1480   28.2410 C.3   479  LEU479      0.1693
     51  C       -181.7310   61.2470   27.5680 C.2   479  LEU479      0.2592
     52  O       -181.1710   62.1100   28.2520 O.2   479  LEU479     -0.2718
     53  CB      -181.6650   58.9090   28.4420 C.3   479  LEU479      0.0284
     54  CG      -180.3120   59.0120   29.1570 C.3   479  LEU479      0.0019
     55  CD1     -180.4400   59.6070   30.5530 C.3   479  LEU479      0.0001
     56  CD2     -179.6560   57.6420   29.2200 C.3   479  LEU479      0.0001
     57  N       -181.6670   61.2320   26.2380 N.am  480  LYS480     -0.1966
     58  CA      -180.8330   62.1550   25.4820 C.3   480  LYS480      0.1728
     59  C       -181.3490   62.2390   24.0510 C.2   480  LYS480      0.2616
     60  O       -182.0050   61.3200   23.5540 O.2   480  LYS480     -0.2715
     61  CB      -179.3620   61.7130   25.5000 C.3   480  LYS480      0.0311
     62  CG      -178.4260   62.5990   24.6920 C.3   480  LYS480      0.0038
     63  CD      -176.9680   62.2180   24.8520 C.3   480  LYS480      0.0206
     64  CE      -176.0870   63.1540   24.0360 C.3   480  LYS480      0.1093
     65  NZ      -174.6370   62.8430   24.1670 N.3   480  LYS480     -0.1314
     66  N       -181.0500   63.3630   23.4000 N.am  481  ALA481     -0.1977
     67  CA      -181.4100   63.5800   22.0040 C.3   481  ALA481      0.1597
     68  C       -180.4960   64.6540   21.4310 C.2   481  ALA481      0.2287
     69  O       -179.9250   65.4610   22.1670 O.2   481  ALA481     -0.2864
     70  CB      -182.8790   63.9860   21.8560 C.3   481  ALA481      0.0319
@<TRIPOS>BOND
     1    17    18    2
     2    17    16    1
     3    22    23    1
     4    27    28    1
     5    27    26    1
     6    15    16    1
     7    28    29    1
     8    23    26    1
     9    23    24    1
    10    16    19    1
    11    20    19    1
    12    19    21    1
    13    13    12    1
    14    24    25    2
    15    24    30   am
    16    10    11    2
    17    10     9    1
    18    30    31    1
    19     9    12    1
    20     9     8    1
    21    68    67    1
    22    68    69    2
    23    12    14    1
    24    70    67    1
    25    67    66    1
    26    31    32    1
    27    33    32    2
    28     4     3    2
    29     8     3   am
    30    32    34   am
    31     3     2    1
    32     7     5    1
    33    66    59   am
    34    60    59    2
    35    64    65    1
    36    64    63    1
    37    59    58    1
    38     6     5    1
    39    34    35    1
    40     5     2    1
    41     2     1    1
    42    62    63    1
    43    62    61    1
    44    35    38    1
    45    35    36    1
    46    38    39    1
    47    58    61    1
    48    58    57    1
    49    57    51   am
    50    36    42   am
    51    36    37    2
    52    39    41   am
    53    39    40    2
    54    42    43    1
    55    48    46    1
    56    49    50    1
    57    47    46    1
    58    51    50    1
    59    51    52    2
    60    46    43    1
    61    43    44    1
    62    50    53    1
    63    45    44    2
    64    53    54    1
    65    54    56    1
    66    54    55    1
