@<TRIPOS>MOLECULE
tmp/5m6zA01.pdb
 170 164 0 0 0
SMALL
GASTEIGER

@<TRIPOS>ATOM
      1  N         -8.3240   10.8550   19.7260 N.3   212  GLY212     -0.1210
      2  CA        -8.8500   10.4300   20.9940 C.3   212  GLY212      0.1956
      3  C         -8.3570    9.0580   21.3650 C.2   212  GLY212      0.2612
      4  O         -7.9560    8.2550   20.5320 O.2   212  GLY212     -0.2717
      5  N         -8.4570    8.7570   22.6320 N.am  213  GLY213     -0.1942
      6  CA        -8.2400    7.3960   23.0980 C.3   213  GLY213      0.2014
      7  C         -7.9720    7.4280   24.5760 C.2   213  GLY213      0.2639
      8  O         -7.9980    8.4980   25.1990 O.2   213  GLY213     -0.2714
      9  N         -7.7320    6.2540   25.1410 N.am  214  ALA214     -0.1963
     10  CA        -7.6220    6.1110   26.5750 C.3   214  ALA214      0.1728
     11  C         -6.2360    6.4680   27.0750 C.2   214  ALA214      0.2616
     12  O         -6.0910    7.2390   28.0340 O.2   214  ALA214     -0.2715
     13  CB        -7.9990    4.6820   26.9750 C.3   214  ALA214      0.0334
     14  N         -5.2030    5.9030   26.4560 N.am  215  LYS215     -0.1977
     15  CA        -3.8530    6.0960   26.9550 C.3   215  LYS215      0.1596
     16  C         -3.0940    7.0380   26.0690 C.2   215  LYS215      0.2287
     17  O         -3.4000    7.1930   24.8750 O.2   215  LYS215     -0.2864
     18  CB        -3.0770    4.7660   27.0900 C.3   215  LYS215      0.0298
     19  CG        -2.7260    4.3670   28.5290 C.3   215  LYS215      0.0038
     20  CD        -3.3900    3.0710   28.9760 C.3   215  LYS215      0.0206
     21  CE        -2.6720    1.8490   28.4080 C.3   215  LYS215      0.1093
     22  NZ        -3.5870    0.6760   28.2930 N.3   215  LYS215     -0.1314
     23  N          0.7030    4.6270   24.4760 N.3   218  ASP218     -0.1225
     24  CA         0.6050    3.7680   23.2980 C.3   218  ASP218      0.1805
     25  C          0.2740    4.5450   22.0240 C.2   218  ASP218      0.2597
     26  O          0.2020    3.9530   20.9580 O.2   218  ASP218     -0.2718
     27  CB        -0.4300    2.6420   23.5350 C.3   218  ASP218      0.1424
     28  CG        -1.8310    3.1700   23.8080 C.2   218  ASP218      0.3668
     29  OD1       -1.9980    4.4070   23.9180 O.co2 218  ASP218     -0.2456
     30  OD2       -2.7660    2.3490   23.9310 O.co2 218  ASP218     -0.2456
     31  N          0.0570    5.8610   22.1440 N.am  219  LYS219     -0.1979
     32  CA        -0.2630    6.7420   21.0030 C.3   219  LYS219      0.1596
     33  C          0.8380    7.7820   20.7280 C.2   219  LYS219      0.2287
     34  O          0.6270    8.7170   19.9550 O.2   219  LYS219     -0.2864
     35  CB        -1.6000    7.4400   21.2530 C.3   219  LYS219      0.0298
     36  CG        -2.7540    6.4850   20.9930 C.3   219  LYS219      0.0038
     37  CD        -4.1120    7.1340   21.1450 C.3   219  LYS219      0.0206
     38  CE        -5.1730    6.0780   21.4650 C.3   219  LYS219      0.1093
     39  NZ        -5.0340    5.5740   22.8690 N.3   219  LYS219     -0.1314
     40  N        -10.9060   12.5130   24.5460 N.3   237  GLY237     -0.1210
     41  CA       -11.0530   11.2190   25.1560 C.3   237  GLY237      0.1956
     42  C        -10.3250   11.1780   26.4870 C.2   237  GLY237      0.2612
     43  O        -10.0110   12.2090   27.0780 O.2   237  GLY237     -0.2717
     44  N        -10.0610    9.9650   26.9240 N.am  238  GLY238     -0.1956
     45  CA        -9.4800    9.7270   28.2250 C.3   238  GLY238      0.1869
     46  C         -8.0770   10.2800   28.3070 C.2   238  GLY238      0.2309
     47  O         -7.6590   10.7420   29.3720 O.2   238  GLY238     -0.2863
     48  N         -6.9460   13.8970   30.0960 N.3   241  PHE241     -0.1241
     49  CA        -6.7560   14.1480   31.5360 C.3   241  PHE241      0.1605
     50  C         -5.2850   14.1020   31.9520 C.2   241  PHE241      0.2264
     51  O         -4.8710   14.8490   32.8400 O.2   241  PHE241     -0.2867
     52  CB        -7.6500   13.2280   32.3400 C.3   241  PHE241      0.0534
     53  CG        -9.1020   13.4270   32.0150 C.ar  241  PHE241     -0.0203
     54  CD1       -9.7570   14.5670   32.4430 C.ar  241  PHE241     -0.0042
     55  CD2       -9.7880   12.5250   31.2090 C.ar  241  PHE241     -0.0042
     56  CE1      -11.0900   14.7880   32.0990 C.ar  241  PHE241     -0.0003
     57  CE2      -11.1220   12.7380   30.8660 C.ar  241  PHE241     -0.0003
     58  CZ       -11.7730   13.8730   31.3170 C.ar  241  PHE241     -0.0000
     59  N         -9.0000    8.5030   33.8670 N.3   256  LEU256     -0.1245
     60  CA        -7.7820    7.8040   33.4190 C.3   256  LEU256      0.1561
     61  C         -6.5800    8.7360   33.5740 C.2   256  LEU256      0.2260
     62  O         -6.6550    9.9300   33.2690 O.2   256  LEU256     -0.2867
     63  CB        -7.8550    7.3350   31.9540 C.3   256  LEU256      0.0270
     64  CG        -8.9800    6.3780   31.5750 C.3   256  LEU256      0.0019
     65  CD1       -8.8250    5.9230   30.1390 C.3   256  LEU256      0.0001
     66  CD2       -9.0640    5.1860   32.5170 C.3   256  LEU256      0.0001
     67  N        -17.3550    3.9510   36.3610 N.3   291  PHE291     -0.1241
     68  CA       -17.2320    3.6020   34.9610 C.3   291  PHE291      0.1605
     69  C        -18.3620    2.6500   34.6190 C.2   291  PHE291      0.2264
     70  O        -18.1880    1.4340   34.6150 O.2   291  PHE291     -0.2867
     71  CB       -15.8540    3.0200   34.6560 C.3   291  PHE291      0.0534
     72  CG       -15.5630    2.9160   33.1770 C.ar  291  PHE291     -0.0203
     73  CD1      -15.4360    4.0570   32.4070 C.ar  291  PHE291     -0.0042
     74  CD2      -15.3820    1.6710   32.5600 C.ar  291  PHE291     -0.0042
     75  CE1      -15.1730    3.9720   31.0370 C.ar  291  PHE291     -0.0003
     76  CE2      -15.1160    1.5850   31.1970 C.ar  291  PHE291     -0.0003
     77  CZ       -15.0180    2.7360   30.4390 C.ar  291  PHE291     -0.0000
     78  N        -15.1600   10.5470   37.5490 N.3   311  MET311     -0.1230
     79  CA       -14.2840   10.5670   36.3750 C.3   311  MET311      0.1702
     80  C        -14.9340   11.3030   35.2070 C.2   311  MET311      0.2593
     81  O        -16.1550   11.2870   35.0750 O.2   311  MET311     -0.2718
     82  CB       -13.8960    9.1440   35.9680 C.3   311  MET311      0.0401
     83  CG       -15.0600    8.2350   35.6440 C.3   311  MET311      0.0596
     84  SD       -14.6730    6.4640   35.6280 S.3   311  MET311     -0.1393
     85  CE       -13.1600    6.3470   34.6840 C.3   311  MET311      0.0692
     86  N        -14.0940   11.9410   34.3930 N.am  312  GLY312     -0.1942
     87  CA       -14.5540   12.6090   33.1610 C.3   312  GLY312      0.2014
     88  C        -14.6690   11.5680   32.0460 C.2   312  GLY312      0.2639
     89  O        -13.6650   10.9230   31.6880 O.2   312  GLY312     -0.2714
     90  N        -15.8810   11.3960   31.5190 N.am  313  LEU313     -0.1963
     91  CA       -16.1470   10.3850   30.4880 C.3   313  LEU313      0.1728
     92  C        -16.6150   10.9970   29.1580 C.2   313  LEU313      0.2616
     93  O        -16.7840   10.2600   28.1700 O.2   313  LEU313     -0.2715
     94  CB       -17.1930    9.3880   30.9680 C.3   313  LEU313      0.0311
     95  CG       -16.8460    8.5150   32.1940 C.3   313  LEU313      0.0022
     96  CD1      -17.8790    7.4210   32.3550 C.3   313  LEU313      0.0001
     97  CD2      -15.4690    7.9010   32.0700 C.3   313  LEU313      0.0001
     98  N        -16.8280   12.3180   29.1400 N.am  314  ASP314     -0.1971
     99  CA       -17.1090   13.0570   27.9030 C.3   314  ASP314      0.1709
    100  C        -16.6710   14.5060   28.0660 C.2   314  ASP314      0.2293
    101  O        -16.4560   14.9890   29.1860 O.2   314  ASP314     -0.2864
    102  CB       -18.6270   12.9080   27.5560 C.3   314  ASP314      0.1436
    103  CG       -18.9630   13.2960   26.0930 C.2   314  ASP314      0.3671
    104  OD1      -18.0200   13.4680   25.2850 O.co2 314  ASP314     -0.2456
    105  OD2      -20.1720   13.4830   25.7740 O.co2 314  ASP314     -0.2456
    106  N         -9.1620   10.0890   14.4200 N.3   336  ASN336     -0.1240
    107  CA        -8.9070    8.7600   14.9700 C.3   336  ASN336      0.1653
    108  C         -9.1660    8.7520   16.4710 C.2   336  ASN336      0.2266
    109  O         -8.3370    9.2100   17.2500 O.2   336  ASN336     -0.2867
    110  CB        -7.4570    8.3830   14.6710 C.3   336  ASN336      0.1155
    111  CG        -7.2020    6.9180   14.8620 C.2   336  ASN336      0.2627
    112  OD1       -6.6020    6.4980   15.8620 O.2   336  ASN336     -0.2716
    113  ND2       -7.6880    6.1240   13.9260 N.am  336  ASN336     -0.0877
    114  N        -12.8340    8.4570   19.3130 N.3   338  PRO338     -0.2102
    115  CA       -13.8900    9.2870   19.9280 C.3   338  PRO338      0.1504
    116  C        -13.4180   10.1280   21.0780 C.2   338  PRO338      0.2576
    117  O        -12.3920    9.8390   21.6970 O.2   338  PRO338     -0.2718
    118  CB       -14.9510    8.2670   20.3900 C.3   338  PRO338      0.0282
    119  CG       -14.3750    6.9300   20.1250 C.3   338  PRO338      0.0208
    120  CD       -13.3270    7.0990   19.0450 C.3   338  PRO338      0.0893
    121  N        -14.2010   11.1540   21.3940 N.am  339  VAL339     -0.1966
    122  CA       -13.7650   12.1510   22.3660 C.3   339  VAL339      0.1727
    123  C        -14.4040   11.9240   23.7450 C.2   339  VAL339      0.2617
    124  O        -14.2180   12.7150   24.6870 O.2   339  VAL339     -0.2715
    125  CB       -13.9710   13.6010   21.8680 C.3   339  VAL339      0.0290
    126  CG1      -13.1200   13.8450   20.6500 C.3   339  VAL339      0.0023
    127  CG2      -15.4340   13.9200   21.5600 C.3   339  VAL339      0.0023
    128  N        -15.1660   10.8520   23.8420 N.am  340  GLY340     -0.1940
    129  CA       -15.7660   10.4000   25.0780 C.3   340  GLY340      0.2014
    130  C        -16.2270    8.9610   24.9230 C.2   340  GLY340      0.2639
    131  O        -16.0180    8.3480   23.8650 O.2   340  GLY340     -0.2714
    132  N        -16.8890    8.4360   25.9550 N.am  341  VAL341     -0.1963
    133  CA       -17.3320    7.0370   25.9640 C.3   341  VAL341      0.1727
    134  C        -18.6440    6.9120   25.1400 C.2   341  VAL341      0.2616
    135  O        -19.7470    6.7830   25.6620 O.2   341  VAL341     -0.2715
    136  CB       -17.4530    6.4770   27.4030 C.3   341  VAL341      0.0290
    137  CG1      -17.8230    4.9990   27.3780 C.3   341  VAL341      0.0023
    138  CG2      -16.1420    6.6500   28.1400 C.3   341  VAL341      0.0023
    139  N        -18.4730    6.8950   23.8220 N.am  342  PHE342     -0.1960
    140  CA       -19.5640    6.9860   22.8660 C.3   342  PHE342      0.1771
    141  C        -20.5030    5.7590   22.9030 C.2   342  PHE342      0.2619
    142  O        -21.6280    5.8450   22.4150 O.2   342  PHE342     -0.2715
    143  CB       -18.9670    7.1250   21.4520 C.3   342  PHE342      0.0574
    144  CG       -18.3850    5.8490   20.9360 C.ar  342  PHE342     -0.0200
    145  CD1      -17.0960    5.4590   21.2810 C.ar  342  PHE342     -0.0042
    146  CD2      -19.1700    4.9780   20.1720 C.ar  342  PHE342     -0.0042
    147  CE1      -16.5720    4.2620   20.8320 C.ar  342  PHE342     -0.0003
    148  CE2      -18.6480    3.7740   19.7250 C.ar  342  PHE342     -0.0003
    149  CZ       -17.3510    3.4160   20.0540 C.ar  342  PHE342     -0.0000
    150  N        -20.0350    4.6480   23.4720 N.am  343  GLU343     -0.1977
    151  CA       -20.8480    3.4230   23.6360 C.3   343  GLU343      0.1602
    152  C        -22.0630    3.6360   24.5540 C.2   343  GLU343      0.2287
    153  O        -23.0550    2.9250   24.4390 O.2   343  GLU343     -0.2864
    154  CB       -19.9970    2.2560   24.1980 C.3   343  GLU343      0.0415
    155  CG       -18.8130    1.8090   23.3020 C.3   343  GLU343      0.1163
    156  CD       -17.4590    2.4820   23.6130 C.2   343  GLU343      0.3649
    157  OE1      -17.4310    3.5910   24.1950 O.co2 343  GLU343     -0.2457
    158  OE2      -16.3960    1.8880   23.2510 O.co2 343  GLU343     -0.2457
    159  N        -11.8870    1.1480   13.3210 N.3   373  GLY373     -0.1210
    160  CA       -12.1030    0.8510   14.7410 C.3   373  GLY373      0.1956
    161  C        -13.1930    1.7800   15.2700 C.2   373  GLY373      0.2611
    162  O        -14.1750    2.0350   14.5750 O.2   373  GLY373     -0.2717
    163  N        -13.0160    2.2910   16.4930 N.am  374  ASP374     -0.1973
    164  CA       -14.1130    2.9680   17.2080 C.3   374  ASP374      0.1709
    165  C        -14.7390    4.1480   16.4480 C.2   374  ASP374      0.2293
    166  O        -15.9510    4.3530   16.5230 O.2   374  ASP374     -0.2864
    167  CB       -13.6430    3.4940   18.5760 C.3   374  ASP374      0.1436
    168  CG       -13.3820    2.4060   19.5950 C.2   374  ASP374      0.3671
    169  OD1      -13.8470    1.2470   19.4250 O.co2 374  ASP374     -0.2456
    170  OD2      -12.7070    2.7490   20.6100 O.co2 374  ASP374     -0.2456
@<TRIPOS>BOND
     1   159   160    1
     2   113   111   am
     3   106   107    1
     4   162   161    2
     5   110   111    1
     6   110   107    1
     7   160   161    1
     8   111   112    2
     9   107   108    1
    10   161   163   am
    11   165   166    2
    12   165   164    1
    13   108   109    2
    14   163   164    1
    15   164   167    1
    16   167   168    1
    17   120   114    1
    18   120   119    1
    19   114   115    1
    20   169   168   ar
    21   168   170   ar
    22   148   149   ar
    23   148   146   ar
    24     1     2    1
    25   115   118    1
    26   115   116    1
    27    34    33    2
    28   149   147   ar
    29   119   118    1
    30   146   144   ar
    31     4     3    2
    32   126   125    1
    33    33    32    1
    34   147   145   ar
    35   144   145   ar
    36   144   143    1
    37    26    25    2
    38    36    37    1
    39    36    35    1
    40     2     3    1
    41    32    35    1
    42    32    31    1
    43   116   121   am
    44   116   117    2
    45    37    38    1
    46     3     5   am
    47   121   122    1
    48   143   140    1
    49    38    39    1
    50   127   125    1
    51   125   122    1
    52    25    31   am
    53    25    24    1
    54   122   123    1
    55   142   141    2
    56     5     6    1
    57   140   141    1
    58   140   139    1
    59   141   150   am
    60     6     7    1
    61   158   156   ar
    62    24    27    1
    63    24    23    1
    64   155   156    1
    65   155   154    1
    66   150   151    1
    67    27    28    1
    68   156   157   ar
    69   151   154    1
    70   151   152    1
    71   123   128   am
    72   123   124    2
    73    28    29   ar
    74    28    30   ar
    75   139   134   am
    76   128   129    1
    77   131   130    2
    78   153   152    2
    79    40    41    1
    80     7     9   am
    81     7     8    2
    82    17    16    2
    83   130   129    1
    84   130   132   am
    85   134   135    2
    86   134   133    1
    87     9    10    1
    88    41    42    1
    89   104   103   ar
    90   105   103   ar
    91   132   133    1
    92   133   136    1
    93    16    15    1
    94   103   102    1
    95    14    15    1
    96    14    11   am
    97    42    44   am
    98    42    43    2
    99    10    13    1
   100    10    11    1
   101    44    45    1
   102    15    18    1
   103    11    12    2
   104    18    19    1
   105   137   136    1
   106   136   138    1
   107   102    99    1
   108    99   100    1
   109    99    98    1
   110   100   101    2
   111    93    92    2
   112    45    46    1
   113    22    21    1
   114    46    47    2
   115    21    20    1
   116    19    20    1
   117    98    92   am
   118    92    91    1
   119    48    49    1
   120    65    64    1
   121    77    75   ar
   122    77    76   ar
   123    91    94    1
   124    91    90    1
   125    57    55   ar
   126    57    58   ar
   127    94    95    1
   128    75    73   ar
   129    76    74   ar
   130    55    53   ar
   131    58    56   ar
   132    90    88   am
   133    49    50    1
   134    49    52    1
   135    64    63    1
   136    64    66    1
   137    89    88    2
   138    50    51    2
   139    63    60    1
   140    53    52    1
   141    53    54   ar
   142    88    87    1
   143    97    95    1
   144    56    54   ar
   145    95    96    1
   146    73    72   ar
   147    74    72   ar
   148    87    86    1
   149    72    71    1
   150    62    61    2
   151    60    61    1
   152    60    59    1
   153    86    80   am
   154    70    69    2
   155    69    68    1
   156    71    68    1
   157    85    84    1
   158    68    67    1
   159    81    80    2
   160    80    79    1
   161    84    83    1
   162    83    82    1
   163    82    79    1
   164    79    78    1
