@<TRIPOS>MOLECULE
tmp/5m77B00.pdb
 139 133 0 0 0
SMALL
GASTEIGER

@<TRIPOS>ATOM
      1  N         -3.2060  -11.5770   42.0580 N.3    33  ASP33      -0.1239
      2  CA        -4.6340  -11.9080   42.1050 C.3    33  ASP33       0.1674
      3  C         -4.7890  -13.3680   42.6430 C.2    33  ASP33       0.2266
      4  O         -3.9440  -14.2440   42.3480 O.2    33  ASP33      -0.2867
      5  CB        -5.2410  -11.8500   40.7140 C.3    33  ASP33       0.1410
      6  CG        -5.3570  -10.4580   40.1640 C.2    33  ASP33       0.3668
      7  OD1       -4.8930   -9.4750   40.7980 O.co2  33  ASP33      -0.2456
      8  OD2       -5.8810  -10.3610   39.0720 O.co2  33  ASP33      -0.2456
      9  N         -6.6490  -16.0850   41.8120 N.3    35  TRP35      -0.1241
     10  CA        -6.5810  -17.2850   40.9790 C.3    35  TRP35       0.1605
     11  C         -5.1890  -17.5130   40.4620 C.2    35  TRP35       0.2264
     12  O         -4.7240  -18.6710   40.3750 O.2    35  TRP35      -0.2867
     13  CB        -7.6240  -17.2360   39.8150 C.3    35  TRP35       0.0550
     14  CG        -7.2480  -16.5200   38.5460 C.ar   35  TRP35       0.0003
     15  CD1       -7.3830  -15.1760   38.2780 C.ar   35  TRP35       0.0946
     16  CD2       -6.6430  -17.0880   37.4040 C.ar   35  TRP35       0.0152
     17  NE1       -6.9530  -14.9000   37.0060 N.ar   35  TRP35      -0.2442
     18  CE2       -6.4980  -16.0650   36.4340 C.ar   35  TRP35       0.0810
     19  CE3       -6.2470  -18.3920   37.0630 C.ar   35  TRP35       0.0012
     20  CZ2       -5.9360  -16.2960   35.1830 C.ar   35  TRP35       0.0191
     21  CZ3       -5.7100  -18.6270   35.8580 C.ar   35  TRP35       0.0001
     22  CH2       -5.5480  -17.6060   34.9070 C.ar   35  TRP35       0.0015
     23  N        -16.4750  -16.6090   41.8520 N.3    84  PHE84      -0.1241
     24  CA       -15.8770  -17.2550   40.6790 C.3    84  PHE84       0.1605
     25  C        -15.6100  -18.7370   40.9910 C.2    84  PHE84       0.2264
     26  O        -14.7330  -19.0720   41.7870 O.2    84  PHE84      -0.2867
     27  CB       -14.5540  -16.5950   40.3380 C.3    84  PHE84       0.0534
     28  CG       -14.6710  -15.1510   39.8650 C.ar   84  PHE84      -0.0203
     29  CD1      -14.9720  -14.8630   38.5510 C.ar   84  PHE84      -0.0042
     30  CD2      -14.4940  -14.0660   40.7340 C.ar   84  PHE84      -0.0042
     31  CE1      -15.0800  -13.5620   38.0660 C.ar   84  PHE84      -0.0003
     32  CE2      -14.5980  -12.7210   40.2420 C.ar   84  PHE84      -0.0003
     33  CZ       -14.8390  -12.5050   38.9120 C.ar   84  PHE84      -0.0000
     34  N        -14.2130  -20.8140   38.9410 N.3    86  ASP86      -0.1225
     35  CA       -12.8370  -21.0600   38.4610 C.3    86  ASP86       0.1805
     36  C        -11.7980  -20.7950   39.5200 C.2    86  ASP86       0.2597
     37  O        -10.9520  -21.6520   39.8210 O.2    86  ASP86      -0.2718
     38  CB       -12.5420  -20.3920   37.1100 C.3    86  ASP86       0.1424
     39  CG       -12.7680  -18.8740   37.0560 C.2    86  ASP86       0.3668
     40  OD1      -13.4440  -18.3490   37.9310 O.co2  86  ASP86      -0.2456
     41  OD2      -12.3610  -18.3070   35.9940 O.co2  86  ASP86      -0.2456
     42  N        -11.8930  -19.6370   40.1780 N.am   87  ASP87      -0.1974
     43  CA       -10.9700  -19.3140   41.2610 C.3    87  ASP87       0.1709
     44  C        -10.8940  -20.4600   42.2880 C.2    87  ASP87       0.2293
     45  O         -9.8290  -20.8490   42.7300 O.2    87  ASP87      -0.2864
     46  CB       -11.3610  -18.0360   41.9820 C.3    87  ASP87       0.1436
     47  CG       -11.1390  -16.7800   41.1470 C.2    87  ASP87       0.3671
     48  OD1      -11.0910  -16.8720   39.8840 O.co2  87  ASP87      -0.2456
     49  OD2      -11.0370  -15.6670   41.8360 O.co2  87  ASP87      -0.2456
     50  N        -19.5350  -20.8590   35.2410 N.3   134  TRP134     -0.1241
     51  CA       -18.3700  -20.0240   35.5660 C.3   134  TRP134      0.1605
     52  C        -18.4840  -19.4040   36.9460 C.2   134  TRP134      0.2264
     53  O        -17.5130  -19.4110   37.7060 O.2   134  TRP134     -0.2867
     54  CB       -18.2160  -18.9220   34.5300 C.3   134  TRP134      0.0550
     55  CG       -17.0140  -18.0680   34.6640 C.ar  134  TRP134      0.0003
     56  CD1      -15.7570  -18.4360   34.9740 C.ar  134  TRP134      0.0946
     57  CD2      -16.9610  -16.6490   34.4890 C.ar  134  TRP134      0.0152
     58  NE1      -14.9190  -17.3690   34.9850 N.ar  134  TRP134     -0.2442
     59  CE2      -15.6380  -16.2470   34.7150 C.ar  134  TRP134      0.0810
     60  CE3      -17.9070  -15.6800   34.2000 C.ar  134  TRP134      0.0012
     61  CZ2      -15.2190  -14.8990   34.6240 C.ar  134  TRP134      0.0191
     62  CZ3      -17.5030  -14.3620   34.1330 C.ar  134  TRP134      0.0001
     63  CH2      -16.2000  -13.9780   34.3290 C.ar  134  TRP134      0.0015
     64  N        -17.7120  -22.2820   31.1380 N.3   143  ASN143     -0.1240
     65  CA       -16.4420  -21.8790   30.5560 C.3   143  ASN143      0.1653
     66  C        -15.4130  -22.9930   30.5880 C.2   143  ASN143      0.2266
     67  O        -15.3860  -23.7870   31.5360 O.2   143  ASN143     -0.2867
     68  CB       -15.8560  -20.6460   31.2650 C.3   143  ASN143      0.1155
     69  CG       -16.7210  -19.4250   31.1630 C.2   143  ASN143      0.2627
     70  OD1      -17.9880  -19.5180   31.2380 O.2   143  ASN143     -0.2716
     71  ND2      -16.1070  -18.2950   31.0080 N.am  143  ASN143     -0.0877
     72  N        -12.3530  -22.5190   31.3740 N.3   145  CYS145     -0.1235
     73  CA       -11.4480  -22.2120   32.4680 C.3   145  CYS145      0.1677
     74  C        -11.9510  -22.7330   33.8370 C.2   145  CYS145      0.2270
     75  O        -11.1850  -22.6690   34.8040 O.2   145  CYS145     -0.2867
     76  CB       -11.1850  -20.6940   32.5480 C.3   145  CYS145      0.0956
     77  SG       -12.6940  -19.7150   32.9220 S.3   145  CYS145     -0.0801
     78  N        -13.6890  -20.7250   24.3550 N.3   190  ASP190     -0.1225
     79  CA       -13.6030  -20.1090   25.6610 C.3   190  ASP190      0.1805
     80  C        -14.7660  -20.4360   26.5760 C.2   190  ASP190      0.2597
     81  O        -14.5930  -20.7250   27.7610 O.2   190  ASP190     -0.2718
     82  CB       -13.5460  -18.5700   25.4920 C.3   190  ASP190      0.1424
     83  CG       -13.1120  -17.8960   26.7940 C.2   190  ASP190      0.3668
     84  OD1      -11.8870  -17.9790   27.1130 O.co2 190  ASP190     -0.2456
     85  OD2      -14.0060  -17.3280   27.4990 O.co2 190  ASP190     -0.2456
     86  N        -15.9790  -20.4150   26.0150 N.am  191  ARG191     -0.1979
     87  CA       -17.1620  -20.4900   26.8590 C.3   191  ARG191      0.1597
     88  C        -18.4150  -20.6730   25.9740 C.2   191  ARG191      0.2287
     89  O        -18.3560  -20.4720   24.7820 O.2   191  ARG191     -0.2864
     90  CB       -17.2940  -19.2220   27.7430 C.3   191  ARG191      0.0334
     91  CG       -17.5270  -17.9360   26.9650 C.3   191  ARG191      0.0492
     92  CD       -17.3930  -16.7190   27.8790 C.3   191  ARG191      0.2205
     93  NE       -17.6830  -15.4940   27.1420 N.pl3 191  ARG191     -0.0865
     94  CZ       -16.8210  -14.8600   26.3730 C.cat 191  ARG191      0.5346
     95  NH1      -15.5280  -15.2530   26.2930 N.pl3 191  ARG191      0.1354
     96  NH2      -17.1990  -13.7210   25.6870 N.pl3 191  ARG191      0.1354
     97  N         -7.4080  -19.9090   23.4660 N.3   203  THR203     -0.1218
     98  CA        -6.3040  -19.3360   24.2060 C.3   203  THR203      0.1862
     99  C         -5.3850  -20.4280   24.7340 C.2   203  THR203      0.2287
    100  O         -5.7760  -21.6060   24.8760 O.2   203  THR203     -0.2866
    101  CB        -6.7770  -18.4890   25.3910 C.3   203  THR203      0.1770
    102  OG1       -7.5560  -19.2680   26.3050 O.3   203  THR203     -0.2211
    103  CG2       -7.5460  -17.2720   24.9220 C.3   203  THR203      0.0375
    104  N         -4.1820  -21.0520   27.7870 N.3   205  TYR205     -0.1241
    105  CA        -4.4620  -21.7730   29.0330 C.3   205  TYR205      0.1605
    106  C         -5.5790  -22.8000   28.9050 C.2   205  TYR205      0.2264
    107  O         -5.5330  -23.8280   29.6150 O.2   205  TYR205     -0.2867
    108  CB        -4.6410  -20.8820   30.2460 C.3   205  TYR205      0.0534
    109  CG        -5.9980  -20.2110   30.4600 C.ar  205  TYR205     -0.0201
    110  CD1       -6.6570  -19.5370   29.4430 C.ar  205  TYR205     -0.0009
    111  CD2       -6.5150  -20.1420   31.7220 C.ar  205  TYR205     -0.0009
    112  CE1       -7.8440  -18.8710   29.6840 C.ar  205  TYR205      0.0417
    113  CE2       -7.7150  -19.4580   31.9680 C.ar  205  TYR205      0.0417
    114  CZ        -8.3630  -18.8350   30.9210 C.ar  205  TYR205      0.1957
    115  OH        -9.5240  -18.1490   31.1500 O.3   205  TYR205     -0.2866
    116  N         -4.6590   -8.3420   27.8370 N.3   254  ASN254     -0.1240
    117  CA        -5.5260   -8.8800   28.8860 C.3   254  ASN254      0.1653
    118  C         -4.6900   -9.4720   30.0330 C.2   254  ASN254      0.2266
    119  O         -3.8030  -10.3160   29.8000 O.2   254  ASN254     -0.2867
    120  CB        -6.4730   -9.9280   28.3100 C.3   254  ASN254      0.1155
    121  CG        -7.3810  -10.5320   29.3420 C.2   254  ASN254      0.2627
    122  OD1       -6.9490  -11.3010   30.2240 O.2   254  ASN254     -0.2716
    123  ND2       -8.6370  -10.1360   29.3370 N.am  254  ASN254     -0.0877
    124  N         -5.3600  -11.4270   32.5980 N.3   256  ASP256     -0.1225
    125  CA        -5.5150  -12.8510   32.8700 C.3   256  ASP256      0.1805
    126  C         -4.8330  -13.7500   31.8670 C.2   256  ASP256      0.2597
    127  O         -4.3270  -14.7950   32.2320 O.2   256  ASP256     -0.2718
    128  CB        -7.0280  -13.1790   32.9700 C.3   256  ASP256      0.1424
    129  CG        -7.7040  -12.4160   34.1500 C.2   256  ASP256      0.3668
    130  OD1       -7.1420  -12.4670   35.2870 O.co2 256  ASP256     -0.2456
    131  OD2       -8.7270  -11.7160   33.9060 O.co2 256  ASP256     -0.2456
    132  N         -4.8470  -13.3640   30.6120 N.am  257  LEU257     -0.1979
    133  CA        -4.2440  -14.1630   29.5170 C.3   257  LEU257      0.1596
    134  C         -2.7610  -14.0330   29.4170 C.2   257  LEU257      0.2287
    135  O         -2.0830  -14.8910   28.8420 O.2   257  LEU257     -0.2864
    136  CB        -4.9020  -13.8530   28.1700 C.3   257  LEU257      0.0297
    137  CG        -6.4390  -14.0890   28.0820 C.3   257  LEU257      0.0022
    138  CD1       -6.8500  -13.7300   26.6620 C.3   257  LEU257      0.0001
    139  CD2       -6.8110  -15.5540   28.4110 C.3   257  LEU257      0.0001
@<TRIPOS>BOND
     1    97    98    1
     2    98    99    1
     3    98   101    1
     4    78    79    1
     5    99   100    2
     6    89    88    2
     7   103   101    1
     8   101   102    1
     9    82    79    1
    10    82    83    1
    11    79    80    1
    12    96    94    1
    13    88    87    1
    14    86    80   am
    15    86    87    1
    16    95    94    1
    17    94    93    2
    18    80    81    2
    19   138   137    1
    20    83    84   ar
    21    83    85   ar
    22    87    90    1
    23    91    90    1
    24    91    92    1
    25    93    92    1
    26   104   105    1
    27   116   117    1
    28   137   136    1
    29   137   139    1
    30   136   133    1
    31   120   117    1
    32   120   121    1
    33   135   134    2
    34   117   118    1
    35   106   105    1
    36   106   107    2
    37   105   108    1
    38   123   121   am
    39   121   122    2
    40   134   133    1
    41   110   112   ar
    42   110   109   ar
    43   133   132    1
    44   112   114   ar
    45   119   118    2
    46   108   109    1
    47   109   111   ar
    48    65    66    1
    49    65    64    1
    50    65    68    1
    51    66    67    2
    52   132   126   am
    53   114   115    1
    54   114   113   ar
    55    71    69   am
    56    69    70    2
    57    69    68    1
    58    72    73    1
    59   111   113   ar
    60   126   127    2
    61   126   125    1
    62    73    76    1
    63    73    74    1
    64    76    77    1
    65   124   125    1
    66   125   128    1
    67   128   129    1
    68    74    75    2
    69   131   129   ar
    70    62    60   ar
    71    62    63   ar
    72   129   130   ar
    73    60    57   ar
    74    63    61   ar
    75    57    55   ar
    76    57    59   ar
    77    54    55    1
    78    54    51    1
    79    61    59   ar
    80    55    56   ar
    81    59    58   ar
    82    22    20   ar
    83    22    21   ar
    84    56    58   ar
    85    20    18   ar
    86    50    51    1
    87    51    52    1
    88    21    19   ar
    89    41    39   ar
    90    18    17   ar
    91    18    16   ar
    92    52    53    2
    93    17    15   ar
    94    39    38    1
    95    39    40   ar
    96    19    16   ar
    97    38    35    1
    98    16    14   ar
    99    31    29   ar
   100    31    33   ar
   101    15    14   ar
   102    35    34    1
   103    35    36    1
   104    14    13    1
   105    29    28   ar
   106    33    32   ar
   107     8     6   ar
   108    36    37    2
   109    36    42   am
   110    13    10    1
   111    28    27    1
   112    28    30   ar
   113    48    47   ar
   114     6     5    1
   115     6     7   ar
   116    42    43    1
   117    32    30   ar
   118    27    24    1
   119    12    11    2
   120    11    10    1
   121    24    25    1
   122    24    23    1
   123     5     2    1
   124    10     9    1
   125    25    26    2
   126    47    49   ar
   127    47    46    1
   128    43    46    1
   129    43    44    1
   130     1     2    1
   131     2     3    1
   132    44    45    2
   133     4     3    2
