@<TRIPOS>MOLECULE
tmp/5m78A01.pdb
 104 103 0 0 0
SMALL
GASTEIGER

@<TRIPOS>ATOM
      1  N         -9.5990    7.4450   81.0480 N.3    91  GLN91      -0.1245
      2  CA        -9.3260    6.2920   80.2020 C.3    91  GLN91       0.1566
      3  C         -9.6090    5.0300   80.9890 C.2    91  GLN91       0.2260
      4  O         -9.6520    5.0430   82.2230 O.2    91  GLN91      -0.2867
      5  CB        -7.8800    6.2620   79.6850 C.3    91  GLN91       0.0367
      6  CG        -6.8350    6.3610   80.7670 C.3    91  GLN91       0.0905
      7  CD        -6.1080    5.0710   81.0780 C.2    91  GLN91       0.2608
      8  OE1       -6.6770    3.9840   81.1010 O.2    91  GLN91      -0.2717
      9  NE2       -4.8370    5.2030   81.4290 N.am   91  GLN91      -0.0878
     10  N         -8.2630    0.7110   80.7440 N.3    93  HIS93      -0.1241
     11  CA        -7.3800   -0.2780   80.1570 C.3    93  HIS93       0.1621
     12  C         -7.5100   -1.5570   80.9670 C.2    93  HIS93       0.2264
     13  O         -8.1330   -1.5690   82.0390 O.2    93  HIS93      -0.2867
     14  CB        -5.9340    0.2280   80.1490 C.3    93  HIS93       0.0745
     15  CG        -5.4120    0.4740   81.5270 C.ar   93  HIS93       0.0817
     16  ND1       -5.5360    1.6830   82.1710 N.ar   93  HIS93      -0.2268
     17  CD2       -4.8210   -0.3690   82.4130 C.ar   93  HIS93       0.1154
     18  CE1       -5.0220    1.5770   83.3910 C.ar   93  HIS93       0.1986
     19  NE2       -4.5840    0.3380   83.5660 N.ar   93  HIS93      -0.2212
     20  N         -9.2010   -1.4860   84.6570 N.3   118  HIS118     -0.1241
     21  CA        -8.9640   -0.2650   85.4240 C.3   118  HIS118      0.1621
     22  C         -9.6070    0.9100   84.7060 C.2   118  HIS118      0.2264
     23  O         -9.1770    1.2830   83.6070 O.2   118  HIS118     -0.2867
     24  CB        -7.4660   -0.0110   85.5500 C.3   118  HIS118      0.0745
     25  CG        -6.7990   -1.0090   86.4250 C.ar  118  HIS118      0.0817
     26  ND1       -5.4390   -1.2520   86.4100 N.ar  118  HIS118     -0.2268
     27  CD2       -7.3280   -1.8270   87.3610 C.ar  118  HIS118      0.1154
     28  CE1       -5.1670   -2.1790   87.3150 C.ar  118  HIS118      0.1986
     29  NE2       -6.2960   -2.5520   87.8970 N.ar  118  HIS118     -0.2212
     30  N         -9.8380    4.7460   85.0530 N.3   120  VAL120     -0.1245
     31  CA        -8.9880    5.7480   85.6940 C.3   120  VAL120      0.1561
     32  C         -9.6910    7.1030   85.6890 C.2   120  VAL120      0.2260
     33  O        -10.1100    7.5870   84.6300 O.2   120  VAL120     -0.2867
     34  CB        -7.6350    5.8400   84.9680 C.3   120  VAL120      0.0252
     35  CG1       -6.7500    6.8700   85.6240 C.3   120  VAL120      0.0019
     36  CG2       -6.9450    4.4840   84.9220 C.3   120  VAL120      0.0019
     37  N         -5.4670   16.0890   84.7060 N.3   129  PHE129     -0.1241
     38  CA        -4.8390   14.8490   85.1350 C.3   129  PHE129      0.1605
     39  C         -3.4090   15.0790   85.5970 C.2   129  PHE129      0.2264
     40  O         -2.9800   14.4970   86.5990 O.2   129  PHE129     -0.2867
     41  CB        -4.8920   13.8440   83.9840 C.3   129  PHE129      0.0534
     42  CG        -4.2110   12.5350   84.2900 C.ar  129  PHE129     -0.0203
     43  CD1       -4.8900   11.5060   84.9140 C.ar  129  PHE129     -0.0042
     44  CD2       -2.8860   12.3270   83.9470 C.ar  129  PHE129     -0.0042
     45  CE1       -4.2650   10.2870   85.1950 C.ar  129  PHE129     -0.0003
     46  CE2       -2.2610   11.1220   84.2370 C.ar  129  PHE129     -0.0003
     47  CZ        -2.9580   10.1050   84.8510 C.ar  129  PHE129     -0.0000
     48  N         -9.2370    4.9070   90.9120 N.3   141  VAL141     -0.1245
     49  CA        -9.2620    3.8510   89.9100 C.3   141  VAL141      0.1561
     50  C        -10.2620    2.8000   90.3660 C.2   141  VAL141      0.2260
     51  O        -10.1570    2.2680   91.4840 O.2   141  VAL141     -0.2867
     52  CB        -7.8730    3.2520   89.6280 C.3   141  VAL141      0.0252
     53  CG1       -7.9940    2.2140   88.5140 C.3   141  VAL141      0.0019
     54  CG2       -6.8840    4.3400   89.1960 C.3   141  VAL141      0.0019
     55  N         -0.5220    4.1650   90.9050 N.3   196  LEU196     -0.1231
     56  CA        -0.5210    3.6000   89.5630 C.3   196  LEU196      0.1693
     57  C          0.2860    2.3010   89.5620 C.2   196  LEU196      0.2593
     58  O          1.2600    2.1610   90.3010 O.2   196  LEU196     -0.2718
     59  CB         0.1530    4.5780   88.5990 C.3   196  LEU196      0.0284
     60  CG        -0.4580    5.9760   88.5120 C.3   196  LEU196      0.0019
     61  CD1        0.3400    6.8590   87.5590 C.3   196  LEU196      0.0001
     62  CD2       -1.9240    5.8590   88.1170 C.3   196  LEU196      0.0001
     63  N         -0.0910    1.3420   88.7040 N.am  197  THR197     -0.1939
     64  CA         0.6070    0.0600   88.6720 C.3   197  THR197      0.2028
     65  C          1.5780   -0.0560   87.5180 C.2   197  THR197      0.2643
     66  O          2.2230   -1.0940   87.3790 O.2   197  THR197     -0.2714
     67  CB        -0.3520   -1.1250   88.6500 C.3   197  THR197      0.1808
     68  OG1       -1.0230   -1.1320   87.3840 O.3   197  THR197     -0.2208
     69  CG2       -1.3440   -1.0740   89.8050 C.3   197  THR197      0.0379
     70  N          1.7320    0.9950   86.7290 N.am  198  THR198     -0.1937
     71  CA         2.7980    1.0760   85.7430 C.3   198  THR198      0.2013
     72  C          3.6200    2.3200   86.0250 C.2   198  THR198      0.2484
     73  O          3.1160    3.2890   86.6050 O.2   198  THR198     -0.2729
     74  CB         2.2550    1.1690   84.3120 C.3   198  THR198      0.1807
     75  OG1        1.3730    2.2920   84.2000 O.3   198  THR198     -0.2208
     76  CG2        1.5200   -0.0950   83.9390 C.3   198  THR198      0.0379
     77  N          4.8890    2.3500   85.5880 N.am  199  PRO199     -0.2715
     78  CA         5.6740    3.5810   85.6670 C.3   199  PRO199      0.1521
     79  C          4.8680    4.7440   85.1170 C.2   199  PRO199      0.2440
     80  O          4.2520    4.6170   84.0680 O.2   199  PRO199     -0.2731
     81  CB         6.9040    3.2500   84.8180 C.3   199  PRO199      0.0310
     82  CG         7.0650    1.7920   85.0550 C.3   199  PRO199      0.0237
     83  CD         5.6770    1.2440   85.0250 C.3   199  PRO199      0.0939
     84  N          4.8800    5.8890   85.8070 N.am  200  PRO200     -0.2727
     85  CA         5.7650    6.2820   86.9110 C.3   200  PRO200      0.1402
     86  C          5.3340    5.8580   88.3310 C.2   200  PRO200      0.2269
     87  O          5.9670    6.3220   89.2750 O.2   200  PRO200     -0.2865
     88  CB         5.8190    7.8080   86.7720 C.3   200  PRO200      0.0296
     89  CG         4.5130    8.1630   86.1820 C.3   200  PRO200      0.0237
     90  CD         4.1500    7.0420   85.2540 C.3   200  PRO200      0.0939
     91  N         -7.9360    3.4250   95.4320 N.3   207  TRP207     -0.1241
     92  CA        -8.3920    2.2210   94.7460 C.3   207  TRP207      0.1605
     93  C         -9.7780    1.8280   95.2250 C.2   207  TRP207      0.2264
     94  O        -10.0590    1.8320   96.4310 O.2   207  TRP207     -0.2867
     95  CB        -7.4150    1.0590   94.9830 C.3   207  TRP207      0.0550
     96  CG        -6.2750    1.1420   94.0280 C.ar  207  TRP207      0.0003
     97  CD1       -5.0520    1.7030   94.2400 C.ar  207  TRP207      0.0946
     98  CD2       -6.2950    0.7160   92.6710 C.ar  207  TRP207      0.0152
     99  NE1       -4.3040    1.6410   93.0890 N.ar  207  TRP207     -0.2442
    100  CE2       -5.0470    1.0300   92.1100 C.ar  207  TRP207      0.0810
    101  CE3       -7.2560    0.0830   91.8750 C.ar  207  TRP207      0.0012
    102  CZ2       -4.7280    0.7380   90.7880 C.ar  207  TRP207      0.0191
    103  CZ3       -6.9310   -0.2270   90.5740 C.ar  207  TRP207      0.0001
    104  CH2       -5.6840    0.1180   90.0300 C.ar  207  TRP207      0.0015
@<TRIPOS>BOND
     1     5     2    1
     2     5     6    1
     3    14    11    1
     4    14    15    1
     5    11    10    1
     6    11    12    1
     7     2     3    1
     8     2     1    1
     9     6     7    1
    10    12    13    2
    11     3     4    2
    12     7     8    2
    13     7     9   am
    14    15    16   ar
    15    15    17   ar
    16    16    18   ar
    17    17    19   ar
    18    18    19   ar
    19    23    22    2
    20    76    74    1
    21    44    46   ar
    22    44    42   ar
    23    41    42    1
    24    41    38    1
    25    80    79    2
    26    75    74    1
    27    46    47   ar
    28    42    43   ar
    29    74    71    1
    30    33    32    2
    31    20    21    1
    32    37    38    1
    33    22    21    1
    34    81    82    1
    35    81    78    1
    36    47    45   ar
    37    43    45   ar
    38    36    34    1
    39    34    35    1
    40    34    31    1
    41    83    82    1
    42    83    77    1
    43    30    31    1
    44    79    78    1
    45    79    84   am
    46    38    39    1
    47    90    84    1
    48    90    89    1
    49    21    24    1
    50    24    25    1
    51    77    78    1
    52    77    72   am
    53    39    40    2
    54    32    31    1
    55    71    72    1
    56    71    70    1
    57    84    85    1
    58    72    73    2
    59    89    88    1
    60    26    25   ar
    61    26    28   ar
    62    25    27   ar
    63    70    65   am
    64    88    85    1
    65    85    86    1
    66    28    29   ar
    67    27    29   ar
    68    66    65    2
    69    68    67    1
    70    65    64    1
    71    61    60    1
    72    62    60    1
    73    86    87    2
    74    60    59    1
    75    53    52    1
    76    59    56    1
    77    67    64    1
    78    67    69    1
    79    64    63    1
    80    63    57   am
    81    54    52    1
    82    57    56    1
    83    57    58    2
    84    56    55    1
    85    52    49    1
    86    49    50    1
    87    49    48    1
    88   104   103   ar
    89   104   102   ar
    90    50    51    2
    91   103   101   ar
    92   102   100   ar
    93   101    98   ar
    94   100    98   ar
    95   100    99   ar
    96    98    96   ar
    97    99    97   ar
    98    96    97   ar
    99    96    95    1
   100    92    95    1
   101    92    93    1
   102    92    91    1
   103    93    94    2
