@<TRIPOS>MOLECULE
tmp/5m79A00.pdb
 138 133 0 0 0
SMALL
GASTEIGER

@<TRIPOS>ATOM
      1  N        -17.4440  -26.1420    1.5830 N.3    60  PHE60      -0.1241
      2  CA       -17.6830  -26.7100    2.8970 C.3    60  PHE60       0.1605
      3  C        -18.7510  -25.9190    3.6240 C.2    60  PHE60       0.2264
      4  O        -18.7110  -24.6830    3.6590 O.2    60  PHE60      -0.2867
      5  CB       -16.3910  -26.7590    3.7050 C.3    60  PHE60       0.0534
      6  CG       -15.4430  -27.7780    3.1990 C.ar   60  PHE60      -0.0203
      7  CD1      -14.7440  -27.5530    2.0250 C.ar   60  PHE60      -0.0042
      8  CD2      -15.2380  -28.9580    3.8770 C.ar   60  PHE60      -0.0042
      9  CE1      -13.8920  -28.5200    1.5130 C.ar   60  PHE60      -0.0003
     10  CE2      -14.3690  -29.9500    3.3660 C.ar   60  PHE60      -0.0003
     11  CZ       -13.6950  -29.7020    2.1830 C.ar   60  PHE60      -0.0000
     12  N        -20.2940  -26.4110    7.1720 N.3    62  ILE62      -0.1231
     13  CA       -20.2320  -27.2160    8.3740 C.3    62  ILE62       0.1692
     14  C        -20.7480  -26.3630    9.5250 C.2    62  ILE62       0.2591
     15  O        -20.4450  -25.1660    9.6210 O.2    62  ILE62      -0.2718
     16  CB       -18.7930  -27.7500    8.5610 C.3    62  ILE62       0.0266
     17  CG1      -18.4790  -28.7590    7.4460 C.3    62  ILE62       0.0019
     18  CG2      -18.6010  -28.3640    9.9200 C.3    62  ILE62       0.0020
     19  CD1      -17.0210  -29.1050    7.3190 C.3    62  ILE62       0.0001
     20  N        -21.5960  -26.9690   10.3440 N.am   63  LYS63      -0.1980
     21  CA       -22.2460  -26.3010   11.4530 C.3    63  LYS63       0.1596
     22  C        -23.1290  -25.1760   10.9150 C.2    63  LYS63       0.2287
     23  O        -23.9610  -25.4150   10.0270 O.2    63  LYS63      -0.2864
     24  CB       -21.2470  -25.9150   12.5270 C.3    63  LYS63       0.0298
     25  CG       -20.6160  -27.1230   13.1890 C.3    63  LYS63       0.0038
     26  CD       -19.5760  -26.7450   14.2740 C.3    63  LYS63       0.0206
     27  CE       -18.4050  -26.0210   13.7210 C.3    63  LYS63       0.1093
     28  NZ       -17.4900  -25.6530   14.8230 N.3    63  LYS63      -0.1314
     29  N        -22.7080  -22.7860    8.9680 N.3    65  TYR65      -0.1241
     30  CA       -22.4610  -22.2790    7.6370 C.3    65  TYR65       0.1605
     31  C        -23.3450  -22.9190    6.5810 C.2    65  TYR65       0.2264
     32  O        -23.3440  -22.4540    5.4350 O.2    65  TYR65      -0.2867
     33  CB       -20.9870  -22.4520    7.2860 C.3    65  TYR65       0.0534
     34  CG       -20.0740  -21.4320    7.8920 C.ar   65  TYR65      -0.0201
     35  CD1      -19.9120  -21.3240    9.2480 C.ar   65  TYR65      -0.0009
     36  CD2      -19.3780  -20.5750    7.1020 C.ar   65  TYR65      -0.0009
     37  CE1      -19.0860  -20.3920    9.7980 C.ar   65  TYR65       0.0417
     38  CE2      -18.5060  -19.6170    7.6380 C.ar   65  TYR65       0.0417
     39  CZ       -18.3810  -19.5310    8.9880 C.ar   65  TYR65       0.1957
     40  OH       -17.5380  -18.6080    9.5550 O.3    65  TYR65      -0.2866
     41  N        -13.3240  -23.1380   14.5260 N.3   120  TRP120     -0.1241
     42  CA       -13.4030  -22.7200   13.1310 C.3   120  TRP120      0.1605
     43  C        -12.0680  -22.8830   12.4400 C.2   120  TRP120      0.2264
     44  O        -12.0320  -23.2210   11.2650 O.2   120  TRP120     -0.2867
     45  CB       -13.9380  -21.2880   12.9860 C.3   120  TRP120      0.0550
     46  CG       -13.0010  -20.1660   13.4000 C.ar  120  TRP120      0.0003
     47  CD1      -12.9890  -19.5090   14.5970 C.ar  120  TRP120      0.0946
     48  CD2      -12.0010  -19.5260   12.5790 C.ar  120  TRP120      0.0152
     49  NE1      -12.0300  -18.5250   14.5800 N.ar  120  TRP120     -0.2442
     50  CE2      -11.4110  -18.5110   13.3570 C.ar  120  TRP120      0.0810
     51  CE3      -11.5470  -19.7240   11.2730 C.ar  120  TRP120      0.0012
     52  CZ2      -10.3640  -17.7110   12.8790 C.ar  120  TRP120      0.0191
     53  CZ3      -10.5120  -18.9290   10.7940 C.ar  120  TRP120      0.0001
     54  CH2       -9.9330  -17.9320   11.5960 C.ar  120  TRP120      0.0015
     55  N        -11.9090  -26.4450   11.2410 N.3   123  VAL123     -0.1231
     56  CA       -12.8230  -26.6200   10.1150 C.3   123  VAL123      0.1692
     57  C        -12.1770  -26.0980    8.8500 C.2   123  VAL123      0.2592
     58  O        -12.1450  -26.7710    7.8160 O.2   123  VAL123     -0.2718
     59  CB       -14.1910  -25.9500   10.3690 C.3   123  VAL123      0.0266
     60  CG1      -15.0780  -26.1430    9.1570 C.3   123  VAL123      0.0020
     61  CG2      -14.8710  -26.4950   11.6170 C.3   123  VAL123      0.0020
     62  N        -11.6730  -24.8630    8.9190 N.am  124  SER124     -0.1952
     63  CA       -11.0620  -24.2200    7.7570 C.3   124  SER124      0.1924
     64  C         -9.8440  -25.0070    7.2680 C.2   124  SER124      0.2314
     65  O         -9.6870  -25.2540    6.0640 O.2   124  SER124     -0.2863
     66  CB       -10.6760  -22.7840    8.1580 C.3   124  SER124      0.2116
     67  OG       -10.2180  -22.0420    7.0390 O.3   124  SER124     -0.2180
     68  N        -10.1300  -28.6340    5.4760 N.3   127  ARG127     -0.1245
     69  CA       -10.5480  -28.7160    4.0850 C.3   127  ARG127      0.1563
     70  C         -9.4360  -29.3020    3.2190 C.2   127  ARG127      0.2260
     71  O         -9.7060  -30.0100    2.2520 O.2   127  ARG127     -0.2867
     72  CB       -10.9300  -27.3160    3.6050 C.3   127  ARG127      0.0307
     73  CG       -12.1510  -26.7170    4.3140 C.3   127  ARG127      0.0489
     74  CD       -12.5840  -25.4270    3.7220 C.3   127  ARG127      0.2205
     75  NE       -11.6180  -24.3420    3.9260 N.pl3 127  ARG127     -0.0865
     76  CZ       -11.7210  -23.1480    3.3640 C.cat 127  ARG127      0.5346
     77  NH1      -12.7230  -22.9190    2.5270 N.pl3 127  ARG127      0.1354
     78  NH2      -10.8210  -22.2000    3.6200 N.pl3 127  ARG127      0.1354
     79  N        -14.6030  -20.7070   -0.4100 N.3   150  ASP150     -0.1225
     80  CA       -15.4010  -20.4600    0.8010 C.3   150  ASP150      0.1805
     81  C        -16.8980  -20.3580    0.4400 C.2   150  ASP150      0.2598
     82  O        -17.2770  -19.9540   -0.6630 O.2   150  ASP150     -0.2718
     83  CB       -15.0060  -19.1260    1.4230 C.3   150  ASP150      0.1424
     84  CG       -13.7940  -19.1730    2.2720 C.2   150  ASP150      0.3668
     85  OD1      -12.9790  -20.0930    2.1770 O.co2 150  ASP150     -0.2456
     86  OD2      -13.6280  -18.2100    3.0680 O.co2 150  ASP150     -0.2456
     87  N        -17.7580  -20.7020    1.4140 N.am  151  VAL151     -0.1966
     88  CA       -19.2000  -20.7640    1.1970 C.3   151  VAL151      0.1727
     89  C        -19.8950  -19.4600    1.5400 C.2   151  VAL151      0.2616
     90  O        -20.9960  -19.2320    1.0290 O.2   151  VAL151     -0.2715
     91  CB       -19.8290  -21.9310    1.9830 C.3   151  VAL151      0.0290
     92  CG1      -19.9110  -21.6130    3.4830 C.3   151  VAL151      0.0023
     93  CG2      -21.1670  -22.2890    1.4580 C.3   151  VAL151      0.0023
     94  N        -19.2840  -18.6330    2.3910 N.am  152  ASP152     -0.1971
     95  CA       -19.9000  -17.4060    2.8830 C.3   152  ASP152      0.1709
     96  C        -19.7410  -16.2580    1.8960 C.2   152  ASP152      0.2293
     97  O        -19.2640  -15.1580    2.2160 O.2   152  ASP152     -0.2864
     98  CB       -19.3260  -17.0580    4.2720 C.3   152  ASP152      0.1436
     99  CG       -17.8070  -16.9220    4.2970 C.2   152  ASP152      0.3671
    100  OD1      -17.0690  -17.4960    3.4680 O.co2 152  ASP152     -0.2456
    101  OD2      -17.3230  -16.2220    5.2150 O.co2 152  ASP152     -0.2456
    102  N        -21.8630  -10.8350    7.5560 N.3   285  LYS285     -0.1245
    103  CA       -21.5920  -11.9800    8.4190 C.3   285  LYS285      0.1561
    104  C        -21.2580  -11.4380    9.7990 C.2   285  LYS285      0.2260
    105  O        -20.7450  -10.3250    9.9240 O.2   285  LYS285     -0.2867
    106  CB       -20.3770  -12.7740    7.8910 C.3   285  LYS285      0.0271
    107  CG       -20.4380  -14.2820    8.0860 C.3   285  LYS285      0.0035
    108  CD       -19.2740  -15.0320    7.3920 C.3   285  LYS285      0.0206
    109  CE       -18.0480  -15.1520    8.2860 C.3   285  LYS285      0.1093
    110  NZ       -16.9010  -16.0040    7.7960 N.3   285  LYS285     -0.1314
    111  N        -18.8240  -12.8030   12.3930 N.3   287  HIS287     -0.1241
    112  CA       -17.7890  -13.8370   12.4390 C.3   287  HIS287      0.1621
    113  C        -17.8790  -14.6690   13.7120 C.2   287  HIS287      0.2264
    114  O        -18.0530  -15.8900   13.6620 O.2   287  HIS287     -0.2867
    115  CB       -16.4030  -13.1900   12.3350 C.3   287  HIS287      0.0745
    116  CG       -15.7160  -13.4120   11.0230 C.ar  287  HIS287      0.0817
    117  ND1      -14.8490  -12.4930   10.4640 N.ar  287  HIS287     -0.2268
    118  CD2      -15.7450  -14.4620   10.1710 C.ar  287  HIS287      0.1154
    119  CE1      -14.3940  -12.9600    9.3170 C.ar  287  HIS287      0.1986
    120  NE2      -14.9210  -14.1530    9.1150 N.ar  287  HIS287     -0.2212
    121  N        -21.2020  -16.7860   14.0840 N.3   290  VAL290     -0.1231
    122  CA       -21.4470  -17.8770   13.1440 C.3   290  VAL290      0.1692
    123  C        -20.3820  -18.9700   13.2410 C.2   290  VAL290      0.2591
    124  O        -20.6520  -20.1230   12.8940 O.2   290  VAL290     -0.2718
    125  CB       -21.6370  -17.3380   11.7140 C.3   290  VAL290      0.0266
    126  CG1      -20.3490  -16.8260   11.1440 C.3   290  VAL290      0.0020
    127  CG2      -22.2510  -18.3930   10.8010 C.3   290  VAL290      0.0020
    128  N        -19.1770  -18.6460   13.7150 N.am  291  ARG291     -0.1980
    129  CA       -18.1320  -19.6490   13.9080 C.3   291  ARG291      0.1597
    130  C        -18.2560  -20.3890   15.2330 C.2   291  ARG291      0.2287
    131  O        -17.4750  -21.3210   15.4740 O.2   291  ARG291     -0.2864
    132  CB       -16.7520  -18.9930   13.8430 C.3   291  ARG291      0.0334
    133  CG       -16.3640  -18.4950   12.4640 C.3   291  ARG291      0.0492
    134  CD       -15.1320  -17.5840   12.5470 C.3   291  ARG291      0.2205
    135  NE       -14.4660  -17.4070   11.2500 N.pl3 291  ARG291     -0.0865
    136  CZ       -13.5180  -16.5050   11.0210 C.cat 291  ARG291      0.5346
    137  NH1      -12.9950  -16.3950    9.8110 N.pl3 291  ARG291      0.1354
    138  NH2      -13.1100  -15.6950   11.9950 N.pl3 291  ARG291      0.1354
@<TRIPOS>BOND
     1    82    81    2
     2    79    80    1
     3    81    80    1
     4    81    87   am
     5    80    83    1
     6    90    89    2
     7    88    87    1
     8    88    89    1
     9    88    91    1
    10    83    84    1
    11    93    91    1
    12     9     7   ar
    13     9    11   ar
    14    89    94   am
    15     1     2    1
    16    96    97    2
    17    96    95    1
    18    91    92    1
    19     7     6   ar
    20    85    84   ar
    21    11    10   ar
    22    71    70    2
    23    84    86   ar
    24    94    95    1
    25    77    76    1
    26    95    98    1
    27     2     3    1
    28     2     5    1
    29     6     5    1
    30     6     8   ar
    31    70    69    1
    32    76    78    1
    33    76    75    2
    34    10     8   ar
    35   100    99   ar
    36    72    69    1
    37    72    73    1
    38     3     4    2
    39    74    75    1
    40    74    73    1
    41    69    68    1
    42    98    99    1
    43    99   101   ar
    44    32    31    2
    45    65    64    2
    46    31    30    1
    47    67    66    1
    48    36    38   ar
    49    36    34   ar
    50    12    13    1
    51    64    63    1
    52    33    30    1
    53    33    34    1
    54    19    17    1
    55   108   107    1
    56   108   109    1
    57    17    16    1
    58   102   103    1
    59    30    29    1
    60    38    39   ar
    61    63    66    1
    62    63    62    1
    63   110   109    1
    64    58    57    2
    65   106   107    1
    66   106   103    1
    67    34    35   ar
    68    13    16    1
    69    13    14    1
    70   103   104    1
    71    16    18    1
    72    57    62   am
    73    57    56    1
    74    39    40    1
    75    39    37   ar
    76   120   119   ar
    77   120   118   ar
    78    60    59    1
    79    35    37   ar
    80   119   117   ar
    81    14    15    2
    82    14    20   am
    83   104   105    2
    84   137   136    1
    85    23    22    2
    86    56    59    1
    87    56    55    1
    88   118   116   ar
    89    20    21    1
    90    59    61    1
    91   117   116   ar
    92    53    51   ar
    93    53    54   ar
    94   127   125    1
    95    22    21    1
    96   136   135    2
    97   136   138    1
    98   116   115    1
    99   126   125    1
   100   135   134    1
   101    44    43    2
   102    51    48   ar
   103    21    24    1
   104    54    52   ar
   105   125   122    1
   106   115   112    1
   107   111   112    1
   108   112   113    1
   109    43    42    1
   110   133   134    1
   111   133   132    1
   112    24    25    1
   113    48    50   ar
   114    48    46   ar
   115    52    50   ar
   116   124   123    2
   117    45    42    1
   118    45    46    1
   119    42    41    1
   120   122   123    1
   121   122   121    1
   122    25    26    1
   123   123   128   am
   124    50    49   ar
   125    46    47   ar
   126   114   113    2
   127   128   129    1
   128    27    26    1
   129    27    28    1
   130   132   129    1
   131   129   130    1
   132    49    47   ar
   133   130   131    2
