@<TRIPOS>MOLECULE
tmp/5m7fA00.pdb
 203 190 0 0 0
SMALL
GASTEIGER

@<TRIPOS>ATOM
      1  N          2.1450  -11.1100   13.5300 N.3    11  LEU11      -0.1245
      2  CA         2.4590  -10.6070   14.8750 C.3    11  LEU11       0.1561
      3  C          1.3260  -10.8800   15.8820 C.2    11  LEU11       0.2260
      4  O          1.6000  -11.1740   17.0440 O.2    11  LEU11      -0.2867
      5  CB         2.8350   -9.1140   14.8380 C.3    11  LEU11       0.0270
      6  CG         3.5970   -8.5360   16.0460 C.3    11  LEU11       0.0019
      7  CD1        4.7090   -9.4490   16.5420 C.3    11  LEU11       0.0001
      8  CD2        4.2780   -7.2260   15.6860 C.3    11  LEU11       0.0001
      9  N          1.7390  -13.4450   19.3670 N.3    15  GLN15      -0.1245
     10  CA         1.2750  -12.9320   20.6570 C.3    15  GLN15       0.1566
     11  C          0.1830  -13.8270   21.2180 C.2    15  GLN15       0.2260
     12  O          0.1490  -14.1010   22.4180 O.2    15  GLN15      -0.2867
     13  CB         0.7220  -11.5220   20.4800 C.3    15  GLN15       0.0367
     14  CG         1.7930  -10.4620   20.1990 C.3    15  GLN15       0.0905
     15  CD         1.2250   -9.1220   19.8070 C.2    15  GLN15       0.2608
     16  OE1        0.0010   -8.9270   19.7490 O.2    15  GLN15      -0.2717
     17  NE2        2.1120   -8.1630   19.5250 N.am   15  GLN15      -0.0878
     18  N         -2.2820   -6.2060   21.8170 N.3    60  SER60      -0.1217
     19  CA        -1.2100   -5.4130   22.4160 C.3    60  SER60       0.1889
     20  C         -1.9090   -4.3560   23.2760 C.2    60  SER60       0.2288
     21  O         -2.9450   -3.8040   22.8710 O.2    60  SER60      -0.2866
     22  CB        -0.3620   -4.7470   21.3440 C.3    60  SER60       0.2089
     23  OG         0.3480   -5.7250   20.6070 O.3    60  SER60      -0.2183
     24  N         -1.1420   -1.2040   24.0410 N.3    62  LYS62      -0.1231
     25  CA        -1.2220    0.1370   23.4450 C.3    62  LYS62       0.1693
     26  C         -2.3030    0.3090   22.3680 C.2    62  LYS62       0.2592
     27  O         -2.8270    1.4090   22.1970 O.2    62  LYS62      -0.2718
     28  CB         0.1270    0.5880   22.9090 C.3    62  LYS62       0.0285
     29  CG         0.6800   -0.1600   21.7280 C.3    62  LYS62       0.0035
     30  CD         2.0000    0.5040   21.3670 C.3    62  LYS62       0.0206
     31  CE         2.5240    0.1430   20.0090 C.3    62  LYS62       0.1093
     32  NZ         3.6280    1.0420   19.5780 N.3    62  LYS62      -0.1314
     33  N         -2.6830   -0.7740   21.7030 N.am   63  ASP63      -0.1974
     34  CA        -3.7510   -0.7280   20.7030 C.3    63  ASP63       0.1709
     35  C         -5.1690   -0.6170   21.2970 C.2    63  ASP63       0.2293
     36  O         -6.0730   -0.0960   20.6350 O.2    63  ASP63      -0.2864
     37  CB        -3.6540   -1.9320   19.7740 C.3    63  ASP63       0.1436
     38  CG        -2.4550   -1.8470   18.8410 C.2    63  ASP63       0.3671
     39  OD1       -2.1370   -0.7500   18.4080 O.co2  63  ASP63      -0.2456
     40  OD2       -1.8420   -2.8980   18.5450 O.co2  63  ASP63      -0.2456
     41  N          8.4890    6.5260   10.0690 N.3   109  THR109     -0.1203
     42  CA         7.6110    6.2730   11.2100 C.3   109  THR109      0.1994
     43  C          6.2190    6.8480   10.9100 C.2   109  THR109      0.2619
     44  O          6.1300    7.9410   10.3810 O.2   109  THR109     -0.2717
     45  CB         8.1940    6.8390   12.5510 C.3   109  THR109      0.1784
     46  OG1        7.3130    6.4980   13.6440 O.3   109  THR109     -0.2211
     47  CG2        8.4180    8.3600   12.5180 C.3   109  THR109      0.0376
     48  N          5.1550    6.1300   11.2510 N.am  110  SER110     -0.1937
     49  CA         3.7830    6.5840   11.0780 C.3   110  SER110      0.2055
     50  C          3.1640    7.0170   12.4490 C.2   110  SER110      0.2644
     51  O          1.9940    7.4060   12.5110 O.2   110  SER110     -0.2714
     52  CB         2.9600    5.4820   10.4250 C.3   110  SER110      0.2130
     53  OG         2.6530    4.4330   11.3320 O.3   110  SER110     -0.2179
     54  N          3.9820    6.9920   13.5260 N.am  111  SER111     -0.1935
     55  CA         3.5950    7.3880   14.8920 C.3   111  SER111      0.2055
     56  C          3.8610    8.8600   15.0970 C.2   111  SER111      0.2643
     57  O          5.0060    9.2950   14.9600 O.2   111  SER111     -0.2714
     58  CB         4.4190    6.6090   15.9250 C.3   111  SER111      0.2130
     59  OG         4.3990    7.2230   17.2040 O.3   111  SER111     -0.2179
     60  N          2.8430    9.6140   15.5130 N.am  112  LEU112     -0.1963
     61  CA         3.0100   11.0540   15.8010 C.3   112  LEU112      0.1728
     62  C          3.8370   11.2630   17.0620 C.2   112  LEU112      0.2616
     63  O          4.5220   12.2710   17.1740 O.2   112  LEU112     -0.2715
     64  CB         1.6500   11.7280   15.9990 C.3   112  LEU112      0.0311
     65  CG         0.7530   11.7490   14.7780 C.3   112  LEU112      0.0022
     66  CD1       -0.7110   11.7750   15.1870 C.3   112  LEU112      0.0001
     67  CD2        1.0990   12.9290   13.8690 C.3   112  LEU112      0.0001
     68  N          3.7390   10.3110   18.0130 N.am  113  ARG113     -0.1963
     69  CA         4.4440   10.3110   19.2940 C.3   113  ARG113      0.1729
     70  C          5.9110   10.2400   19.0820 C.2   113  ARG113      0.2616
     71  O          6.6660   10.9720   19.7200 O.2   113  ARG113     -0.2715
     72  CB         3.9980    9.0990   20.1210 C.3   113  ARG113      0.0348
     73  CG         4.7940    8.8650   21.4050 C.3   113  ARG113      0.0492
     74  CD         4.3330    7.6100   22.0660 C.3   113  ARG113      0.2205
     75  NE         4.6390    6.4330   21.2520 N.pl3 113  ARG113     -0.0865
     76  CZ         5.8210    5.8250   21.1940 C.cat 113  ARG113      0.5346
     77  NH1        6.8490    6.2830   21.8940 N.pl3 113  ARG113      0.1354
     78  NH2        5.9820    4.7490   20.4370 N.pl3 113  ARG113      0.1354
     79  N          6.3190    9.3240   18.2120 N.am  114  ARG114     -0.1977
     80  CA         7.7200    9.1310   17.8900 C.3   114  ARG114      0.1597
     81  C          8.2140   10.2710   17.0790 C.2   114  ARG114      0.2287
     82  O          9.2120   10.8450   17.4520 O.2   114  ARG114     -0.2864
     83  CB         7.9110    7.8620   17.1070 C.3   114  ARG114      0.0334
     84  CG         7.6440    6.6220   17.9120 C.3   114  ARG114      0.0492
     85  CD         7.8970    5.4020   17.0550 C.3   114  ARG114      0.2205
     86  NE         7.7970    4.1720   17.8450 N.pl3 114  ARG114     -0.0865
     87  CZ         7.0320    3.1210   17.5700 C.cat 114  ARG114      0.5346
     88  NH1        6.2820    3.0990   16.4720 N.pl3 114  ARG114      0.1354
     89  NH2        7.0210    2.0740   18.3820 N.pl3 114  ARG114      0.1354
     90  N          5.9930   -4.9760    9.8800 N.3   134  LEU134     -0.1245
     91  CA         7.4450   -5.1560   10.0850 C.3   134  LEU134      0.1561
     92  C          8.1980   -5.7040    8.8750 C.2   134  LEU134      0.2260
     93  O          9.1830   -5.1250    8.4500 O.2   134  LEU134     -0.2867
     94  CB         7.7570   -6.0520   11.2850 C.3   134  LEU134      0.0270
     95  CG         7.2400   -5.6310   12.6550 C.3   134  LEU134      0.0019
     96  CD1        8.0670   -6.3210   13.8050 C.3   134  LEU134      0.0001
     97  CD2        7.2110   -4.1020   12.8210 C.3   134  LEU134      0.0001
     98  N          7.9850   -2.9920    6.1420 N.3   137  ARG137     -0.1245
     99  CA         8.8510   -1.8850    6.5490 C.3   137  ARG137      0.1563
    100  C         10.3320   -2.2470    6.4490 C.2   137  ARG137      0.2260
    101  O         11.1320   -1.4420    6.0030 O.2   137  ARG137     -0.2867
    102  CB         8.4900   -1.4260    7.9770 C.3   137  ARG137      0.0307
    103  CG         7.2390   -0.5530    8.0290 C.3   137  ARG137      0.0489
    104  CD         6.8460   -0.1590    9.4260 C.3   137  ARG137      0.2205
    105  NE         5.4150    0.1620    9.4530 N.pl3 137  ARG137     -0.0865
    106  CZ         4.8420    1.2450    9.9820 C.cat 137  ARG137      0.5346
    107  NH1        5.5820    2.1830   10.5840 N.pl3 137  ARG137      0.1354
    108  NH2        3.5270    1.4030    9.9150 N.pl3 137  ARG137      0.1354
    109  N         11.8310    3.7170   12.7980 N.3   151  ILE151     -0.1231
    110  CA        11.5890    3.5380   14.2190 C.3   151  ILE151      0.1692
    111  C         10.4740    2.4930   14.3780 C.2   151  ILE151      0.2592
    112  O          9.4230    2.5800   13.7370 O.2   151  ILE151     -0.2718
    113  CB        11.2700    4.8460   14.9640 C.3   151  ILE151      0.0266
    114  CG1       12.1590    6.0150   14.4840 C.3   151  ILE151      0.0019
    115  CG2       11.4000    4.6060   16.4900 C.3   151  ILE151      0.0020
    116  CD1       13.6380    5.9530   14.9380 C.3   151  ILE151      0.0001
    117  N         10.7280    1.5150   15.2420 N.am  152  LEU152     -0.1966
    118  CA         9.8470    0.3880   15.5360 C.3   152  LEU152      0.1728
    119  C          9.9080   -0.0060   17.0160 C.2   152  LEU152      0.2616
    120  O         10.7860    0.4680   17.7350 O.2   152  LEU152     -0.2715
    121  CB        10.3280   -0.8110   14.7090 C.3   152  LEU152      0.0311
    122  CG        10.0120   -0.8010   13.2460 C.3   152  LEU152      0.0022
    123  CD1       10.5840   -2.0080   12.6160 C.3   152  LEU152      0.0001
    124  CD2        8.4950   -0.6940   13.0090 C.3   152  LEU152      0.0001
    125  N          9.0280   -0.9050   17.4610 N.am  153  ALA153     -0.1977
    126  CA         9.0200   -1.3240   18.8660 C.3   153  ALA153      0.1597
    127  C          9.9390   -2.5180   19.0700 C.2   153  ALA153      0.2287
    128  O          9.9390   -3.4590   18.2660 O.2   153  ALA153     -0.2864
    129  CB         7.6160   -1.6630   19.3140 C.3   153  ALA153      0.0319
    130  N          9.7340   -4.8290   21.4900 N.3   155  ALA155     -0.1231
    131  CA         8.8260   -5.9570   21.7710 C.3   155  ALA155      0.1694
    132  C          8.3820   -6.6540   20.4970 C.2   155  ALA155      0.2592
    133  O          8.4030   -7.8760   20.4200 O.2   155  ALA155     -0.2718
    134  CB         7.5910   -5.4510   22.5220 C.3   155  ALA155      0.0304
    135  N          7.9520   -5.8600   19.5280 N.am  156  GLY156     -0.1957
    136  CA         7.5210   -6.3390   18.2220 C.3   156  GLY156      0.1869
    137  C          8.6440   -7.0220   17.4720 C.2   156  GLY156      0.2309
    138  O          8.4750   -8.1490   17.0350 O.2   156  GLY156     -0.2863
    139  N          9.4890  -10.4830   19.2480 N.3   159  ARG159     -0.1245
    140  CA         8.4660  -11.5210   19.0280 C.3   159  ARG159      0.1563
    141  C          8.6030  -12.2010   17.6790 C.2   159  ARG159      0.2260
    142  O          8.3930  -13.4090   17.6010 O.2   159  ARG159     -0.2867
    143  CB         7.0520  -10.9170   19.1600 C.3   159  ARG159      0.0307
    144  CG         6.6770  -10.5930   20.5850 C.3   159  ARG159      0.0489
    145  CD         5.5250   -9.6200   20.6470 C.3   159  ARG159      0.2205
    146  NE         5.1360   -9.3810   22.0440 N.pl3 159  ARG159     -0.0865
    147  CZ         4.6310   -8.2530   22.5420 C.cat 159  ARG159      0.5346
    148  NH1        4.3920   -7.2060   21.7480 N.pl3 159  ARG159      0.1354
    149  NH2        4.3520   -8.1620   23.8400 N.pl3 159  ARG159      0.1354
    150  N          5.0600    4.3720   24.2930 N.3   178  ALA178     -0.1245
    151  CA         3.6150    4.5320   24.2260 C.3   178  ALA178      0.1562
    152  C          3.0080    3.8790   25.4630 C.2   178  ALA178      0.2260
    153  O          3.6650    3.0400   26.0820 O.2   178  ALA178     -0.2867
    154  CB         3.0860    3.8650   22.9650 C.3   178  ALA178      0.0290
    155  N          1.2950    1.4010   27.7510 N.3   180  GLY180     -0.1210
    156  CA         1.0960   -0.0370   27.6780 C.3   180  GLY180      0.1956
    157  C          1.9490   -0.7730   26.6640 C.2   180  GLY180      0.2612
    158  O          1.7820   -1.9790   26.5270 O.2   180  GLY180     -0.2717
    159  N          2.9020   -0.0920   25.9720 N.am  181  GLN181     -0.1965
    160  CA         3.8250   -0.7280   25.0050 C.3   181  GLN181      0.1733
    161  C          4.6100   -1.8800   25.6690 C.2   181  GLN181      0.2617
    162  O          4.8860   -1.8450   26.8730 O.2   181  GLN181     -0.2715
    163  CB         4.8110    0.3020   24.4430 C.3   181  GLN181      0.0408
    164  CG         5.5700   -0.1530   23.2040 C.3   181  GLN181      0.0908
    165  CD         6.1310    1.0120   22.4100 C.2   181  GLN181      0.2608
    166  OE1        5.6490    1.3500   21.3380 O.2   181  GLN181     -0.2717
    167  NE2        7.2030    1.6160   22.8640 N.am  181  GLN181     -0.0878
    168  N          4.9100   -2.9160   24.8930 N.am  182  GLY182     -0.1940
    169  CA         5.5970   -4.0910   25.4140 C.3   182  GLY182      0.2014
    170  C          4.7510   -4.9210   26.3590 C.2   182  GLY182      0.2639
    171  O          5.2930   -5.7820   27.0330 O.2   182  GLY182     -0.2714
    172  N          3.4130   -4.7320   26.3820 N.am  183  ALA183     -0.1963
    173  CA         2.5090   -5.4930   27.2540 C.3   183  ALA183      0.1728
    174  C          1.3350   -6.0310   26.4280 C.2   183  ALA183      0.2616
    175  O          0.7990   -5.3010   25.5810 O.2   183  ALA183     -0.2715
    176  CB         1.9870   -4.6110   28.3840 C.3   183  ALA183      0.0334
    177  N          0.9770   -7.3140   26.6320 N.am  184  LEU184     -0.1977
    178  CA        -0.1590   -7.9180   25.9630 C.3   184  LEU184      0.1596
    179  C         -1.3690   -7.8430   26.9120 C.2   184  LEU184      0.2287
    180  O         -1.2120   -7.8790   28.1330 O.2   184  LEU184     -0.2864
    181  CB         0.1640   -9.3590   25.5520 C.3   184  LEU184      0.0297
    182  CG         1.2780   -9.5570   24.4860 C.3   184  LEU184      0.0022
    183  CD1        1.3650  -11.0150   24.0670 C.3   184  LEU184      0.0001
    184  CD2        1.0940   -8.6470   23.2330 C.3   184  LEU184      0.0001
    185  N         -4.4690    5.7160   21.2480 N.3   225  CYS225     -0.1221
    186  CA        -3.3280    5.1200   20.5460 C.3   225  CYS225      0.1808
    187  C         -2.6050    6.1330   19.6570 C.2   225  CYS225      0.2602
    188  O         -1.4000    6.3420   19.8230 O.2   225  CYS225     -0.2717
    189  CB        -3.7520    3.8890   19.7460 C.3   225  CYS225      0.0970
    190  SG        -2.5290    3.3460   18.5060 S.3   225  CYS225     -0.0800
    191  N         -3.3480    6.7970   18.7650 N.am  226  SER226     -0.1938
    192  CA        -2.7670    7.7100   17.7770 C.3   226  SER226      0.2055
    193  C         -2.7020    9.1900   18.2340 C.2   226  SER226      0.2642
    194  O         -3.2260   10.0700   17.5470 O.2   226  SER226     -0.2714
    195  CB        -3.5230    7.5680   16.4540 C.3   226  SER226      0.2130
    196  OG        -3.5780    6.2080   16.0350 O.3   226  SER226     -0.2179
    197  N         -2.0200    9.4640   19.3740 N.am  227  VAL227     -0.1977
    198  CA        -1.8900   10.8210   19.9490 C.3   227  VAL227      0.1596
    199  C         -0.4410   10.9980   20.4870 C.2   227  VAL227      0.2287
    200  O          0.0760   10.0370   21.0820 O.2   227  VAL227     -0.2864
    201  CB        -2.9350   11.0510   21.0920 C.3   227  VAL227      0.0276
    202  CG1       -2.9890   12.5180   21.4930 C.3   227  VAL227      0.0022
    203  CG2       -4.3350   10.5700   20.6900 C.3   227  VAL227      0.0022
@<TRIPOS>BOND
     1   101   100    2
     2    98    99    1
     3   100    99    1
     4    99   102    1
     5   102   103    1
     6   103   104    1
     7    93    92    2
     8    92    91    1
     9   104   105    1
    10   105   106    2
    11    90    91    1
    12   108   106    1
    13   106   107    1
    14    41    42    1
    15    91    94    1
    16    44    43    2
    17    52    49    1
    18    52    53    1
    19    43    42    1
    20    43    48   am
    21    49    48    1
    22    49    50    1
    23    42    45    1
    24    94    95    1
    25    50    51    2
    26    50    54   am
    27    47    45    1
    28    45    46    1
    29   123   122    1
    30    95    97    1
    31    95    96    1
    32   109   110    1
    33   124   122    1
    34   122   121    1
    35    54    55    1
    36     1     2    1
    37   112   111    2
    38    67    65    1
    39   110   111    1
    40   110   113    1
    41   111   117   am
    42   114   116    1
    43   114   113    1
    44   121   118    1
    45    65    66    1
    46    65    64    1
    47     5     2    1
    48     5     6    1
    49     2     3    1
    50    55    56    1
    51    55    58    1
    52    57    56    2
    53   113   115    1
    54    56    60   am
    55   117   118    1
    56    60    61    1
    57   118   119    1
    58     8     6    1
    59    61    64    1
    60    61    62    1
    61     3     4    2
    62    58    59    1
    63   196   195    1
    64     6     7    1
    65   195   192    1
    66    88    87    1
    67   119   125   am
    68   119   120    2
    69   138   137    2
    70    85    86    1
    71    85    84    1
    72    62    63    2
    73    62    68   am
    74    81    82    2
    75    81    80    1
    76    83    80    1
    77    83    84    1
    78   125   126    1
    79   137   136    1
    80   194   193    2
    81    87    86    2
    82    87    89    1
    83   142   141    2
    84   141   140    1
    85   192   193    1
    86   192   191    1
    87    80    79    1
    88    68    69    1
    89    79    70   am
    90   136   135    1
    91   193   197   am
    92   128   127    2
    93    39    38   ar
    94   190   189    1
    95    40    38   ar
    96   191   187   am
    97    38    37    1
    98   126   127    1
    99   126   129    1
   100   140   143    1
   101   140   139    1
   102    70    69    1
   103    70    71    2
   104   143   144    1
   105    69    72    1
   106     9    10    1
   107   197   198    1
   108    17    15   am
   109   135   132   am
   110    32    31    1
   111   187   188    2
   112   187   186    1
   113   189   186    1
   114    16    15    2
   115    37    34    1
   116    15    14    1
   117   198   199    1
   118   198   201    1
   119    31    30    1
   120    72    73    1
   121    14    13    1
   122   133   132    2
   123    78    76    1
   124    13    10    1
   125   199   200    2
   126   132   131    1
   127   186   185    1
   128   144   145    1
   129    23    22    1
   130    36    35    2
   131   145   146    1
   132    10    11    1
   133   203   201    1
   134    34    35    1
   135    34    33    1
   136   201   202    1
   137    76    75    2
   138    76    77    1
   139    11    12    2
   140    75    74    1
   141   166   165    2
   142    22    19    1
   143    30    29    1
   144    73    74    1
   145   130   131    1
   146    33    26   am
   147    29    28    1
   148   148   147    1
   149   131   134    1
   150    18    19    1
   151   146   147    2
   152    27    26    2
   153    26    25    1
   154   165   167   am
   155   165   164    1
   156    19    20    1
   157   147   149    1
   158    21    20    2
   159    28    25    1
   160   154   151    1
   161   164   163    1
   162   184   182    1
   163    25    24    1
   164   183   182    1
   165   151   150    1
   166   151   152    1
   167   163   160    1
   168   182   181    1
   169   168   169    1
   170   168   161   am
   171   160   161    1
   172   160   159    1
   173   169   170    1
   174   152   153    2
   175   181   178    1
   176   175   174    2
   177   161   162    2
   178   178   177    1
   179   178   179    1
   180   159   157   am
   181   170   172   am
   182   170   171    2
   183   172   173    1
   184   174   177   am
   185   174   173    1
   186   158   157    2
   187   157   156    1
   188   179   180    2
   189   173   176    1
   190   156   155    1
