@<TRIPOS>MOLECULE
tmp/5m7gD00.pdb
 160 150 0 0 0
SMALL
GASTEIGER

@<TRIPOS>ATOM
      1  N         24.1830    1.0880  -25.3620 N.3   197  GLU197     -0.1245
      2  CA        22.8340    0.5520  -25.3640 C.3   197  GLU197      0.1567
      3  C         22.6810   -0.3110  -26.6100 C.2   197  GLU197      0.2260
      4  O         23.0220    0.1280  -27.7140 O.2   197  GLU197     -0.2867
      5  CB        21.7910    1.6700  -25.3560 C.3   197  GLU197      0.0388
      6  CG        22.1530    2.8950  -24.5410 C.3   197  GLU197      0.1160
      7  CD        21.1570    4.0400  -24.7220 C.2   197  GLU197      0.3649
      8  OE1       19.9740    3.8630  -24.3530 O.co2 197  GLU197     -0.2457
      9  OE2       21.5570    5.1190  -25.2300 O.co2 197  GLU197     -0.2457
     10  N         19.6720   -2.4450  -28.5670 N.3   199  TYR199     -0.1241
     11  CA        18.3040   -2.9140  -28.7410 C.3   199  TYR199      0.1605
     12  C         18.3700   -4.2940  -29.3760 C.2   199  TYR199      0.2264
     13  O         18.8460   -4.4370  -30.5050 O.2   199  TYR199     -0.2867
     14  CB        17.5060   -1.9410  -29.6010 C.3   199  TYR199      0.0534
     15  CG        17.3150   -0.6020  -28.9460 C.ar  199  TYR199     -0.0201
     16  CD1       18.2430    0.4160  -29.1180 C.ar  199  TYR199     -0.0009
     17  CD2       16.2180   -0.3570  -28.1280 C.ar  199  TYR199     -0.0009
     18  CE1       18.0810    1.6500  -28.5060 C.ar  199  TYR199      0.0417
     19  CE2       16.0490    0.8750  -27.5130 C.ar  199  TYR199      0.0417
     20  CZ        16.9850    1.8720  -27.7090 C.ar  199  TYR199      0.1957
     21  OH        16.8240    3.0960  -27.1050 O.3   199  TYR199     -0.2866
     22  N         11.3800    3.8390  -30.5120 N.3   235  VAL235     -0.1245
     23  CA        12.4040    4.0830  -29.4930 C.3   235  VAL235      0.1561
     24  C         13.1380    5.3990  -29.7240 C.2   235  VAL235      0.2260
     25  O         13.6950    5.9500  -28.7730 O.2   235  VAL235     -0.2867
     26  CB        13.4300    2.9320  -29.3740 C.3   235  VAL235      0.0252
     27  CG1       12.7380    1.6100  -29.0250 C.3   235  VAL235      0.0019
     28  CG2       14.2730    2.8000  -30.6230 C.3   235  VAL235      0.0019
     29  N         11.6320   10.0670  -28.7960 N.3   238  CYS238     -0.1235
     30  CA        12.0210   11.1020  -27.8440 C.3   238  CYS238      0.1677
     31  C         13.2750   11.8520  -28.2850 C.2   238  CYS238      0.2270
     32  O         13.5230   12.9630  -27.8030 O.2   238  CYS238     -0.2867
     33  CB        12.2140   10.4930  -26.4580 C.3   238  CYS238      0.0956
     34  SG        13.6130    9.3790  -26.3670 S.3   238  CYS238     -0.0801
     35  N         15.6960   12.2440  -24.0420 N.3   243  ALA243     -0.1245
     36  CA        15.8060   13.4160  -24.9170 C.3   243  ALA243      0.1562
     37  C         17.1030   13.3790  -25.7360 C.2   243  ALA243      0.2260
     38  O         17.0610   13.6070  -26.9400 O.2   243  ALA243     -0.2867
     39  CB        15.7090   14.7110  -24.1100 C.3   243  ALA243      0.0290
     40  N         21.4550   10.8210  -21.8410 N.3   247  LYS247     -0.1231
     41  CA        20.4230   10.8210  -20.8150 C.3   247  LYS247      0.1693
     42  C         19.6480    9.5190  -20.8320 C.2   247  LYS247      0.2591
     43  O         19.3290    8.9690  -19.7700 O.2   247  LYS247     -0.2718
     44  CB        19.4810   12.0100  -21.0060 C.3   247  LYS247      0.0285
     45  CG        19.5900   13.0110  -19.9220 C.3   247  LYS247      0.0035
     46  CD        18.7800   14.2570  -20.2250 C.3   247  LYS247      0.0206
     47  CE        19.1910   15.3880  -19.3050 C.3   247  LYS247      0.1093
     48  NZ        18.5650   16.6820  -19.6790 N.3   247  LYS247     -0.1314
     49  N         19.3400    9.0010  -22.0270 N.am  248  LEU248     -0.1980
     50  CA        18.6710    7.7100  -22.0930 C.3   248  LEU248      0.1596
     51  C         19.5380    6.6280  -21.4750 C.2   248  LEU248      0.2287
     52  O         19.0410    5.7560  -20.7530 O.2   248  LEU248     -0.2864
     53  CB        18.3250    7.3450  -23.5340 C.3   248  LEU248      0.0297
     54  CG        17.5610    8.3510  -24.4010 C.3   248  LEU248      0.0022
     55  CD1       17.1060    7.6790  -25.6960 C.3   248  LEU248      0.0001
     56  CD2       16.3770    9.0520  -23.6840 C.3   248  LEU248      0.0001
     57  N         19.7670    6.6620  -17.6770 N.3   251  ASN251     -0.1225
     58  CA        18.5510    6.2410  -17.0070 C.3   251  ASN251      0.1785
     59  C         18.2180    4.7850  -17.2290 C.2   251  ASN251      0.2597
     60  O         17.4140    4.2380  -16.4750 O.2   251  ASN251     -0.2718
     61  CB        17.3850    7.1300  -17.4260 C.3   251  ASN251      0.1169
     62  CG        17.3580    8.4060  -16.6210 C.2   251  ASN251      0.2627
     63  OD1       16.9470    8.3850  -15.4700 O.2   251  ASN251     -0.2716
     64  ND2       17.8910    9.5040  -17.1820 N.am  251  ASN251     -0.0877
     65  N         18.8470    4.1330  -18.2020 N.am  252  MET252     -0.1979
     66  CA        18.4870    2.7680  -18.5350 C.3   252  MET252      0.1605
     67  C         19.5270    1.7400  -18.1390 C.2   252  MET252      0.2287
     68  O         19.2040    0.5540  -18.1290 O.2   252  MET252     -0.2864
     69  CB        18.2220    2.6370  -20.0450 C.3   252  MET252      0.0413
     70  CG        16.9970    3.4020  -20.4910 C.3   252  MET252      0.0598
     71  SD        15.5250    2.6960  -19.7330 S.3   252  MET252     -0.1393
     72  CE        15.4510    1.1130  -20.5580 C.3   252  MET252      0.0692
     73  N         18.5240   -4.3030  -24.3460 N.3   261  PHE261     -0.1241
     74  CA        17.1530   -3.9000  -24.0840 C.3   261  PHE261      0.1605
     75  C         16.1850   -4.8400  -24.7800 C.2   261  PHE261      0.2264
     76  O         16.4520   -5.3250  -25.8820 O.2   261  PHE261     -0.2867
     77  CB        16.9270   -2.4660  -24.5430 C.3   261  PHE261      0.0534
     78  CG        17.7860   -1.4860  -23.8210 C.ar  261  PHE261     -0.0203
     79  CD1       18.2910   -1.7950  -22.5620 C.ar  261  PHE261     -0.0042
     80  CD2       18.1090   -0.2730  -24.3860 C.ar  261  PHE261     -0.0042
     81  CE1       19.0870   -0.9040  -21.8740 C.ar  261  PHE261     -0.0003
     82  CE2       18.9020    0.6190  -23.7080 C.ar  261  PHE261     -0.0003
     83  CZ        19.4020    0.2990  -22.4500 C.ar  261  PHE261     -0.0000
     84  N         15.1010   -1.4370  -15.3950 N.3   299  THR299     -0.1203
     85  CA        14.5870   -0.1450  -15.8120 C.3   299  THR299      0.1994
     86  C         13.6320   -0.3400  -16.9710 C.2   299  THR299      0.2618
     87  O         13.7030   -1.3340  -17.7010 O.2   299  THR299     -0.2717
     88  CB        15.6920    0.8100  -16.2570 C.3   299  THR299      0.1784
     89  OG1       16.5010    0.1520  -17.2320 O.3   299  THR299     -0.2211
     90  CG2       16.5340    1.2880  -15.0840 C.3   299  THR299      0.0376
     91  N         12.7600    0.6480  -17.1610 N.am  300  VAL300     -0.1965
     92  CA        11.7560    0.5910  -18.2120 C.3   300  VAL300      0.1727
     93  C         11.4940    2.0010  -18.7240 C.2   300  VAL300      0.2616
     94  O         11.3980    2.9650  -17.9550 O.2   300  VAL300     -0.2715
     95  CB        10.4510   -0.0820  -17.7250 C.3   300  VAL300      0.0290
     96  CG1        9.3960    0.0300  -18.7990 C.3   300  VAL300      0.0023
     97  CG2       10.6740   -1.5610  -17.4260 C.3   300  VAL300      0.0023
     98  N         11.3950    2.1120  -20.0370 N.am  301  ALA301     -0.1963
     99  CA        10.9400    3.3220  -20.6940 C.3   301  ALA301      0.1728
    100  C          9.7150    2.9680  -21.5260 C.2   301  ALA301      0.2616
    101  O          9.7540    2.0210  -22.3270 O.2   301  ALA301     -0.2715
    102  CB        12.0480    3.9230  -21.5760 C.3   301  ALA301      0.0334
    103  N          8.6300    3.7140  -21.3320 N.am  302  ALA302     -0.1963
    104  CA         7.4090    3.5520  -22.1130 C.3   302  ALA302      0.1728
    105  C          7.1270    4.8500  -22.8500 C.2   302  ALA302      0.2616
    106  O          7.1360    5.9280  -22.2460 O.2   302  ALA302     -0.2715
    107  CB         6.2240    3.1740  -21.2210 C.3   302  ALA302      0.0334
    108  N          6.8780    4.7500  -24.1480 N.am  303  ILE303     -0.1977
    109  CA         6.5820    5.9150  -24.9770 C.3   303  ILE303      0.1596
    110  C          5.1740    5.7500  -25.5410 C.2   303  ILE303      0.2287
    111  O          4.8800    4.7480  -26.2070 O.2   303  ILE303     -0.2864
    112  CB         7.6120    6.0900  -26.1050 C.3   303  ILE303      0.0276
    113  CG1        9.0340    6.0430  -25.5350 C.3   303  ILE303      0.0022
    114  CG2        7.3770    7.4090  -26.8380 C.3   303  ILE303      0.0022
    115  CD1        9.6680    4.6640  -25.5220 C.3   303  ILE303      0.0001
    116  N         11.4730    3.9840   -8.5140 N.3   334  ASN334     -0.1225
    117  CA        10.9750    4.8430   -9.5850 C.3   334  ASN334      0.1785
    118  C         11.6710    4.5360  -10.9100 C.2   334  ASN334      0.2597
    119  O         12.1320    5.4290  -11.6190 O.2   334  ASN334     -0.2718
    120  CB        11.1480    6.3090   -9.1930 C.3   334  ASN334      0.1169
    121  CG        10.4710    6.6120   -7.8870 C.2   334  ASN334      0.2627
    122  OD1       11.1070    7.0000   -6.9060 O.2   334  ASN334     -0.2716
    123  ND2        9.1640    6.3800   -7.8500 N.am  334  ASN334     -0.0877
    124  N         11.7590    3.2490  -11.2410 N.am  335  ASN335     -0.1960
    125  CA        12.5730    2.8320  -12.3680 C.3   335  ASN335      0.1819
    126  C         11.7580    2.6660  -13.6450 C.2   335  ASN335      0.2621
    127  O         12.2470    2.0640  -14.6090 O.2   335  ASN335     -0.2715
    128  CB        13.3220    1.5460  -12.0200 C.3   335  ASN335      0.1195
    129  CG        12.3890    0.4250  -11.5980 C.2   335  ASN335      0.2630
    130  OD1       11.2350    0.6760  -11.2430 O.2   335  ASN335     -0.2716
    131  ND2       12.8770   -0.8190  -11.6530 N.am  335  ASN335     -0.0877
    132  N         10.5360    3.1960  -13.6810 N.am  336  VAL336     -0.1963
    133  CA         9.7080    3.1770  -14.8800 C.3   336  VAL336      0.1727
    134  C          9.4180    4.6230  -15.3020 C.2   336  VAL336      0.2616
    135  O          8.8610    5.4080  -14.5230 O.2   336  VAL336     -0.2715
    136  CB         8.4040    2.3870  -14.6560 C.3   336  VAL336      0.0290
    137  CG1        7.6010    2.3370  -15.9250 C.3   336  VAL336      0.0023
    138  CG2        8.7050    0.9830  -14.1860 C.3   336  VAL336      0.0023
    139  N          9.7770    4.9670  -16.5330 N.am  337  LYS337     -0.1977
    140  CA         9.5900    6.3120  -17.0610 C.3   337  LYS337      0.1596
    141  C          8.5740    6.3100  -18.2000 C.2   337  LYS337      0.2287
    142  O          8.5720    5.4080  -19.0420 O.2   337  LYS337     -0.2864
    143  CB        10.9150    6.8830  -17.5570 C.3   337  LYS337      0.0298
    144  CG        10.8300    8.2360  -18.2500 C.3   337  LYS337      0.0038
    145  CD        10.7380    9.3790  -17.2490 C.3   337  LYS337      0.0206
    146  CE        10.7420   10.7360  -17.9550 C.3   337  LYS337      0.1093
    147  NZ        10.4260   11.8290  -16.9920 N.3   337  LYS337     -0.1314
    148  N          7.1810    8.6770  -21.3410 N.3   339  ALA339     -0.1245
    149  CA         7.2180    9.8020  -22.2620 C.3   339  ALA339      0.1562
    150  C          5.9450    9.7890  -23.1030 C.2   339  ALA339      0.2260
    151  O          5.3790    8.7270  -23.3750 O.2   339  ALA339     -0.2867
    152  CB         8.4580    9.7430  -23.1740 C.3   339  ALA339      0.0290
    153  N         10.5510   -0.1390  -23.8180 N.3   355  ILE355     -0.1245
    154  CA        11.9780   -0.4630  -23.7580 C.3   355  ILE355      0.1561
    155  C         12.2730   -0.9840  -22.3630 C.2   355  ILE355      0.2260
    156  O         12.2600   -0.2130  -21.3960 O.2   355  ILE355     -0.2867
    157  CB        12.8600    0.7470  -24.0760 C.3   355  ILE355      0.0252
    158  CG1       12.3760    1.3920  -25.3670 C.3   355  ILE355      0.0019
    159  CG2       14.3370    0.3380  -24.1930 C.3   355  ILE355      0.0019
    160  CD1       12.8500    2.7910  -25.5340 C.3   355  ILE355      0.0001
@<TRIPOS>BOND
     1    28    26    1
     2    22    23    1
     3    13    12    2
     4    24    23    1
     5    24    25    2
     6    14    15    1
     7    14    11    1
     8    23    26    1
     9    12    11    1
    10    26    27    1
    11    16    15   ar
    12    16    18   ar
    13    15    17   ar
    14    29    30    1
    15    11    10    1
    16    18    20   ar
    17    31    30    1
    18    31    32    2
    19    17    19   ar
    20    30    33    1
    21     4     3    2
    22    20    19   ar
    23    20    21    1
    24    38    37    2
    25   114   112    1
    26     3     2    1
    27    33    34    1
    28   111   110    2
    29   112   113    1
    30   112   109    1
    31    76    75    2
    32    37    36    1
    33    55    54    1
    34   110   109    1
    35   113   115    1
    36   160   158    1
    37   158   157    1
    38     2     1    1
    39     2     5    1
    40     5     6    1
    41     9     7   ar
    42   109   108    1
    43    36    39    1
    44    36    35    1
    45    75    74    1
    46     7     6    1
    47     7     8   ar
    48    77    74    1
    49    77    78    1
    50    54    56    1
    51    54    53    1
    52    80    78   ar
    53    80    82   ar
    54    73    74    1
    55   159   157    1
    56   108   105   am
    57   157   154    1
    58    78    79   ar
    59   153   154    1
    60   154   155    1
    61    82    83   ar
    62    53    50    1
    63   151   150    2
    64   152   149    1
    65   150   149    1
    66   105   106    2
    67   105   104    1
    68    79    81   ar
    69    83    81   ar
    70   155   156    2
    71   101   100    2
    72   149   148    1
    73   104   103    1
    74   104   107    1
    75    50    49    1
    76    50    51    1
    77    49    42   am
    78    40    41    1
    79   102    99    1
    80   100   103   am
    81   100    99    1
    82    51    52    2
    83    44    41    1
    84    44    45    1
    85    42    41    1
    86    42    43    2
    87    99    98    1
    88    72    71    1
    89    70    69    1
    90    70    71    1
    91    46    45    1
    92    46    47    1
    93    69    66    1
    94    98    93   am
    95    48    47    1
    96   142   141    2
    97    96    95    1
    98    93    92    1
    99    93    94    2
   100    66    65    1
   101    66    67    1
   102   144   143    1
   103   144   145    1
   104    92    95    1
   105    92    91    1
   106    65    59   am
   107   141   140    1
   108    67    68    2
   109   146   145    1
   110   146   147    1
   111    95    97    1
   112    87    86    2
   113    57    58    1
   114   143   140    1
   115    61    58    1
   116    61    62    1
   117    89    88    1
   118    59    58    1
   119    59    60    2
   120    64    62   am
   121    91    86   am
   122   140   139    1
   123    86    85    1
   124    62    63    2
   125   139   134   am
   126    88    85    1
   127    88    90    1
   128   137   136    1
   129    85    84    1
   130   134   133    1
   131   134   135    2
   132   133   136    1
   133   133   132    1
   134   136   138    1
   135   127   126    2
   136   132   126   am
   137   126   125    1
   138   125   128    1
   139   125   124    1
   140   128   129    1
   141   131   129   am
   142   119   118    2
   143   129   130    2
   144   124   118   am
   145   118   117    1
   146   117   120    1
   147   117   116    1
   148   120   121    1
   149   121   123   am
   150   121   122    2
