@<TRIPOS>MOLECULE
tmp/5m7hA00.pdb
 135 128 0 0 0
SMALL
GASTEIGER

@<TRIPOS>ATOM
      1  N        -10.2080   25.9150  -41.0850 N.3   172  PRO172     -0.2102
      2  CA       -10.4350   25.9120  -42.5310 C.3   172  PRO172      0.1504
      3  C         -9.7240   24.7810  -43.2820 C.2   172  PRO172      0.2576
      4  O         -8.5170   24.5750  -43.1010 O.2   172  PRO172     -0.2718
      5  CB        -9.8690   27.2620  -42.9650 C.3   172  PRO172      0.0282
      6  CG       -10.1650   28.1470  -41.8110 C.3   172  PRO172      0.0208
      7  CD       -10.1160   27.2930  -40.5670 C.3   172  PRO172      0.0893
      8  N        -10.4890   24.0620  -44.1030 N.am  173  ASN173     -0.1961
      9  CA        -9.9800   23.0070  -44.9800 C.3   173  ASN173      0.1819
     10  C         -9.2280   21.9120  -44.2330 C.2   173  ASN173      0.2621
     11  O         -8.0010   21.8310  -44.2990 O.2   173  ASN173     -0.2715
     12  CB        -9.1070   23.6020  -46.0970 C.3   173  ASN173      0.1195
     13  CG        -9.8750   24.5550  -46.9970 C.2   173  ASN173      0.2630
     14  OD1      -11.0280   24.8980  -46.7240 O.2   173  ASN173     -0.2716
     15  ND2       -9.2340   24.9910  -48.0800 N.am  173  ASN173     -0.0877
     16  N         -9.9850   21.1070  -43.4910 N.am  174  VAL174     -0.1963
     17  CA        -9.4880   19.8560  -42.8820 C.3   174  VAL174      0.1727
     18  C        -10.3350   18.6160  -43.2240 C.2   174  VAL174      0.2617
     19  O        -10.0050   17.5080  -42.7970 O.2   174  VAL174     -0.2715
     20  CB        -9.3380   19.9800  -41.3450 C.3   174  VAL174      0.0290
     21  CG1       -8.3960   21.1170  -41.0040 C.3   174  VAL174      0.0023
     22  CG2      -10.6840   20.1830  -40.6570 C.3   174  VAL174      0.0023
     23  N        -11.4020   18.7950  -44.0000 N.am  175  GLY175     -0.1940
     24  CA       -12.2370   17.6930  -44.4510 C.3   175  GLY175      0.2014
     25  C        -13.4910   17.3910  -43.6590 C.2   175  GLY175      0.2639
     26  O        -14.0930   16.3470  -43.8840 O.2   175  GLY175     -0.2714
     27  N        -13.9100   18.2960  -42.7710 N.am  176  LYS176     -0.1963
     28  CA       -15.1360   18.1040  -41.9660 C.3   176  LYS176      0.1728
     29  C        -16.3620   17.8330  -42.8340 C.2   176  LYS176      0.2617
     30  O        -17.1800   16.9720  -42.5100 O.2   176  LYS176     -0.2715
     31  CB       -15.4340   19.3200  -41.0770 C.3   176  LYS176      0.0311
     32  CG       -14.3890   19.6190  -40.0130 C.3   176  LYS176      0.0038
     33  CD       -14.6630   20.8940  -39.2310 C.3   176  LYS176      0.0206
     34  CE       -14.6440   22.1670  -40.0740 C.3   176  LYS176      0.1093
     35  NZ       -13.3690   22.4060  -40.8110 N.3   176  LYS176     -0.1314
     36  N        -16.4770   18.5760  -43.9330 N.am  177  SER177     -0.1936
     37  CA       -17.5740   18.4090  -44.8800 C.3   177  SER177      0.2055
     38  C        -17.4680   17.0870  -45.6300 C.2   177  SER177      0.2643
     39  O        -18.4360   16.3250  -45.6840 O.2   177  SER177     -0.2714
     40  CB       -17.6240   19.5740  -45.8730 C.3   177  SER177      0.2130
     41  OG       -16.5480   19.5370  -46.7840 O.3   177  SER177     -0.2179
     42  N        -16.2900   16.8340  -46.2040 N.am  178  SER178     -0.1949
     43  CA       -15.9940   15.5700  -46.8930 C.3   178  SER178      0.1924
     44  C        -16.2330   14.3660  -45.9890 C.2   178  SER178      0.2314
     45  O        -16.9390   13.4240  -46.3610 O.2   178  SER178     -0.2863
     46  CB       -14.5410   15.5480  -47.3790 C.3   178  SER178      0.2116
     47  OG       -14.3540   16.4180  -48.4770 O.3   178  SER178     -0.2180
     48  N        -23.0260   24.7770  -40.7290 N.3   218  GLY218     -0.1210
     49  CA       -21.6680   25.3360  -40.7170 C.3   218  GLY218      0.1956
     50  C        -20.7790   24.7600  -41.8080 C.2   218  GLY218      0.2614
     51  O        -19.9650   25.4760  -42.3920 O.2   218  GLY218     -0.2717
     52  N        -20.9220   23.4600  -42.0650 N.am  219  MET219     -0.1933
     53  CA       -20.3570   22.8310  -43.2670 C.3   219  MET219      0.1821
     54  C        -20.9530   23.4700  -44.5290 C.2   219  MET219      0.2332
     55  O        -20.2160   23.9080  -45.4120 O.2   219  MET219     -0.2860
     56  CB       -20.5860   21.3000  -43.2540 C.2   219  MET219      0.0096
     57  CG       -20.6750   20.6290  -44.6240 C.2   219  MET219      0.0285
     58  SD       -21.0010   18.8500  -44.6000 S.3   219  MET219     -0.1125
     59  CE       -22.5710   18.7480  -45.4580 C.3   219  MET219      0.0742
     60  N        -20.1050   27.5190  -45.8020 N.3   222  LYS222     -0.1245
     61  CA       -18.9380   27.7150  -46.6500 C.3   222  LYS222      0.1561
     62  C        -19.0920   26.7970  -47.8600 C.2   222  LYS222      0.2260
     63  O        -19.0010   25.5750  -47.7440 O.2   222  LYS222     -0.2867
     64  CB       -17.6620   27.4240  -45.8600 C.3   222  LYS222      0.0271
     65  CG       -17.5100   28.3290  -44.6340 C.3   222  LYS222      0.0035
     66  CD       -16.3760   27.9160  -43.7080 C.3   222  LYS222      0.0206
     67  CE       -16.7100   26.6740  -42.8940 C.3   222  LYS222      0.1093
     68  NZ       -17.7470   26.8970  -41.8490 N.3   222  LYS222     -0.1314
     69  N        -14.8480   33.2330  -47.0100 N.3   227  GLU227     -0.1245
     70  CA       -14.2290   33.2220  -45.6800 C.3   227  GLU227      0.1567
     71  C        -13.8670   34.6360  -45.2290 C.2   227  GLU227      0.2260
     72  O        -12.8150   35.1680  -45.6090 O.2   227  GLU227     -0.2867
     73  CB       -12.9680   32.3400  -45.6600 C.3   227  GLU227      0.0388
     74  CG       -13.1520   30.9220  -46.1820 C.3   227  GLU227      0.1160
     75  CD       -14.2890   30.1720  -45.5140 C.2   227  GLU227      0.3649
     76  OE1      -14.9420   29.3630  -46.2050 O.co2 227  GLU227     -0.2457
     77  OE2      -14.5330   30.3910  -44.3080 O.co2 227  GLU227     -0.2457
     78  N         -2.0850   16.0330  -42.9900 N.3   254  GLU254     -0.1245
     79  CA        -1.0930   16.5590  -43.9410 C.3   254  GLU254      0.1567
     80  C         -0.1740   17.6130  -43.3190 C.2   254  GLU254      0.2260
     81  O          1.0290   17.3810  -43.1850 O.2   254  GLU254     -0.2867
     82  CB        -1.7760   17.1400  -45.1870 C.3   254  GLU254      0.0388
     83  CG        -2.4860   16.1180  -46.0590 C.3   254  GLU254      0.1160
     84  CD        -2.9230   16.6980  -47.3960 C.2   254  GLU254      0.3649
     85  OE1       -2.0440   17.0570  -48.2120 O.co2 254  GLU254     -0.2457
     86  OE2       -4.1450   16.7870  -47.6410 O.co2 254  GLU254     -0.2457
     87  N         -7.6800   13.2370  -40.1470 N.3   280  ASN280     -0.1225
     88  CA        -8.1670   13.0800  -41.5150 C.3   280  ASN280      0.1785
     89  C         -7.0240   13.2480  -42.5140 C.2   280  ASN280      0.2597
     90  O         -5.9350   13.7140  -42.1580 O.2   280  ASN280     -0.2718
     91  CB        -9.2900   14.0920  -41.8030 C.3   280  ASN280      0.1169
     92  CG       -10.1870   13.6780  -42.9620 C.2   280  ASN280      0.2627
     93  OD1      -10.1240   12.5490  -43.4550 O.2   280  ASN280     -0.2716
     94  ND2      -11.0280   14.5980  -43.4060 N.am  280  ASN280     -0.0877
     95  N         -7.2830   12.8380  -43.7550 N.am  281  LYS281     -0.1980
     96  CA        -6.3470   12.9780  -44.8700 C.3   281  LYS281      0.1596
     97  C         -5.1100   12.1090  -44.6670 C.2   281  LYS281      0.2287
     98  O         -4.0100   12.4820  -45.0730 O.2   281  LYS281     -0.2864
     99  CB        -5.9620   14.4520  -45.1010 C.3   281  LYS281      0.0298
    100  CG        -7.1310   15.4240  -45.0000 C.3   281  LYS281      0.0038
    101  CD        -6.9590   16.6440  -45.8880 C.3   281  LYS281      0.0206
    102  CE        -7.9880   17.7050  -45.5380 C.3   281  LYS281      0.1093
    103  NZ        -7.9210   18.9020  -46.4200 N.3   281  LYS281     -0.1314
    104  N         -4.4970    9.1980  -46.0050 N.3   283  ASP283     -0.1225
    105  CA        -4.0320    8.7770  -47.3300 C.3   283  ASP283      0.1805
    106  C         -2.9880    9.7560  -47.8930 C.2   283  ASP283      0.2597
    107  O         -1.9810    9.3280  -48.4660 O.2   283  ASP283     -0.2718
    108  CB        -5.2100    8.6360  -48.3100 C.3   283  ASP283      0.1424
    109  CG        -5.8950    9.9640  -48.6100 C.2   283  ASP283      0.3668
    110  OD1       -6.2330   10.6920  -47.6490 O.co2 283  ASP283     -0.2456
    111  OD2       -6.0840   10.2920  -49.7990 O.co2 283  ASP283     -0.2456
    112  N         -3.2310   11.0580  -47.7110 N.am  284  ALA284     -0.1979
    113  CA        -2.3350   12.1130  -48.1990 C.3   284  ALA284      0.1597
    114  C         -1.0590   12.2160  -47.3670 C.2   284  ALA284      0.2287
    115  O         -0.0710   12.7850  -47.8230 O.2   284  ALA284     -0.2864
    116  CB        -3.0540   13.4500  -48.2250 C.3   284  ALA284      0.0319
    117  N         -9.6240    8.6830  -43.7220 N.3   315  SER315     -0.1202
    118  CA        -9.6060    9.4540  -44.9570 C.3   315  SER315      0.2020
    119  C        -10.9960    9.5130  -45.5630 C.2   315  SER315      0.2619
    120  O        -11.6350    8.4810  -45.7340 O.2   315  SER315     -0.2717
    121  CB        -8.6300    8.8080  -45.9440 C.3   315  SER315      0.2103
    122  OG        -8.6580    9.4450  -47.2070 O.3   315  SER315     -0.2182
    123  N        -11.4500   10.7200  -45.8890 N.am  316  ALA316     -0.1965
    124  CA       -12.7310   10.9210  -46.5700 C.3   316  ALA316      0.1728
    125  C        -12.6790   10.6180  -48.0830 C.2   316  ALA316      0.2616
    126  O        -13.7010   10.2530  -48.6710 O.2   316  ALA316     -0.2715
    127  CB       -13.2340   12.3370  -46.3300 C.3   316  ALA316      0.0334
    128  N        -11.5060   10.7720  -48.7040 N.am  317  LEU317     -0.1977
    129  CA       -11.3250   10.4860  -50.1420 C.3   317  LEU317      0.1596
    130  C        -11.2740    8.9780  -50.3820 C.2   317  LEU317      0.2287
    131  O        -12.2020    8.4090  -50.9600 O.2   317  LEU317     -0.2864
    132  CB       -10.0640   11.1870  -50.6960 C.3   317  LEU317      0.0297
    133  CG        -9.3620   10.7260  -51.9940 C.3   317  LEU317      0.0022
    134  CD1      -10.2840   10.6160  -53.2010 C.3   317  LEU317      0.0001
    135  CD2       -8.2130   11.6760  -52.3160 C.3   317  LEU317      0.0001
@<TRIPOS>BOND
     1   134   133    1
     2   135   133    1
     3   133   132    1
     4   131   130    2
     5   132   129    1
     6   130   129    1
     7   129   128    1
     8   111   109   ar
     9   128   125   am
    10   126   125    2
    11   109   108    1
    12   109   110   ar
    13    47    46    1
    14   107   106    2
    15   108   105    1
    16   116   113    1
    17    85    84   ar
    18   113   112    1
    19   113   114    1
    20   125   124    1
    21    15    13   am
    22   106   112   am
    23   106   105    1
    24    62    63    2
    25    62    61    1
    26   115   114    2
    27    86    84   ar
    28    84    83    1
    29    46    43    1
    30   105   104    1
    31   122   121    1
    32    69    70    1
    33    13    14    2
    34    13    12    1
    35    43    42    1
    36    43    44    1
    37    41    40    1
    38    61    64    1
    39    61    60    1
    40   124   127    1
    41   124   123    1
    42   103   102    1
    43    45    44    2
    44    76    75   ar
    45    42    38   am
    46    74    73    1
    47    74    75    1
    48    12     9    1
    49    83    82    1
    50   121   118    1
    51   123   119   am
    52   101   102    1
    53   101   100    1
    54    40    37    1
    55    64    65    1
    56   120   119    2
    57    39    38    2
    58    70    73    1
    59    70    71    1
    60    38    37    1
    61    72    71    2
    62   119   118    1
    63    75    77   ar
    64    59    58    1
    65    55    54    2
    66    82    79    1
    67    99   100    1
    68    99    96    1
    69    98    97    2
    70     9    10    1
    71     9     8    1
    72   118   117    1
    73    37    36    1
    74    96    97    1
    75    96    95    1
    76    65    66    1
    77    57    58    1
    78    57    56    2
    79    54    53    1
    80    24    23    1
    81    24    25    1
    82    11    10    2
    83    10    16   am
    84     8     3   am
    85    23    18   am
    86    79    80    1
    87    79    78    1
    88    36    29   am
    89    26    25    2
    90    95    89   am
    91    66    67    1
    92    25    27   am
    93    16    17    1
    94    93    92    2
    95    94    92   am
    96    80    81    2
    97     3     4    2
    98     3     2    1
    99    53    56    1
   100    53    52    1
   101    18    17    1
   102    18    19    2
   103     5     2    1
   104     5     6    1
   105    92    91    1
   106    67    68    1
   107    17    20    1
   108    29    30    2
   109    29    28    1
   110    27    28    1
   111     2     1    1
   112    89    90    2
   113    89    88    1
   114    51    50    2
   115    52    50   am
   116    28    31    1
   117     6     7    1
   118    50    49    1
   119    91    88    1
   120    88    87    1
   121    20    21    1
   122    20    22    1
   123     1     7    1
   124    31    32    1
   125    35    34    1
   126    48    49    1
   127    34    33    1
   128    32    33    1
