@<TRIPOS>MOLECULE
tmp/5m7jC00.pdb
 138 141 0 0 0
SMALL
GASTEIGER

@<TRIPOS>ATOM
      1  N          7.3820  -14.6930   61.4060 N.3   195  TYR195     -0.1227
      2  CA         6.8280  -13.4830   60.8060 C.3   195  TYR195      0.1736
      3  C          7.8050  -12.3190   60.8520 C.2   195  TYR195      0.2595
      4  O          7.6230  -11.3410   60.1200 O.2   195  TYR195     -0.2718
      5  CB         5.5310  -13.0670   61.5020 C.3   195  TYR195      0.0548
      6  CG         4.3170  -13.8710   61.1080 C.ar  195  TYR195     -0.0200
      7  CD1        3.8110  -13.8040   59.8190 C.ar  195  TYR195     -0.0009
      8  CD2        3.6510  -14.6610   62.0340 C.ar  195  TYR195     -0.0009
      9  CE1        2.6960  -14.5250   59.4540 C.ar  195  TYR195      0.0417
     10  CE2        2.5270  -15.3810   61.6760 C.ar  195  TYR195      0.0417
     11  CZ         2.0570  -15.3110   60.3820 C.ar  195  TYR195      0.1957
     12  OH         0.9420  -16.0280   60.0140 O.3   195  TYR195     -0.2866
     13  N          8.8290  -12.3950   61.6970 N.am  196  TYR196     -0.1962
     14  CA         9.8060  -11.3270   61.8220 C.3   196  TYR196      0.1771
     15  C         11.1210  -11.6630   61.1330 C.2   196  TYR196      0.2620
     16  O         12.1220  -10.9750   61.3530 O.2   196  TYR196     -0.2715
     17  CB        10.0250  -11.0010   63.2990 C.3   196  TYR196      0.0574
     18  CG         8.8990  -10.1670   63.8670 C.ar  196  TYR196     -0.0198
     19  CD1        7.7530  -10.7710   64.3680 C.ar  196  TYR196     -0.0009
     20  CD2        8.9690   -8.7810   63.8830 C.ar  196  TYR196     -0.0009
     21  CE1        6.7130  -10.0190   64.8780 C.ar  196  TYR196      0.0417
     22  CE2        7.9330   -8.0200   64.3920 C.ar  196  TYR196      0.0417
     23  CZ         6.8080   -8.6450   64.8890 C.ar  196  TYR196      0.1957
     24  OH         5.7720   -7.8960   65.3980 O.3   196  TYR196     -0.2866
     25  N         11.1360  -12.7040   60.3050 N.am  197  CYS197     -0.1954
     26  CA        12.2710  -12.9920   59.4430 C.3   197  CYS197      0.1828
     27  C         12.0710  -12.2840   58.1090 C.2   197  CYS197      0.2467
     28  O         11.0950  -12.5800   57.4080 O.2   197  CYS197     -0.2730
     29  CB        12.4060  -14.4920   59.2300 C.3   197  CYS197      0.0996
     30  SG        13.7830  -15.0000   58.1820 S.3   197  CYS197     -0.0797
     31  N         12.9320  -11.3320   57.7310 N.am  198  PRO198     -0.2726
     32  CA        12.7010  -10.6040   56.4700 C.3   198  PRO198      0.1402
     33  C         12.6670  -11.4970   55.2470 C.2   198  PRO198      0.2269
     34  O         11.9620  -11.1860   54.2790 O.2   198  PRO198     -0.2865
     35  CB        13.8790   -9.6230   56.4160 C.3   198  PRO198      0.0296
     36  CG        14.2290   -9.4020   57.8300 C.3   198  PRO198      0.0237
     37  CD        14.0290  -10.7340   58.5080 C.3   198  PRO198      0.0939
     38  N          9.2660  -12.8670   54.7830 N.3   201  GLY201     -0.1210
     39  CA         8.4210  -11.9290   54.0590 C.3   201  GLY201      0.1956
     40  C          8.7650  -11.8470   52.5850 C.2   201  GLY201      0.2611
     41  O          7.8770  -11.6890   51.7420 O.2   201  GLY201     -0.2717
     42  N         10.0550  -11.9460   52.2520 N.am  202  PHE202     -0.1976
     43  CA        10.4580  -11.9770   50.8490 C.3   202  PHE202      0.1639
     44  C          9.8910  -13.2050   50.1500 C.2   202  PHE202      0.2290
     45  O          9.3310  -13.1070   49.0520 O.2   202  PHE202     -0.2864
     46  CB        11.9830  -11.9500   50.7340 C.3   202  PHE202      0.0560
     47  CG        12.5680  -10.5650   50.6960 C.ar  202  PHE202     -0.0200
     48  CD1       12.3670   -9.7430   49.5980 C.ar  202  PHE202     -0.0042
     49  CD2       13.3320  -10.0920   51.7500 C.ar  202  PHE202     -0.0042
     50  CE1       12.9090   -8.4720   49.5580 C.ar  202  PHE202     -0.0003
     51  CE2       13.8760   -8.8220   51.7160 C.ar  202  PHE202     -0.0003
     52  CZ        13.6650   -8.0110   50.6180 C.ar  202  PHE202     -0.0000
     53  N          6.1490  -12.7340   49.6800 N.3   205  GLY205     -0.1210
     54  CA         5.7960  -11.8180   48.6080 C.3   205  GLY205      0.1956
     55  C          5.9350  -12.4480   47.2350 C.2   205  GLY205      0.2611
     56  O          5.1070  -12.2220   46.3490 O.2   205  GLY205     -0.2717
     57  N          6.9830  -13.2500   47.0420 N.am  206  PHE206     -0.1976
     58  CA         7.1710  -13.9290   45.7670 C.3   206  PHE206      0.1639
     59  C          6.1670  -15.0610   45.5810 C.2   206  PHE206      0.2290
     60  O          5.7410  -15.3290   44.4520 O.2   206  PHE206     -0.2864
     61  CB         8.6020  -14.4550   45.6660 C.3   206  PHE206      0.0560
     62  CG         9.6190  -13.3960   45.3510 C.ar  206  PHE206     -0.0200
     63  CD1        9.5920  -12.7260   44.1380 C.ar  206  PHE206     -0.0042
     64  CD2       10.5990  -13.0630   46.2720 C.ar  206  PHE206     -0.0042
     65  CE1       10.5310  -11.7520   43.8470 C.ar  206  PHE206     -0.0003
     66  CE2       11.5370  -12.0880   45.9900 C.ar  206  PHE206     -0.0003
     67  CZ        11.5030  -11.4310   44.7760 C.ar  206  PHE206     -0.0000
     68  N          2.6580    0.5360   32.1190 N.3   256  PHE256     -0.1241
     69  CA         3.7790   -0.1320   31.4820 C.3   256  PHE256      0.1605
     70  C          3.3490   -1.5540   31.1580 C.2   256  PHE256      0.2264
     71  O          2.2470   -1.9850   31.5090 O.2   256  PHE256     -0.2867
     72  CB         5.0300   -0.1000   32.3680 C.3   256  PHE256      0.0534
     73  CG         4.8830   -0.8550   33.6580 C.ar  256  PHE256     -0.0203
     74  CD1        4.1540   -0.3270   34.7110 C.ar  256  PHE256     -0.0042
     75  CD2        5.4690   -2.1000   33.8150 C.ar  256  PHE256     -0.0042
     76  CE1        4.0190   -1.0250   35.8940 C.ar  256  PHE256     -0.0003
     77  CE2        5.3350   -2.8020   34.9950 C.ar  256  PHE256     -0.0003
     78  CZ         4.6100   -2.2640   36.0350 C.ar  256  PHE256     -0.0000
     79  N          9.5380  -12.8810   34.0950 N.3   266  TRP266     -0.1241
     80  CA         8.9800  -12.4680   35.3800 C.3   266  TRP266      0.1605
     81  C          8.4640  -13.6680   36.1630 C.2   266  TRP266      0.2264
     82  O          8.7640  -13.8260   37.3530 O.2   266  TRP266     -0.2867
     83  CB         7.8570  -11.4520   35.1660 C.3   266  TRP266      0.0550
     84  CG         8.3230  -10.0750   34.8090 C.ar  266  TRP266      0.0003
     85  CD1        8.5590   -9.5870   33.5580 C.ar  266  TRP266      0.0946
     86  CD2        8.5890   -8.9990   35.7160 C.ar  266  TRP266      0.0152
     87  NE1        8.9650   -8.2770   33.6290 N.ar  266  TRP266     -0.2442
     88  CE2        8.9910   -7.8910   34.9430 C.ar  266  TRP266      0.0810
     89  CE3        8.5290   -8.8660   37.1070 C.ar  266  TRP266      0.0012
     90  CZ2        9.3330   -6.6680   35.5130 C.ar  266  TRP266      0.0191
     91  CZ3        8.8680   -7.6500   37.6710 C.ar  266  TRP266      0.0001
     92  CH2        9.2640   -6.5670   36.8760 C.ar  266  TRP266      0.0015
     93  N          9.9900  -15.0300   39.6450 N.3   270  PHE270     -0.1241
     94  CA         9.2360  -15.0080   40.8940 C.3   270  PHE270      0.1605
     95  C          9.2190  -16.3810   41.5530 C.2   270  PHE270      0.2264
     96  O          9.4620  -16.5030   42.7590 O.2   270  PHE270     -0.2867
     97  CB         7.8140  -14.5090   40.6400 C.3   270  PHE270      0.0534
     98  CG         7.6560  -13.0300   40.8230 C.ar  270  PHE270     -0.0203
     99  CD1        8.4560  -12.1420   40.1240 C.ar  270  PHE270     -0.0042
    100  CD2        6.7150  -12.5280   41.7040 C.ar  270  PHE270     -0.0042
    101  CE1        8.3160  -10.7800   40.2940 C.ar  270  PHE270     -0.0003
    102  CE2        6.5700  -11.1670   41.8800 C.ar  270  PHE270     -0.0003
    103  CZ         7.3720  -10.2920   41.1740 C.ar  270  PHE270     -0.0000
    104  N         15.5210   -9.7880   67.0680 N.3   295  TRP295     -0.1227
    105  CA        16.3840   -9.2290   66.0340 C.3   295  TRP295      0.1737
    106  C         15.7430   -8.0050   65.3960 C.2   295  TRP295      0.2595
    107  O         16.4340   -7.0360   65.0620 O.2   295  TRP295     -0.2718
    108  CB        16.6940  -10.2920   64.9800 C.3   295  TRP295      0.0564
    109  CG        17.5890   -9.8140   63.8800 C.ar  295  TRP295      0.0003
    110  CD1       18.9500   -9.7350   63.9040 C.ar  295  TRP295      0.0946
    111  CD2       17.1830   -9.3490   62.5880 C.ar  295  TRP295      0.0152
    112  NE1       19.4170   -9.2500   62.7060 N.ar  295  TRP295     -0.2442
    113  CE2       18.3520   -9.0060   61.8810 C.ar  295  TRP295      0.0810
    114  CE3       15.9450   -9.1910   61.9600 C.ar  295  TRP295      0.0012
    115  CZ2       18.3180   -8.5130   60.5800 C.ar  295  TRP295      0.0191
    116  CZ3       15.9140   -8.7000   60.6720 C.ar  295  TRP295      0.0001
    117  CH2       17.0910   -8.3680   59.9940 C.ar  295  TRP295      0.0015
    118  N         14.4190   -8.0310   65.2200 N.am  296  CYS296     -0.1970
    119  CA        13.7160   -6.8370   64.7630 C.3   296  CYS296      0.1712
    120  C         13.6370   -5.7950   65.8690 C.2   296  CYS296      0.2296
    121  O         13.6940   -4.5890   65.6000 O.2   296  CYS296     -0.2864
    122  CB        12.3160   -7.2000   64.2750 C.3   296  CYS296      0.0983
    123  SG        12.2970   -8.2250   62.7990 S.3   296  CYS296     -0.0798
    124  N         16.8430   -3.8070   65.9990 N.3   299  HIS299     -0.1241
    125  CA        16.9700   -2.8030   64.9540 C.3   299  HIS299      0.1621
    126  C         15.8290   -1.7950   64.9690 C.2   299  HIS299      0.2264
    127  O         15.7820   -0.9200   64.0980 O.2   299  HIS299     -0.2867
    128  CB        17.0580   -3.4850   63.5830 C.3   299  HIS299      0.0745
    129  CG        18.2670   -4.3540   63.4210 C.ar  299  HIS299      0.0817
    130  ND1       19.5530   -3.8700   63.5340 N.ar  299  HIS299     -0.2268
    131  CD2       18.3860   -5.6770   63.1560 C.ar  299  HIS299      0.1154
    132  CE1       20.4110   -4.8580   63.3460 C.ar  299  HIS299      0.1986
    133  NE2       19.7280   -5.9640   63.1140 N.ar  299  HIS299     -0.2212
    134  N         12.5200   -2.2580   64.5360 N.3   301  ALA301     -0.1245
    135  CA        11.4810   -2.4150   63.5290 C.3   301  ALA301      0.1562
    136  C         10.1790   -2.9720   64.0850 C.2   301  ALA301      0.2260
    137  O          9.1330   -2.8100   63.4460 O.2   301  ALA301     -0.2867
    138  CB        11.9780   -3.3200   62.3980 C.3   301  ALA301      0.0290
@<TRIPOS>BOND
     1    70    69    1
     2    70    71    2
     3    69    68    1
     4    69    72    1
     5    72    73    1
     6    85    87   ar
     7    85    84   ar
     8    87    88   ar
     9    73    75   ar
    10    73    74   ar
    11    75    77   ar
    12    79    80    1
    13    74    76   ar
    14    84    83    1
    15    84    86   ar
    16    88    90   ar
    17    88    86   ar
    18    77    78   ar
    19    83    80    1
    20    80    81    1
    21    90    92   ar
    22    86    89   ar
    23    76    78   ar
    24    81    82    2
    25    92    91   ar
    26    89    91   ar
    27    93    94    1
    28    99   101   ar
    29    99    98   ar
    30   101   103   ar
    31    97    98    1
    32    97    94    1
    33    98   100   ar
    34    94    95    1
    35   103   102   ar
    36    95    96    2
    37   100   102   ar
    38    65    63   ar
    39    65    67   ar
    40    63    62   ar
    41    60    59    2
    42    67    66   ar
    43    62    61    1
    44    62    64   ar
    45    59    58    1
    46    61    58    1
    47    58    57    1
    48    66    64   ar
    49    56    55    2
    50    57    55   am
    51    55    54    1
    52    54    53    1
    53    45    44    2
    54    50    48   ar
    55    50    52   ar
    56    48    47   ar
    57    44    43    1
    58    52    51   ar
    59    47    46    1
    60    47    49   ar
    61    46    43    1
    62    43    42    1
    63    51    49   ar
    64    41    40    2
    65    42    40   am
    66    40    39    1
    67    39    38    1
    68    34    33    2
    69    33    32    1
    70    35    32    1
    71    35    36    1
    72    32    31    1
    73    28    27    2
    74    31    27   am
    75    31    37    1
    76    36    37    1
    77    27    26    1
    78    30    29    1
    79    29    26    1
    80    26    25    1
    81     9     7   ar
    82     9    11   ar
    83     7     6   ar
    84   117   115   ar
    85   117   116   ar
    86    12    11    1
    87     4     3    2
    88    25    15   am
    89    11    10   ar
    90   115   113   ar
    91   116   114   ar
    92     2     3    1
    93     2     1    1
    94     2     5    1
    95     3    13   am
    96     6     5    1
    97     6     8   ar
    98    15    16    2
    99    15    14    1
   100    10     8   ar
   101    13    14    1
   102    14    17    1
   103   113   111   ar
   104   113   112   ar
   105   114   111   ar
   106   138   135    1
   107   111   109   ar
   108   112   110   ar
   109   123   122    1
   110   133   131   ar
   111   133   132   ar
   112   131   129   ar
   113    17    18    1
   114   132   130   ar
   115   129   130   ar
   116   129   128    1
   117   137   136    2
   118   135   136    1
   119   135   134    1
   120   128   125    1
   121    18    20   ar
   122    18    19   ar
   123   109   110   ar
   124   109   108    1
   125    20    22   ar
   126   127   126    2
   127   122   119    1
   128    19    21   ar
   129    22    23   ar
   130   119   118    1
   131   119   120    1
   132    21    23   ar
   133    23    24    1
   134   125   126    1
   135   125   124    1
   136   108   105    1
   137   107   106    2
   138   118   106   am
   139   106   105    1
   140   121   120    2
   141   105   104    1
