@<TRIPOS>MOLECULE
tmp/5m7lD00.pdb
 108 108 0 0 0
SMALL
GASTEIGER

@<TRIPOS>ATOM
      1  N        -21.8630   -6.9130  -58.5050 N.3    13  GLN13      -0.1245
      2  CA       -21.5430   -5.5360  -58.1840 C.3    13  GLN13       0.1566
      3  C        -22.1260   -5.1530  -56.8320 C.2    13  GLN13       0.2260
      4  O        -21.4830   -4.4700  -56.0340 O.2    13  GLN13      -0.2867
      5  CB       -22.0710   -4.5980  -59.2590 C.3    13  GLN13       0.0367
      6  CG       -21.7500   -3.1470  -58.9920 C.3    13  GLN13       0.0905
      7  CD       -22.4440   -2.2240  -59.9610 C.2    13  GLN13       0.2608
      8  OE1      -23.3110   -2.6520  -60.7190 O.2    13  GLN13      -0.2717
      9  NE2      -22.0680   -0.9490  -59.9460 N.am   13  GLN13      -0.0878
     10  N        -20.3980   -6.7700  -53.8430 N.3    16  TRP16      -0.1227
     11  CA       -19.1150   -6.1210  -53.5980 C.3    16  TRP16       0.1737
     12  C        -19.2360   -5.0810  -52.4890 C.2    16  TRP16       0.2595
     13  O        -18.3780   -4.9940  -51.6070 O.2    16  TRP16      -0.2718
     14  CB       -18.5860   -5.4760  -54.8800 C.3    16  TRP16       0.0564
     15  CG       -17.2250   -4.8780  -54.7280 C.ar   16  TRP16       0.0003
     16  CD1      -16.0260   -5.5080  -54.8970 C.ar   16  TRP16       0.0946
     17  CD2      -16.9210   -3.5250  -54.3700 C.ar   16  TRP16       0.0152
     18  NE1      -14.9920   -4.6290  -54.6690 N.ar   16  TRP16      -0.2442
     19  CE2      -15.5160   -3.4060  -54.3420 C.ar   16  TRP16       0.0810
     20  CE3      -17.7000   -2.4030  -54.0700 C.ar   16  TRP16       0.0012
     21  CZ2      -14.8760   -2.2090  -54.0290 C.ar   16  TRP16       0.0191
     22  CZ3      -17.0630   -1.2160  -53.7580 C.ar   16  TRP16       0.0001
     23  CH2      -15.6660   -1.1280  -53.7400 C.ar   16  TRP16       0.0015
     24  N        -20.3110   -4.3020  -52.5290 N.am   17  TYR17      -0.1976
     25  CA       -20.5580   -3.3120  -51.4920 C.3    17  TYR17       0.1639
     26  C        -20.9200   -3.9830  -50.1690 C.2    17  TYR17       0.2290
     27  O        -20.4480   -3.5730  -49.1050 O.2    17  TYR17      -0.2864
     28  CB       -21.6680   -2.3600  -51.9190 C.3    17  TYR17       0.0560
     29  CG       -21.2940   -1.4360  -53.0550 C.ar   17  TYR17      -0.0198
     30  CD1      -20.6960   -0.2050  -52.8060 C.ar   17  TYR17      -0.0009
     31  CD2      -21.5530   -1.7870  -54.3780 C.ar   17  TYR17      -0.0009
     32  CE1      -20.3620    0.6520  -53.8430 C.ar   17  TYR17       0.0417
     33  CE2      -21.2230   -0.9370  -55.4240 C.ar   17  TYR17       0.0417
     34  CZ       -20.6280    0.2810  -55.1490 C.ar   17  TYR17       0.1957
     35  OH       -20.2950    1.1330  -56.1790 O.3    17  TYR17      -0.2866
     36  N        -17.8420   -5.1860  -48.2610 N.3    20  TRP20      -0.1241
     37  CA       -17.1320   -4.1280  -47.5490 C.3    20  TRP20       0.1605
     38  C        -17.8830   -3.7240  -46.2880 C.2    20  TRP20       0.2264
     39  O        -17.2800   -3.5160  -45.2350 O.2    20  TRP20      -0.2867
     40  CB       -16.9260   -2.9070  -48.4470 C.3    20  TRP20       0.0550
     41  CG       -15.6600   -2.9560  -49.2570 C.ar   20  TRP20       0.0003
     42  CD1      -15.5490   -2.8810  -50.6190 C.ar   20  TRP20       0.0946
     43  CD2      -14.3240   -3.0930  -48.7540 C.ar   20  TRP20       0.0152
     44  NE1      -14.2260   -2.9600  -50.9920 N.ar   20  TRP20      -0.2442
     45  CE2      -13.4550   -3.0890  -49.8660 C.ar   20  TRP20       0.0810
     46  CE3      -13.7790   -3.2190  -47.4730 C.ar   20  TRP20       0.0012
     47  CZ2      -12.0740   -3.2070  -49.7330 C.ar   20  TRP20       0.0191
     48  CZ3      -12.4060   -3.3340  -47.3440 C.ar   20  TRP20       0.0001
     49  CH2      -11.5700   -3.3280  -48.4670 C.ar   20  TRP20       0.0015
     50  N        -17.4990   -6.3990  -43.5190 N.3    23  ILE23      -0.1231
     51  CA       -16.1290   -6.4380  -43.0160 C.3    23  ILE23       0.1692
     52  C        -15.8140   -5.2780  -42.0770 C.2    23  ILE23       0.2592
     53  O        -15.2600   -5.4800  -40.9960 O.2    23  ILE23      -0.2718
     54  CB       -15.1200   -6.4450  -44.1780 C.3    23  ILE23       0.0266
     55  CG1      -15.0040   -7.8570  -44.7480 C.3    23  ILE23       0.0019
     56  CG2      -13.7540   -5.9570  -43.7200 C.3    23  ILE23       0.0020
     57  CD1      -14.2030   -7.9290  -46.0150 C.3    23  ILE23       0.0001
     58  N        -16.1730   -4.0660  -42.4810 N.am   24  TRP24      -0.1976
     59  CA       -15.9020   -2.9020  -41.6500 C.3    24  TRP24       0.1640
     60  C        -16.7990   -2.8690  -40.4260 C.2    24  TRP24       0.2290
     61  O        -16.4140   -2.3440  -39.3830 O.2    24  TRP24      -0.2864
     62  CB       -16.0620   -1.6160  -42.4520 C.3    24  TRP24       0.0576
     63  CG       -14.9080   -1.3610  -43.3530 C.ar   24  TRP24       0.0006
     64  CD1      -14.9210   -1.3380  -44.7160 C.ar   24  TRP24       0.0946
     65  CD2      -13.5520   -1.1110  -42.9590 C.ar   24  TRP24       0.0152
     66  NE1      -13.6610   -1.0760  -45.1960 N.ar   24  TRP24      -0.2442
     67  CE2      -12.8020   -0.9350  -44.1380 C.ar   24  TRP24       0.0810
     68  CE3      -12.9020   -1.0140  -41.7230 C.ar   24  TRP24       0.0012
     69  CZ2      -11.4330   -0.6670  -44.1190 C.ar   24  TRP24       0.0191
     70  CZ3      -11.5430   -0.7480  -41.7070 C.ar   24  TRP24       0.0001
     71  CH2      -10.8240   -0.5770  -42.8960 C.ar   24  TRP24       0.0015
     72  N        -15.0700   -5.2270  -38.0200 N.3    27  VAL27      -0.1231
     73  CA       -13.7990   -4.6870  -37.5510 C.3    27  VAL27       0.1692
     74  C        -13.9810   -3.5200  -36.5840 C.2    27  VAL27       0.2591
     75  O        -13.3960   -3.5100  -35.5010 O.2    27  VAL27      -0.2718
     76  CB       -12.9220   -4.2330  -38.7330 C.3    27  VAL27       0.0266
     77  CG1      -11.7590   -3.3830  -38.2440 C.3    27  VAL27       0.0020
     78  CG2      -12.4220   -5.4420  -39.5080 C.3    27  VAL27       0.0020
     79  N        -14.7980   -2.5460  -36.9760 N.am   28  LEU28      -0.1980
     80  CA       -14.9820   -1.3280  -36.1870 C.3    28  LEU28       0.1596
     81  C        -15.9900   -1.4880  -35.0470 C.2    28  LEU28       0.2287
     82  O        -15.7520   -1.0260  -33.9280 O.2    28  LEU28      -0.2864
     83  CB       -15.4220   -0.1760  -37.0920 C.3    28  LEU28       0.0297
     84  CG       -14.4490    0.2240  -38.1990 C.3    28  LEU28       0.0022
     85  CD1      -15.0590    1.3000  -39.0860 C.3    28  LEU28       0.0001
     86  CD2      -13.1320    0.6940  -37.6040 C.3    28  LEU28       0.0001
     87  N        -12.6850   -4.0140  -32.8530 N.3    32  ARG32      -0.1245
     88  CA       -12.0420   -2.8490  -32.2600 C.3    32  ARG32       0.1563
     89  C        -12.5870   -2.5660  -30.8590 C.2    32  ARG32       0.2260
     90  O        -11.8850   -2.0000  -30.0300 O.2    32  ARG32      -0.2867
     91  CB       -12.2190   -1.6170  -33.1520 C.3    32  ARG32       0.0307
     92  CG       -11.4380   -1.5510  -34.4490 C.3    32  ARG32       0.0489
     93  CD        -9.9570   -1.3860  -34.1370 C.3    32  ARG32       0.2205
     94  NE        -9.7040   -0.2680  -33.2290 N.pl3  32  ARG32      -0.0865
     95  CZ        -9.1160    0.8650  -33.6210 C.cat  32  ARG32       0.5346
     96  NH1       -8.7790    1.0690  -34.8990 N.pl3  32  ARG32       0.1354
     97  NH2       -8.9310    1.8280  -32.7160 N.pl3  32  ARG32       0.1354
     98  N        -10.8740   -3.2080  -26.5570 N.3    36  ARG36      -0.1245
     99  CA       -10.8530   -2.2520  -25.4540 C.3    36  ARG36       0.1563
    100  C        -11.4710   -2.7950  -24.1760 C.2    36  ARG36       0.2260
    101  O        -12.1230   -2.0580  -23.4390 O.2    36  ARG36      -0.2867
    102  CB       -11.5690   -0.9550  -25.8410 C.3    36  ARG36       0.0307
    103  CG       -11.6920   -0.7190  -27.3260 C.3    36  ARG36       0.0489
    104  CD       -11.8190    0.7620  -27.6450 C.3    36  ARG36       0.2205
    105  NE       -11.8130    1.0010  -29.0850 N.pl3  36  ARG36      -0.0865
    106  CZ       -11.9770    2.1910  -29.6530 C.cat  36  ARG36       0.5346
    107  NH1      -12.1470    3.2720  -28.9040 N.pl3  36  ARG36       0.1354
    108  NH2      -11.9570    2.3030  -30.9750 N.pl3  36  ARG36       0.1354
@<TRIPOS>BOND
     1     8     7    2
     2     7     9   am
     3     7     6    1
     4     5     6    1
     5     5     2    1
     6     1     2    1
     7     2     3    1
     8     3     4    2
     9    35    34    1
    10    33    34   ar
    11    33    31   ar
    12    34    32   ar
    13    16    15   ar
    14    16    18   ar
    15    14    15    1
    16    14    11    1
    17    15    17   ar
    18    18    19   ar
    19    31    29   ar
    20    17    19   ar
    21    17    20   ar
    22    19    21   ar
    23    20    22   ar
    24    21    23   ar
    25    10    11    1
    26    32    30   ar
    27    22    23   ar
    28    11    12    1
    29    29    30   ar
    30    29    28    1
    31    24    12   am
    32    24    25    1
    33    12    13    2
    34    28    25    1
    35    25    26    1
    36    44    42   ar
    37    44    45   ar
    38    42    41   ar
    39    26    27    2
    40    45    47   ar
    41    45    43   ar
    42    47    49   ar
    43    41    43   ar
    44    41    40    1
    45    43    46   ar
    46    49    48   ar
    47    40    37    1
    48    36    37    1
    49    37    38    1
    50    46    48   ar
    51    38    39    2
    52    57    55    1
    53    66    64   ar
    54    66    67   ar
    55    55    54    1
    56    64    63   ar
    57    54    56    1
    58    54    51    1
    59    67    69   ar
    60    67    65   ar
    61    69    71   ar
    62    50    51    1
    63    63    65   ar
    64    63    62    1
    65    51    52    1
    66    65    68   ar
    67    71    70   ar
    68    58    52   am
    69    58    59    1
    70    62    59    1
    71    52    53    2
    72    68    70   ar
    73    59    60    1
    74    60    61    2
    75    78    76    1
    76    85    84    1
    77    76    77    1
    78    76    73    1
    79    84    86    1
    80    84    83    1
    81    72    73    1
    82    73    74    1
    83    83    80    1
    84    79    74   am
    85    79    80    1
    86    74    75    2
    87    80    81    1
    88    81    82    2
    89    96    95    1
    90    92    93    1
    91    92    91    1
    92    93    94    1
    93    95    94    2
    94    95    97    1
    95    91    88    1
    96    87    88    1
    97    88    89    1
    98   108   106    1
    99    89    90    2
   100   106   105    2
   101   106   107    1
   102   105   104    1
   103   104   103    1
   104   103   102    1
   105    98    99    1
   106   102    99    1
   107    99   100    1
   108   100   101    2
