@<TRIPOS>MOLECULE
tmp/5m7mA04.pdb
 220 218 0 0 0
SMALL
GASTEIGER

@<TRIPOS>ATOM
      1  N          6.3760    4.1820   33.1820 N.3    16  LEU16      -0.1245
      2  CA         6.4010    2.7490   32.9020 C.3    16  LEU16       0.1561
      3  C          5.1080    2.0230   33.2900 C.2    16  LEU16       0.2260
      4  O          5.0350    0.8070   33.1620 O.2    16  LEU16      -0.2867
      5  CB         7.5530    2.0530   33.6740 C.3    16  LEU16       0.0270
      6  CG         7.5220    0.4990   33.5120 C.3    16  LEU16       0.0019
      7  CD1        7.8910    0.1030   32.1040 C.3    16  LEU16       0.0001
      8  CD2        8.4520   -0.0730   34.5700 C.3    16  LEU16       0.0001
      9  N         18.2310   15.0250   25.9600 N.3   105  ILE105     -0.1245
     10  CA        18.7860   14.0820   25.0170 C.3   105  ILE105      0.1561
     11  C         17.6780   13.7130   24.0820 C.2   105  ILE105      0.2260
     12  O         16.6220   13.3150   24.5480 O.2   105  ILE105     -0.2867
     13  CB        19.2680   12.7920   25.7000 C.3   105  ILE105      0.0252
     14  CG1       20.2260   13.1130   26.8550 C.3   105  ILE105      0.0019
     15  CG2       19.9410   11.8890   24.6760 C.3   105  ILE105      0.0019
     16  CD1       20.4980   11.9480   27.7720 C.3   105  ILE105      0.0001
     17  N         16.8860   11.1520   21.1890 N.3   107  SER107     -0.1217
     18  CA        17.3560    9.9580   20.5280 C.3   107  SER107      0.1889
     19  C         16.3780    9.5350   19.4230 C.2   107  SER107      0.2288
     20  O         15.1900    9.3930   19.6910 O.2   107  SER107     -0.2866
     21  CB        17.5470    8.8200   21.5380 C.3   107  SER107      0.2089
     22  OG        16.7210    7.7190   21.2000 O.3   107  SER107     -0.2183
     23  N         19.4120   -1.6060   18.3110 N.3   147  THR147     -0.1203
     24  CA        18.8600   -0.5710   19.1960 C.3   147  THR147      0.1994
     25  C         19.2330   -0.6500   20.6870 C.2   147  THR147      0.2617
     26  O         19.5930    0.3570   21.2820 O.2   147  THR147     -0.2717
     27  CB        17.3190   -0.5350   19.1130 C.3   147  THR147      0.1784
     28  OG1       16.9080   -0.4680   17.7330 O.3   147  THR147     -0.2211
     29  CG2       16.7470    0.6680   19.9410 C.3   147  THR147      0.0376
     30  N         19.1100   -1.8250   21.2910 N.am  148  PHE148     -0.1975
     31  CA        19.2820   -1.9430   22.7300 C.3   148  PHE148      0.1639
     32  C         20.7300   -1.7940   23.1270 C.2   148  PHE148      0.2290
     33  O         21.0460   -1.0240   24.0300 O.2   148  PHE148     -0.2864
     34  CB        18.7150   -3.2540   23.2620 C.3   148  PHE148      0.0560
     35  CG        17.2890   -3.1540   23.6860 C.ar  148  PHE148     -0.0200
     36  CD1       16.3270   -2.6710   22.8210 C.ar  148  PHE148     -0.0042
     37  CD2       16.8960   -3.5460   24.9420 C.ar  148  PHE148     -0.0042
     38  CE1       14.9980   -2.5830   23.2080 C.ar  148  PHE148     -0.0003
     39  CE2       15.5650   -3.4590   25.3400 C.ar  148  PHE148     -0.0003
     40  CZ        14.6150   -2.9740   24.4770 C.ar  148  PHE148     -0.0000
     41  N         21.7620    2.2670   22.8360 N.3   151  LEU151     -0.1231
     42  CA        21.1630    3.1840   23.7830 C.3   151  LEU151      0.1693
     43  C         21.7350    2.8900   25.1500 C.2   151  LEU151      0.2592
     44  O         21.9340    3.8130   25.9350 O.2   151  LEU151     -0.2718
     45  CB        19.6300    3.0650   23.7890 C.3   151  LEU151      0.0284
     46  CG        18.9250    3.4080   22.4640 C.3   151  LEU151      0.0019
     47  CD1       17.4900    2.8690   22.4910 C.3   151  LEU151      0.0001
     48  CD2       18.9540    4.9020   22.1800 C.3   151  LEU151      0.0001
     49  N         22.0360    1.6300   25.4370 N.am  152  TYR152     -0.1976
     50  CA        22.5870    1.3510   26.7410 C.3   152  TYR152      0.1639
     51  C         24.0690    1.7160   26.7860 C.2   152  TYR152      0.2290
     52  O         24.5740    2.1480   27.8230 O.2   152  TYR152     -0.2864
     53  CB        22.3000   -0.0810   27.2170 C.3   152  TYR152      0.0560
     54  CG        22.3060   -0.1850   28.7280 C.ar  152  TYR152     -0.0198
     55  CD1       21.5650    0.7000   29.5170 C.ar  152  TYR152     -0.0009
     56  CD2       23.0630   -1.1320   29.3730 C.ar  152  TYR152     -0.0009
     57  CE1       21.5810    0.6220   30.8970 C.ar  152  TYR152      0.0417
     58  CE2       23.0720   -1.2190   30.7550 C.ar  152  TYR152      0.0417
     59  CZ        22.3380   -0.3410   31.5040 C.ar  152  TYR152      0.1957
     60  OH        22.3630   -0.4320   32.8680 O.3   152  TYR152     -0.2866
     61  N         25.2840    4.2490   24.9940 N.3   154  LEU154     -0.1231
     62  CA        25.0750    5.6870   25.1270 C.3   154  LEU154      0.1693
     63  C         24.7190    6.1410   26.5680 C.2   154  LEU154      0.2591
     64  O         25.1150    7.2220   27.0110 O.2   154  LEU154     -0.2718
     65  CB        23.9910    6.1040   24.1290 C.3   154  LEU154      0.0284
     66  CG        23.7080    7.6000   24.0200 C.3   154  LEU154      0.0019
     67  CD1       24.8230    8.3240   23.2760 C.3   154  LEU154      0.0001
     68  CD2       22.3710    7.8410   23.3290 C.3   154  LEU154      0.0001
     69  N         23.9840    5.3050   27.2890 N.am  155  ALA155     -0.1980
     70  CA        23.6560    5.5260   28.7050 C.3   155  ALA155      0.1597
     71  C         24.8190    5.3750   29.6730 C.2   155  ALA155      0.2287
     72  O         24.7840    5.9520   30.7750 O.2   155  ALA155     -0.2864
     73  CB        22.5950    4.5180   29.1190 C.3   155  ALA155      0.0319
     74  N         13.1610   -7.8740   22.8410 N.3   181  LEU181     -0.1245
     75  CA        12.5290   -6.5610   22.6230 C.3   181  LEU181      0.1561
     76  C         11.0400   -6.5990   23.0430 C.2   181  LEU181      0.2260
     77  O         10.5810   -5.7590   23.8170 O.2   181  LEU181     -0.2867
     78  CB        12.6640   -6.1480   21.1520 C.3   181  LEU181      0.0270
     79  CG        11.8450   -4.9120   20.7850 C.3   181  LEU181      0.0019
     80  CD1       12.6100   -3.6960   21.2280 C.3   181  LEU181      0.0001
     81  CD2       11.6040   -4.8530   19.2820 C.3   181  LEU181      0.0001
     82  N         12.9380   -8.1850   30.0050 N.3   186  LYS186     -0.1231
     83  CA        13.8750   -7.0630   29.9330 C.3   186  LYS186      0.1693
     84  C         13.7260   -6.0430   31.0380 C.2   186  LYS186      0.2592
     85  O         14.6300   -5.2530   31.2440 O.2   186  LYS186     -0.2718
     86  CB        13.7630   -6.3360   28.5800 C.3   186  LYS186      0.0285
     87  CG        12.4590   -5.6090   28.3340 C.3   186  LYS186      0.0035
     88  CD        12.5390   -4.8090   27.0640 C.3   186  LYS186      0.0206
     89  CE        11.2050   -4.1750   26.7130 C.3   186  LYS186      0.1093
     90  NZ        10.1830   -5.1680   26.2620 N.3   186  LYS186     -0.1314
     91  N         12.5720   -6.0250   31.6980 N.am  187  PHE187     -0.1976
     92  CA        12.3310   -5.1270   32.8260 C.3   187  PHE187      0.1639
     93  C         12.9250   -5.6820   34.1160 C.2   187  PHE187      0.2290
     94  O         12.8960   -5.0100   35.1460 O.2   187  PHE187     -0.2864
     95  CB        10.8210   -4.8640   33.0220 C.3   187  PHE187      0.0560
     96  CG        10.2060   -4.0180   31.9330 C.ar  187  PHE187     -0.0200
     97  CD1       10.5890   -2.6940   31.7620 C.ar  187  PHE187     -0.0042
     98  CD2        9.2420   -4.5400   31.0830 C.ar  187  PHE187     -0.0042
     99  CE1       10.0290   -1.9150   30.7550 C.ar  187  PHE187     -0.0003
    100  CE2        8.6890   -3.7690   30.0760 C.ar  187  PHE187     -0.0003
    101  CZ         9.0820   -2.4610   29.9080 C.ar  187  PHE187     -0.0000
    102  N         16.0300   -6.2390   36.2590 N.3   189  HIS189     -0.1241
    103  CA        17.2600   -5.4300   36.3430 C.3   189  HIS189      0.1621
    104  C         18.5480   -6.2830   36.2580 C.2   189  HIS189      0.2264
    105  O         19.6340   -5.7510   36.0210 O.2   189  HIS189     -0.2867
    106  CB        17.2700   -4.5790   37.6340 C.3   189  HIS189      0.0745
    107  CG        16.2570   -3.4630   37.6520 C.ar  189  HIS189      0.0817
    108  ND1       14.9290   -3.6360   37.2980 N.ar  189  HIS189     -0.2268
    109  CD2       16.3750   -2.1620   38.0200 C.ar  189  HIS189      0.1154
    110  CE1       14.2850   -2.4880   37.4270 C.ar  189  HIS189      0.1986
    111  NE2       15.1390   -1.5780   37.8610 N.ar  189  HIS189     -0.2212
    112  N         20.7080   -5.7840   33.1430 N.3   192  TRP192     -0.1227
    113  CA        21.2380   -4.4670   32.8580 C.3   192  TRP192      0.1737
    114  C         22.3940   -4.1390   33.7770 C.2   192  TRP192      0.2596
    115  O         22.1820   -3.7340   34.9030 O.2   192  TRP192     -0.2718
    116  CB        20.1260   -3.4340   33.0020 C.3   192  TRP192      0.0564
    117  CG        18.9140   -3.6940   32.1430 C.ar  192  TRP192      0.0003
    118  CD1       17.8320   -4.4480   32.4760 C.ar  192  TRP192      0.0946
    119  CD2       18.6590   -3.1850   30.8280 C.ar  192  TRP192      0.0152
    120  NE1       16.9180   -4.4420   31.4580 N.ar  192  TRP192     -0.2442
    121  CE2       17.3970   -3.6800   30.4300 C.ar  192  TRP192      0.0810
    122  CE3       19.3760   -2.3560   29.9430 C.ar  192  TRP192      0.0012
    123  CZ2       16.8330   -3.3890   29.1910 C.ar  192  TRP192      0.0191
    124  CZ3       18.8140   -2.0570   28.7020 C.ar  192  TRP192      0.0001
    125  CH2       17.5520   -2.5810   28.3390 C.ar  192  TRP192      0.0015
    126  N         23.6230   -4.3180   33.2910 N.am  193  GLY193     -0.1942
    127  CA        24.8400   -4.0600   34.0880 C.3   193  GLY193      0.2014
    128  C         25.2840   -2.6110   33.9770 C.2   193  GLY193      0.2639
    129  O         24.5840   -1.7960   33.3840 O.2   193  GLY193     -0.2714
    130  N         26.4400   -2.2840   34.5520 N.am  194  GLY194     -0.1954
    131  CA        26.9920   -0.9220   34.5050 C.3   194  GLY194      0.1869
    132  C         26.2200    0.1400   35.2700 C.2   194  GLY194      0.2309
    133  O         25.2830   -0.1570   36.0100 O.2   194  GLY194     -0.2863
    134  N         24.1770    3.5310   34.3040 N.3   196  PRO196     -0.2116
    135  CA        23.5970    4.5210   33.4070 C.3   196  PRO196      0.1372
    136  C         23.4770    5.9260   33.9690 C.2   196  PRO196      0.2244
    137  O         23.4190    6.1530   35.1790 O.2   196  PRO196     -0.2868
    138  CB        22.1950    3.9760   33.1270 C.3   196  PRO196      0.0268
    139  CG        21.8980    3.1220   34.3000 C.3   196  PRO196      0.0207
    140  CD        23.2110    2.4740   34.6320 C.3   196  PRO196      0.0892
    141  N         21.3090    8.0970   34.3350 N.3   198  TRP198     -0.1227
    142  CA        20.2340    8.5140   35.2280 C.3   198  TRP198      0.1737
    143  C         20.4340    8.0020   36.6510 C.2   198  TRP198      0.2595
    144  O         20.0420    8.6790   37.5920 O.2   198  TRP198     -0.2718
    145  CB        18.8790    8.0950   34.6770 C.3   198  TRP198      0.0564
    146  CG        18.7320    6.6310   34.4470 C.ar  198  TRP198      0.0003
    147  CD1       18.4620    5.6730   35.3790 C.ar  198  TRP198      0.0946
    148  CD2       18.8450    5.9520   33.1920 C.ar  198  TRP198      0.0152
    149  NE1       18.4000    4.4420   34.7770 N.ar  198  TRP198     -0.2442
    150  CE2       18.6320    4.5880   33.4370 C.ar  198  TRP198      0.0810
    151  CE3       19.1140    6.3700   31.8810 C.ar  198  TRP198      0.0012
    152  CZ2       18.6640    3.6490   32.4300 C.ar  198  TRP198      0.0191
    153  CZ3       19.1520    5.4220   30.8730 C.ar  198  TRP198      0.0001
    154  CH2       18.9250    4.0900   31.1530 C.ar  198  TRP198      0.0015
    155  N         21.0440    6.8330   36.8260 N.am  199  ILE199     -0.1980
    156  CA        21.4890    6.4050   38.1620 C.3   199  ILE199      0.1595
    157  C         22.7310    7.1740   38.6470 C.2   199  ILE199      0.2287
    158  O         22.8050    7.5330   39.8160 O.2   199  ILE199     -0.2864
    159  CB        21.7560    4.8830   38.2400 C.3   199  ILE199      0.0276
    160  CG1       20.4930    4.0930   37.8700 C.3   199  ILE199      0.0022
    161  CG2       22.2240    4.4930   39.6310 C.3   199  ILE199      0.0022
    162  CD1       19.2080    4.4890   38.5930 C.3   199  ILE199      0.0001
    163  N         13.6910    8.1130   31.6350 N.3   211  PHE211     -0.1227
    164  CA        14.1180    7.9990   30.2300 C.3   211  PHE211      0.1736
    165  C         13.1830    7.1900   29.3230 C.2   211  PHE211      0.2595
    166  O         13.0770    7.4670   28.1090 O.2   211  PHE211     -0.2718
    167  CB        15.5240    7.3750   30.1680 C.3   211  PHE211      0.0547
    168  CG        16.6390    8.3770   30.2900 C.ar  211  PHE211     -0.0202
    169  CD1       16.6090    9.3550   31.2660 C.ar  211  PHE211     -0.0042
    170  CD2       17.7230    8.3380   29.4160 C.ar  211  PHE211     -0.0042
    171  CE1       17.6240   10.2830   31.3700 C.ar  211  PHE211     -0.0003
    172  CE2       18.7520    9.2590   29.5180 C.ar  211  PHE211     -0.0003
    173  CZ        18.7020   10.2360   30.4980 C.ar  211  PHE211     -0.0000
    174  N         12.5270    6.1840   29.9080 N.am  212  PHE212     -0.1976
    175  CA        11.6350    5.3000   29.1710 C.3   212  PHE212      0.1639
    176  C         10.1750    5.8010   29.2530 C.2   212  PHE212      0.2290
    177  O          9.7570    6.4110   30.2510 O.2   212  PHE212     -0.2864
    178  CB        11.7900    3.8760   29.7230 C.3   212  PHE212      0.0560
    179  CG        10.8150    2.8710   29.1430 C.ar  212  PHE212     -0.0200
    180  CD1       11.1350    2.1440   28.0000 C.ar  212  PHE212     -0.0042
    181  CD2        9.5810    2.6430   29.7570 C.ar  212  PHE212     -0.0042
    182  CE1       10.2490    1.2210   27.4750 C.ar  212  PHE212     -0.0003
    183  CE2        8.6930    1.7220   29.2340 C.ar  212  PHE212     -0.0003
    184  CZ         9.0290    1.0090   28.0900 C.ar  212  PHE212     -0.0000
    185  N         15.2830   12.8950   28.6200 N.3   242  ALA242     -0.1231
    186  CA        15.5630   12.1690   27.4000 C.3   242  ALA242      0.1694
    187  C         14.2780   11.8790   26.6340 C.2   242  ALA242      0.2592
    188  O         13.2080   11.7140   27.2310 O.2   242  ALA242     -0.2718
    189  CB        16.2850   10.8810   27.7130 C.3   242  ALA242      0.0304
    190  N         14.4040   11.8280   25.3110 N.am  243  PHE243     -0.1962
    191  CA        13.3000   11.4850   24.4260 C.3   243  PHE243      0.1771
    192  C         13.7730   10.4620   23.3920 C.2   243  PHE243      0.2619
    193  O         14.7550   10.6940   22.6870 O.2   243  PHE243     -0.2715
    194  CB        12.8010   12.7400   23.7390 C.3   243  PHE243      0.0574
    195  CG        11.6840   12.4980   22.7730 C.ar  243  PHE243     -0.0200
    196  CD1       10.3640   12.5830   23.1840 C.ar  243  PHE243     -0.0042
    197  CD2       11.9540   12.2050   21.4450 C.ar  243  PHE243     -0.0042
    198  CE1        9.3340   12.3620   22.2950 C.ar  243  PHE243     -0.0003
    199  CE2       10.9250   11.9860   20.5410 C.ar  243  PHE243     -0.0003
    200  CZ         9.6120   12.0630   20.9650 C.ar  243  PHE243     -0.0000
    201  N         13.0880    9.3250   23.3260 N.am  244  TYR244     -0.1974
    202  CA        13.4050    8.2670   22.3670 C.3   244  TYR244      0.1639
    203  C         12.2660    8.1370   21.4070 C.2   244  TYR244      0.2290
    204  O         11.1070    8.1110   21.8080 O.2   244  TYR244     -0.2864
    205  CB        13.5660    6.9480   23.0760 C.3   244  TYR244      0.0560
    206  CG        13.5690    5.7480   22.1610 C.ar  244  TYR244     -0.0198
    207  CD1       14.7580    5.3030   21.5380 C.ar  244  TYR244     -0.0009
    208  CD2       12.3880    5.0220   21.9300 C.ar  244  TYR244     -0.0009
    209  CE1       14.7630    4.1800   20.7090 C.ar  244  TYR244      0.0417
    210  CE2       12.3780    3.8960   21.0910 C.ar  244  TYR244      0.0417
    211  CZ        13.5630    3.4700   20.4850 C.ar  244  TYR244      0.1957
    212  OH        13.5380    2.3510   19.6630 O.3   244  TYR244     -0.2866
    213  N         28.0520   13.9260   28.5920 N.3   442  MET442     -0.1245
    214  CA        26.8330   14.2560   29.3110 C.3   442  MET442      0.1570
    215  C         27.1370   14.3920   30.7980 C.2   442  MET442      0.2261
    216  O         26.6300   15.3020   31.4360 O.2   442  MET442     -0.2867
    217  CB        25.7460   13.2140   29.0780 C.3   442  MET442      0.0387
    218  CG        25.2870   13.1440   27.6320 C.3   442  MET442      0.0595
    219  SD        24.0070   11.8960   27.3630 S.3   442  MET442     -0.1393
    220  CE        24.9140   10.3600   27.3710 C.3   442  MET442      0.0692
@<TRIPOS>BOND
     1    28    27    1
     2    23    24    1
     3    27    24    1
     4    27    29    1
     5    24    25    1
     6    81    79    1
     7    19    20    2
     8    19    18    1
     9   212   211    1
    10   211   209   ar
    11   211   210   ar
    12    18    17    1
    13    18    21    1
    14   199   200   ar
    15   199   197   ar
    16    25    26    2
    17    25    30   am
    18   209   207   ar
    19    79    78    1
    20    79    80    1
    21   200   198   ar
    22   210   208   ar
    23    78    75    1
    24    22    21    1
    25    30    31    1
    26   203   204    2
    27   203   202    1
    28   197   195   ar
    29   207   206   ar
    30   208   206   ar
    31   206   205    1
    32    48    46    1
    33   198   196   ar
    34   202   205    1
    35   202   201    1
    36    46    47    1
    37    46    45    1
    38    75    74    1
    39    75    76    1
    40   193   192    2
    41    31    32    1
    42    31    34    1
    43   195   196   ar
    44   195   194    1
    45    36    38   ar
    46    36    35   ar
    47    41    42    1
    48    76    77    2
    49    32    33    2
    50    38    40   ar
    51    34    35    1
    52    67    66    1
    53   201   192   am
    54    68    66    1
    55   192   191    1
    56    35    37   ar
    57   194   191    1
    58    42    45    1
    59    42    43    1
    60    66    65    1
    61    11    12    2
    62    11    10    1
    63    65    62    1
    64   191   190    1
    65    40    39   ar
    66    15    13    1
    67    37    39   ar
    68    61    62    1
    69    10    13    1
    70    10     9    1
    71    62    63    1
    72    43    49   am
    73    43    44    2
    74   190   187   am
    75    49    50    1
    76    13    14    1
    77    90    89    1
    78    63    64    2
    79    63    69   am
    80   187   188    2
    81   187   186    1
    82    89    88    1
    83    50    51    1
    84    50    53    1
    85    51    52    2
    86    14    16    1
    87    88    87    1
    88    53    54    1
    89    69    70    1
    90   219   220    1
    91   219   218    1
    92   186   189    1
    93   186   185    1
    94   182   180   ar
    95   182   184   ar
    96   218   217    1
    97   180   179   ar
    98   184   183   ar
    99   166   165    2
   100    87    86    1
   101   125   124   ar
   102   125   123   ar
   103    86    83    1
   104   213   214    1
   105   124   122   ar
   106    70    73    1
   107    70    71    1
   108    54    56   ar
   109    54    55   ar
   110   217   214    1
   111   179   178    1
   112   179   181   ar
   113   175   176    1
   114   175   178    1
   115   175   174    1
   116   123   121   ar
   117   183   181   ar
   118   176   177    2
   119   214   215    1
   120   165   174   am
   121   165   164    1
   122    56    58   ar
   123   170   172   ar
   124   170   168   ar
   125    55    57   ar
   126   172   173   ar
   127    71    72    2
   128   101   100   ar
   129   101    99   ar
   130    83    82    1
   131    83    84    1
   132   122   119   ar
   133   100    98   ar
   134   167   164    1
   135   167   168    1
   136   164   163    1
   137   168   169   ar
   138   121   119   ar
   139   121   120   ar
   140   173   171   ar
   141    58    59   ar
   142    99    97   ar
   143   215   216    2
   144   119   117   ar
   145   153   154   ar
   146   153   151   ar
   147    57    59   ar
   148    84    85    2
   149    84    91   am
   150    98    96   ar
   151   154   152   ar
   152   169   171   ar
   153   120   118   ar
   154    59    60    1
   155    91    92    1
   156    97    96   ar
   157   151   148   ar
   158    96    95    1
   159     7     6    1
   160   117   118   ar
   161   117   116    1
   162   152   150   ar
   163    92    95    1
   164    92    93    1
   165   113   116    1
   166   113   112    1
   167   113   114    1
   168     2     1    1
   169     2     3    1
   170     2     5    1
   171   138   135    1
   172   138   139    1
   173     4     3    2
   174   148   150   ar
   175   148   146   ar
   176   126   114   am
   177   126   127    1
   178   129   128    2
   179   135   136    1
   180   135   134    1
   181   150   149   ar
   182     6     5    1
   183     6     8    1
   184   114   115    2
   185   136   137    2
   186   128   127    1
   187   128   130   am
   188    93    94    2
   189   139   140    1
   190   134   140    1
   191   141   142    1
   192   146   145    1
   193   146   147   ar
   194   131   130    1
   195   131   132    1
   196   145   142    1
   197   149   147   ar
   198   142   143    1
   199   132   133    2
   200   105   104    2
   201   104   103    1
   202   102   103    1
   203   103   106    1
   204   143   155   am
   205   143   144    2
   206   155   156    1
   207   108   110   ar
   208   108   107   ar
   209   110   111   ar
   210   106   107    1
   211   107   109   ar
   212   111   109   ar
   213   160   159    1
   214   160   162    1
   215   156   159    1
   216   156   157    1
   217   159   161    1
   218   157   158    2
