@<TRIPOS>MOLECULE
tmp/5m7nA00.pdb
 177 169 0 0 0
SMALL
GASTEIGER

@<TRIPOS>ATOM
      1  N        -37.6700   32.8560  -20.1350 N.3   135  GLU135     -0.1231
      2  CA       -38.1150   33.1190  -21.5040 C.3   135  GLU135      0.1699
      3  C        -38.5120   31.8290  -22.2140 C.2   135  GLU135      0.2592
      4  O        -38.0010   30.7370  -21.9140 O.2   135  GLU135     -0.2718
      5  CB       -37.0420   33.9100  -22.3060 C.3   135  GLU135      0.0402
      6  CG       -37.4400   34.3680  -23.7150 C.3   135  GLU135      0.1161
      7  CD       -38.5980   35.3440  -23.8470 C.2   135  GLU135      0.3649
      8  OE1      -38.4720   36.4920  -23.3580 O.co2 135  GLU135     -0.2457
      9  OE2      -39.6080   34.9780  -24.4910 O.co2 135  GLU135     -0.2457
     10  N        -39.4530   31.9800  -23.1500 N.am  136  LEU136     -0.1966
     11  CA       -39.9640   30.9250  -23.9910 C.3   136  LEU136      0.1728
     12  C        -39.1890   30.9820  -25.3000 C.2   136  LEU136      0.2616
     13  O        -39.2590   31.9730  -26.0220 O.2   136  LEU136     -0.2715
     14  CB       -41.4610   31.1390  -24.2320 C.3   136  LEU136      0.0311
     15  CG       -42.3810   31.0310  -23.0220 C.3   136  LEU136      0.0022
     16  CD1      -43.6950   31.6200  -23.3410 C.3   136  LEU136      0.0001
     17  CD2      -42.5710   29.5730  -22.5790 C.3   136  LEU136      0.0001
     18  N        -38.3820   29.9500  -25.5440 N.am  137  VAL137     -0.1977
     19  CA       -37.5490   29.7590  -26.7260 C.3   137  VAL137      0.1596
     20  C        -38.4090   29.1660  -27.8670 C.2   137  VAL137      0.2287
     21  O        -39.2820   28.3230  -27.6480 O.2   137  VAL137     -0.2864
     22  CB       -36.2820   28.9130  -26.4070 C.3   137  VAL137      0.0276
     23  CG1      -35.3920   28.7460  -27.6300 C.3   137  VAL137      0.0022
     24  CG2      -35.4840   29.5290  -25.2750 C.3   137  VAL137      0.0022
     25  N        -44.9190   29.7590  -31.6470 N.3   143  MET143     -0.1245
     26  CA       -44.3090   30.3840  -30.4770 C.3   143  MET143      0.1570
     27  C        -44.5480   31.8760  -30.4070 C.2   143  MET143      0.2261
     28  O        -44.9350   32.3740  -29.3410 O.2   143  MET143     -0.2867
     29  CB       -42.8330   30.0420  -30.3580 C.3   143  MET143      0.0387
     30  CG       -42.6060   28.6990  -29.7120 C.3   143  MET143      0.0595
     31  SD       -43.6220   28.4340  -28.2310 S.3   143  MET143     -0.1393
     32  CE       -42.8990   29.6510  -27.1070 C.3   143  MET143      0.0692
     33  N        -48.3370   17.1510  -21.7380 N.3   166  SER166     -0.1202
     34  CA       -47.3420   17.0680  -20.6630 C.3   166  SER166      0.2020
     35  C        -45.9590   17.6190  -21.0600 C.2   166  SER166      0.2619
     36  O        -45.4310   17.2650  -22.1150 O.2   166  SER166     -0.2717
     37  CB       -47.2310   15.6360  -20.1580 C.3   166  SER166      0.2103
     38  OG       -48.4940   15.1600  -19.7180 O.3   166  SER166     -0.2182
     39  N        -45.4250   18.5010  -20.2110 N.am  167  GLY167     -0.1942
     40  CA       -44.1240   19.1490  -20.3630 C.3   167  GLY167      0.2014
     41  C        -43.9790   20.0800  -21.5550 C.2   167  GLY167      0.2639
     42  O        -42.8680   20.2520  -22.0460 O.2   167  GLY167     -0.2714
     43  N        -45.0960   20.6980  -22.0190 N.am  168  ALA168     -0.1963
     44  CA       -45.1200   21.6080  -23.1710 C.3   168  ALA168      0.1728
     45  C        -44.8030   23.0720  -22.8340 C.2   168  ALA168      0.2617
     46  O        -44.5080   23.8620  -23.7440 O.2   168  ALA168     -0.2715
     47  CB       -46.4640   21.5210  -23.8810 C.3   168  ALA168      0.0334
     48  N        -44.8990   23.4280  -21.5490 N.am  169  GLY169     -0.1940
     49  CA       -44.6090   24.7750  -21.0790 C.3   169  GLY169      0.2014
     50  C        -45.7780   25.5900  -20.5740 C.2   169  GLY169      0.2639
     51  O        -45.6970   26.8200  -20.5690 O.2   169  GLY169     -0.2714
     52  N        -46.8550   24.9230  -20.1090 N.am  170  LYS170     -0.1963
     53  CA       -48.0670   25.5580  -19.5510 C.3   170  LYS170      0.1728
     54  C        -47.7600   26.3470  -18.2840 C.2   170  LYS170      0.2616
     55  O        -48.3040   27.4260  -18.1050 O.2   170  LYS170     -0.2715
     56  CB       -49.1460   24.5170  -19.2170 C.3   170  LYS170      0.0311
     57  CG       -49.6180   23.6650  -20.3840 C.3   170  LYS170      0.0038
     58  CD       -50.7400   22.7340  -19.9650 C.3   170  LYS170      0.0206
     59  CE       -50.3240   21.6440  -19.0210 C.3   170  LYS170      0.1093
     60  NZ       -49.4580   20.6360  -19.6570 N.3   170  LYS170     -0.1314
     61  N        -46.9080   25.7980  -17.4030 N.am  171  GLU171     -0.1963
     62  CA       -46.4960   26.4580  -16.1580 C.3   171  GLU171      0.1733
     63  C        -45.6900   27.6970  -16.4890 C.2   171  GLU171      0.2616
     64  O        -45.9120   28.7380  -15.8740 O.2   171  GLU171     -0.2715
     65  CB       -45.6500   25.5020  -15.3240 C.3   171  GLU171      0.0429
     66  CG       -45.2110   26.0050  -13.9600 C.3   171  GLU171      0.1163
     67  CD       -44.8010   24.8900  -13.0150 C.2   171  GLU171      0.3649
     68  OE1      -44.7870   23.7040  -13.4350 O.co2 171  GLU171     -0.2457
     69  OE2      -44.5200   25.2090  -11.8360 O.co2 171  GLU171     -0.2457
     70  N        -44.7750   27.5840  -17.4850 N.am  172  LEU172     -0.1977
     71  CA       -43.9620   28.6920  -17.9450 C.3   172  LEU172      0.1596
     72  C        -44.8350   29.8260  -18.4590 C.2   172  LEU172      0.2287
     73  O        -44.6380   30.9510  -18.0290 O.2   172  LEU172     -0.2864
     74  CB       -42.9320   28.2410  -18.9740 C.3   172  LEU172      0.0297
     75  CG       -41.5120   28.7030  -18.6460 C.3   172  LEU172      0.0022
     76  CD1      -40.8770   27.8290  -17.5420 C.3   172  LEU172      0.0001
     77  CD2      -40.6410   28.6950  -19.8660 C.3   172  LEU172      0.0001
     78  N        -52.0570   29.2540   -9.3610 N.3   224  TYR224     -0.1241
     79  CA       -51.8870   28.3920  -10.5090 C.3   224  TYR224      0.1605
     80  C        -52.3400   27.0250  -10.1280 C.2   224  TYR224      0.2264
     81  O        -51.6870   26.3730   -9.3070 O.2   224  TYR224     -0.2867
     82  CB       -50.4470   28.3840  -11.0280 C.3   224  TYR224      0.0534
     83  CG       -50.2480   27.5120  -12.2510 C.ar  224  TYR224     -0.0201
     84  CD1      -50.9920   27.7210  -13.4130 C.ar  224  TYR224     -0.0009
     85  CD2      -49.3100   26.4830  -12.2530 C.ar  224  TYR224     -0.0009
     86  CE1      -50.8100   26.9260  -14.5420 C.ar  224  TYR224      0.0417
     87  CE2      -49.1010   25.6990  -13.3870 C.ar  224  TYR224      0.0417
     88  CZ       -49.8520   25.9240  -14.5310 C.ar  224  TYR224      0.1957
     89  OH       -49.6590   25.1340  -15.6430 O.3   224  TYR224     -0.2866
     90  N        -52.5180   23.6570  -11.3020 N.3   226  ASP226     -0.1239
     91  CA       -51.8590   22.7040  -12.1870 C.3   226  ASP226      0.1674
     92  C        -52.6480   21.4110  -12.1640 C.2   226  ASP226      0.2266
     93  O        -52.6810   20.7210  -11.1440 O.2   226  ASP226     -0.2867
     94  CB       -50.4010   22.4630  -11.7540 C.3   226  ASP226      0.1410
     95  CG       -49.5310   21.7200  -12.7600 C.2   226  ASP226      0.3668
     96  OD1      -49.6640   21.9860  -13.9840 O.co2 226  ASP226     -0.2456
     97  OD2      -48.6510   20.9400  -12.3240 O.co2 226  ASP226     -0.2456
     98  N        -44.3650   21.7510  -33.4810 N.3   301  ARG301     -0.1245
     99  CA       -43.4170   22.8810  -33.6040 C.3   301  ARG301      0.1563
    100  C        -41.9610   22.3970  -33.6610 C.2   301  ARG301      0.2260
    101  O        -41.0700   22.9720  -33.0260 O.2   301  ARG301     -0.2867
    102  CB       -43.6220   23.9220  -32.4870 C.3   301  ARG301      0.0307
    103  CG       -43.6550   23.3090  -31.1060 C.3   301  ARG301      0.0489
    104  CD       -43.4580   24.3560  -30.0660 C.3   301  ARG301      0.2205
    105  NE       -44.0570   23.9270  -28.8060 N.pl3 301  ARG301     -0.0865
    106  CZ       -43.6560   24.3420  -27.6140 C.cat 301  ARG301      0.5346
    107  NH1      -42.6350   25.1860  -27.5090 N.pl3 301  ARG301      0.1354
    108  NH2      -44.2620   23.9130  -26.5160 N.pl3 301  ARG301      0.1354
    109  N        -33.9590   24.7970  -29.2120 N.3   308  LEU308     -0.1245
    110  CA       -34.2380   24.3240  -27.8640 C.3   308  LEU308      0.1561
    111  C        -33.1190   23.4800  -27.3630 C.2   308  LEU308      0.2260
    112  O        -32.7540   23.6250  -26.2090 O.2   308  LEU308     -0.2867
    113  CB       -35.5760   23.5800  -27.7810 C.3   308  LEU308      0.0270
    114  CG       -36.8460   24.4270  -27.9700 C.3   308  LEU308      0.0019
    115  CD1      -38.0430   23.5540  -28.2370 C.3   308  LEU308      0.0001
    116  CD2      -37.1050   25.3400  -26.7980 C.3   308  LEU308      0.0001
    117  N        -30.3610   25.8320  -26.5250 N.3   311  PHE311     -0.1227
    118  CA       -30.7920   26.4860  -25.3060 C.3   311  PHE311      0.1736
    119  C        -30.5770   25.5980  -24.0900 C.2   311  PHE311      0.2595
    120  O        -30.0290   26.0560  -23.0920 O.2   311  PHE311     -0.2718
    121  CB       -32.2530   26.9310  -25.4070 C.3   311  PHE311      0.0547
    122  CG       -32.7720   27.5060  -24.1110 C.ar  311  PHE311     -0.0202
    123  CD1      -32.4290   28.7910  -23.7160 C.ar  311  PHE311     -0.0042
    124  CD2      -33.5800   26.7450  -23.2680 C.ar  311  PHE311     -0.0042
    125  CE1      -32.9230   29.3250  -22.5270 C.ar  311  PHE311     -0.0003
    126  CE2      -34.0640   27.2770  -22.0740 C.ar  311  PHE311     -0.0003
    127  CZ       -33.7370   28.5680  -21.7140 C.ar  311  PHE311     -0.0000
    128  N        -31.0240   24.3470  -24.1680 N.am  312  PHE312     -0.1976
    129  CA       -30.9340   23.4010  -23.0680 C.3   312  PHE312      0.1639
    130  C        -29.4850   23.0990  -22.7320 C.2   312  PHE312      0.2290
    131  O        -29.1270   23.1050  -21.5600 O.2   312  PHE312     -0.2864
    132  CB       -31.7910   22.1430  -23.3310 C.3   312  PHE312      0.0560
    133  CG       -33.2940   22.3670  -23.2890 C.ar  312  PHE312     -0.0200
    134  CD1      -33.8720   23.1530  -22.3030 C.ar  312  PHE312     -0.0042
    135  CD2      -34.1320   21.7570  -24.2160 C.ar  312  PHE312     -0.0042
    136  CE1      -35.2660   23.3250  -22.2450 C.ar  312  PHE312     -0.0003
    137  CE2      -35.5170   21.9590  -24.1770 C.ar  312  PHE312     -0.0003
    138  CZ       -36.0730   22.7370  -23.1890 C.ar  312  PHE312     -0.0000
    139  N        -28.0070   25.9800  -20.8210 N.3   315  GLN315     -0.1245
    140  CA       -28.5950   25.9020  -19.4920 C.3   315  GLN315      0.1566
    141  C        -27.9130   24.8050  -18.6580 C.2   315  GLN315      0.2260
    142  O        -27.6850   25.0290  -17.4690 O.2   315  GLN315     -0.2867
    143  CB       -30.1070   25.6950  -19.6140 C.3   315  GLN315      0.0367
    144  CG       -30.9020   25.9750  -18.3600 C.3   315  GLN315      0.0905
    145  CD       -32.3830   25.7880  -18.6010 C.2   315  GLN315      0.2608
    146  OE1      -32.9360   24.6750  -18.5220 O.2   315  GLN315     -0.2717
    147  NE2      -33.0600   26.8810  -18.8930 N.am  315  GLN315     -0.0878
    148  N        -41.1540   19.2280  -24.1460 N.3   344  LEU344     -0.1231
    149  CA       -39.9600   19.9830  -23.7310 C.3   344  LEU344      0.1693
    150  C        -39.3270   19.4770  -22.4290 C.2   344  LEU344      0.2591
    151  O        -38.1200   19.6260  -22.2810 O.2   344  LEU344     -0.2718
    152  CB       -40.2240   21.4950  -23.6650 C.3   344  LEU344      0.0284
    153  CG       -40.3190   22.1740  -25.0300 C.3   344  LEU344      0.0019
    154  CD1      -41.7330   22.1890  -25.5420 C.3   344  LEU344      0.0001
    155  CD2      -39.8320   23.5750  -24.9660 C.3   344  LEU344      0.0001
    156  N        -40.0960   18.8400  -21.5170 N.am  345  ARG345     -0.1980
    157  CA       -39.5050   18.2670  -20.2950 C.3   345  ARG345      0.1597
    158  C        -38.5900   17.1120  -20.7310 C.2   345  ARG345      0.2287
    159  O        -37.3870   17.1070  -20.4080 O.2   345  ARG345     -0.2864
    160  CB       -40.5920   17.7610  -19.3300 C.3   345  ARG345      0.0334
    161  CG       -40.0630   17.2930  -17.9790 C.3   345  ARG345      0.0492
    162  CD       -41.1550   17.3260  -16.9200 C.3   345  ARG345      0.2205
    163  NE       -41.5460   18.6900  -16.5400 N.pl3 345  ARG345     -0.0865
    164  CZ       -40.9110   19.4330  -15.6360 C.cat 345  ARG345      0.5346
    165  NH1      -39.8480   18.9570  -14.9980 N.pl3 345  ARG345      0.1354
    166  NH2      -41.3490   20.6560  -15.3500 N.pl3 345  ARG345      0.1354
    167  N        -35.5140   18.2280  -22.8000 N.3   348  ARG348     -0.1245
    168  CA       -34.5370   18.7600  -21.8450 C.3   348  ARG348      0.1563
    169  C        -33.7820   17.6430  -21.1380 C.2   348  ARG348      0.2260
    170  O        -32.5480   17.6580  -21.1150 O.2   348  ARG348     -0.2867
    171  CB       -35.2380   19.6320  -20.8120 C.3   348  ARG348      0.0307
    172  CG       -34.3280   20.6290  -20.1470 C.3   348  ARG348      0.0489
    173  CD       -34.7970   20.9360  -18.7510 C.3   348  ARG348      0.2205
    174  NE       -34.2030   19.9660  -17.8330 N.pl3 348  ARG348     -0.0865
    175  CZ       -33.0080   20.1150  -17.2700 C.cat 348  ARG348      0.5346
    176  NH1      -32.2920   21.2180  -17.4760 N.pl3 348  ARG348      0.1354
    177  NH2      -32.5290   19.1650  -16.4720 N.pl3 348  ARG348      0.1354
@<TRIPOS>BOND
     1   100    99    1
     2   100   101    2
     3    99    98    1
     4    99   102    1
     5   102   103    1
     6    25    26    1
     7   103   104    1
     8    26    27    1
     9    26    29    1
    10    27    28    2
    11    29    30    1
    12   104   105    1
    13    30    31    1
    14   109   110    1
    15   105   106    2
    16   115   114    1
    17    31    32    1
    18   114   113    1
    19   114   116    1
    20    20    21    2
    21    20    19    1
    22   110   113    1
    23   110   111    1
    24    23    22    1
    25   106   107    1
    26   106   108    1
    27   111   112    2
    28    19    22    1
    29    19    18    1
    30   117   118    1
    31    22    24    1
    32    13    12    2
    33    18    12   am
    34   154   153    1
    35   121   118    1
    36   121   122    1
    37   118   119    1
    38    12    11    1
    39   153   155    1
    40   153   152    1
    41     9     7   ar
    42    14    11    1
    43    14    15    1
    44   135   137   ar
    45   135   133   ar
    46   137   138   ar
    47   128   119   am
    48   128   129    1
    49   148   149    1
    50   122   123   ar
    51   122   124   ar
    52   119   120    2
    53    11    10    1
    54    47    44    1
    55     7     6    1
    56     7     8   ar
    57    46    45    2
    58   149   152    1
    59   149   150    1
    60   123   125   ar
    61     6     5    1
    62    16    15    1
    63   132   133    1
    64   132   129    1
    65   133   134   ar
    66   124   126   ar
    67   138   136   ar
    68    44    45    1
    69    44    43    1
    70    10     3   am
    71   129   130    1
    72    15    17    1
    73    45    48   am
    74   167   168    1
    75   130   131    2
    76   125   127   ar
    77   150   151    2
    78   150   156   am
    79     5     2    1
    80   134   136   ar
    81     3     4    2
    82     3     2    1
    83    36    35    2
    84   126   127   ar
    85    42    41    2
    86    43    41   am
    87   168   169    1
    88   168   171    1
    89    33    34    1
    90    41    40    1
    91    48    49    1
    92   156   157    1
    93     2     1    1
    94   169   170    2
    95    49    50    1
    96    35    34    1
    97    35    39   am
    98   139   140    1
    99   171   172    1
   100   158   159    2
   101   158   157    1
   102    34    37    1
   103    50    51    2
   104    50    52   am
   105    57    58    1
   106    57    56    1
   107    40    39    1
   108   157   160    1
   109    37    38    1
   110   172   173    1
   111    52    53    1
   112    58    59    1
   113    77    75    1
   114    60    59    1
   115   143   140    1
   116   143   144    1
   117    53    56    1
   118    53    54    1
   119   140   141    1
   120   160   161    1
   121    74    75    1
   122    74    71    1
   123   147   145   am
   124   173   174    1
   125   141   142    2
   126    75    76    1
   127   145   146    2
   128   145   144    1
   129    72    73    2
   130    72    71    1
   131    54    55    2
   132    54    61   am
   133   161   162    1
   134    71    70    1
   135   174   175    2
   136    70    63   am
   137   176   175    1
   138    61    62    1
   139   175   177    1
   140   162   163    1
   141   163   164    2
   142    63    62    1
   143    63    64    2
   144    62    65    1
   145    89    88    1
   146   164   166    1
   147   164   165    1
   148    65    66    1
   149    86    88   ar
   150    86    84   ar
   151    88    87   ar
   152    96    95   ar
   153    66    67    1
   154    68    67   ar
   155    84    83   ar
   156    87    85   ar
   157    67    69   ar
   158    95    97   ar
   159    95    94    1
   160    85    83   ar
   161    83    82    1
   162    91    92    1
   163    91    94    1
   164    91    90    1
   165    92    93    2
   166    82    79    1
   167    79    80    1
   168    79    78    1
   169    80    81    2
