@<TRIPOS>MOLECULE
tmp/5m7pB00.pdb
 198 189 0 0 0
SMALL
GASTEIGER

@<TRIPOS>ATOM
      1  N         34.3920   22.6540    8.6120 N.3   132  GLY132     -0.1210
      2  CA        34.1480   21.4220    7.8640 C.3   132  GLY132      0.1956
      3  C         32.8150   21.6380    7.1980 C.2   132  GLY132      0.2612
      4  O         31.9450   20.7630    7.1600 O.2   132  GLY132     -0.2717
      5  N         32.6110   22.9000    6.8290 N.am  133  ASP133     -0.1959
      6  CA        31.3730   23.4030    6.2890 C.3   133  ASP133      0.1840
      7  C         31.5190   23.8080    4.8590 C.2   133  ASP133      0.2621
      8  O         31.5640   24.9960    4.5400 O.2   133  ASP133     -0.2715
      9  CB        30.8660   24.5820    7.1350 C.3   133  ASP133      0.1450
     10  CG        29.4210   24.9830    6.9180 C.2   133  ASP133      0.3671
     11  OD1       29.0010   25.0890    5.7490 O.co2 133  ASP133     -0.2456
     12  OD2       28.7290   25.2460    7.9140 O.co2 133  ASP133     -0.2456
     13  N         31.5620   22.8090    3.9840 N.am  134  GLN134     -0.1977
     14  CA        31.5970   23.0750    2.5540 C.3   134  GLN134      0.1601
     15  C         30.2220   22.8140    1.9810 C.2   134  GLN134      0.2287
     16  O         29.3870   22.1670    2.6280 O.2   134  GLN134     -0.2864
     17  CB        32.7080   22.2920    1.8420 C.3   134  GLN134      0.0394
     18  CG        34.0540   23.0230    1.8950 C.3   134  GLN134      0.0908
     19  CD        34.9040   22.7050    3.1040 C.2   134  GLN134      0.2608
     20  OE1       34.4280   22.2750    4.1550 O.2   134  GLN134     -0.2717
     21  NE2       36.2000   22.9010    2.9660 N.am  134  GLN134     -0.0878
     22  N         29.4570   21.0930   -0.7300 N.3   136  GLU136     -0.1231
     23  CA        29.4860   19.9730   -1.6640 C.3   136  GLU136      0.1699
     24  C         28.7740   18.7300   -1.1220 C.2   136  GLU136      0.2592
     25  O         28.9500   18.3700    0.0430 O.2   136  GLU136     -0.2718
     26  CB        30.9090   19.6670   -2.1540 C.3   136  GLU136      0.0402
     27  CG        31.9330   19.2950   -1.0950 C.3   136  GLU136      0.1161
     28  CD        33.1760   18.6770   -1.7030 C.2   136  GLU136      0.3649
     29  OE1       33.0400   17.8070   -2.5950 O.co2 136  GLU136     -0.2457
     30  OE2       34.2910   19.0920   -1.3130 O.co2 136  GLU136     -0.2457
     31  N         27.9200   18.1250   -1.9670 N.am  137  LEU137     -0.1966
     32  CA        27.1170   16.9440   -1.6560 C.3   137  LEU137      0.1728
     33  C         27.7640   15.6760   -2.1990 C.2   137  LEU137      0.2616
     34  O         27.5670   15.3070   -3.3630 O.2   137  LEU137     -0.2715
     35  CB        25.6610   17.0970   -2.1520 C.3   137  LEU137      0.0311
     36  CG        24.7990   18.0630   -1.3610 C.3   137  LEU137      0.0022
     37  CD1       23.9320   18.8600   -2.2660 C.3   137  LEU137      0.0001
     38  CD2       23.9710   17.3440   -0.3080 C.3   137  LEU137      0.0001
     39  N         28.5530   15.0240   -1.3330 N.am  138  VAL138     -0.1977
     40  CA        29.2820   13.7810   -1.6030 C.3   138  VAL138      0.1596
     41  C         28.3020   12.6200   -1.6270 C.2   138  VAL138      0.2287
     42  O         27.4150   12.5300   -0.7770 O.2   138  VAL138     -0.2864
     43  CB        30.4470   13.5730   -0.5940 C.3   138  VAL138      0.0276
     44  CG1       31.0960   12.1930   -0.7370 C.3   138  VAL138      0.0022
     45  CG2       31.4950   14.6760   -0.7490 C.3   138  VAL138      0.0022
     46  N         21.4810    9.8420   -4.0890 N.3   144  MET144     -0.1245
     47  CA        22.2120   11.0950   -4.1080 C.3   144  MET144      0.1570
     48  C         22.1470   11.7920   -5.4380 C.2   144  MET144      0.2261
     49  O         22.0300   13.0190   -5.4630 O.2   144  MET144     -0.2867
     50  CB        23.6560   10.8960   -3.6430 C.3   144  MET144      0.0387
     51  CG        23.7860   10.9440   -2.1400 C.3   144  MET144      0.0595
     52  SD        23.0370   12.4200   -1.3860 S.3   144  MET144     -0.1393
     53  CE        24.2270   13.6530   -1.8750 C.3   144  MET144      0.0692
     54  N         17.2190   13.5810   10.8890 N.3   167  SER167     -0.1202
     55  CA        18.2420   14.4870   11.4370 C.3   167  SER167      0.2020
     56  C         19.6390   14.0780   10.9380 C.2   167  SER167      0.2619
     57  O         19.9370   12.8820   10.8600 O.2   167  SER167     -0.2717
     58  CB        18.2390   14.4210   12.9610 C.3   167  SER167      0.2103
     59  OG        16.9300   14.5370   13.4900 O.3   167  SER167     -0.2182
     60  N         20.4620   15.0660   10.6050 N.am  168  GLY168     -0.1942
     61  CA        21.8320   14.8510   10.1560 C.3   168  GLY168      0.2014
     62  C         21.9980   14.2510    8.7760 C.2   168  GLY168      0.2639
     63  O         23.1220   13.9270    8.3950 O.2   168  GLY168     -0.2714
     64  N         20.8930   14.1020    8.0170 N.am  169  ALA169     -0.1963
     65  CA        20.8680   13.5480    6.6600 C.3   169  ALA169      0.1728
     66  C         21.3840   14.5420    5.6020 C.2   169  ALA169      0.2617
     67  O         21.7830   14.1200    4.5130 O.2   169  ALA169     -0.2715
     68  CB        19.4610   13.0940    6.3080 C.3   169  ALA169      0.0334
     69  N         21.3680   15.8390    5.9240 N.am  170  GLY170     -0.1940
     70  CA        21.8280   16.8720    5.0050 C.3   170  GLY170      0.2014
     71  C         20.7820   17.8540    4.5280 C.2   170  GLY170      0.2639
     72  O         20.9940   18.5010    3.4960 O.2   170  GLY170     -0.2714
     73  N         19.6720   18.0220    5.2940 N.am  171  LYS171     -0.1963
     74  CA        18.5840   18.9620    4.9520 C.3   171  LYS171      0.1728
     75  C         19.0780   20.4200    4.8050 C.2   171  LYS171      0.2616
     76  O         18.7400   21.0660    3.8100 O.2   171  LYS171     -0.2715
     77  CB        17.4060   18.8700    5.9360 C.3   171  LYS171      0.0311
     78  CG        16.7290   17.4870    5.9700 C.3   171  LYS171      0.0038
     79  CD        15.4340   17.4770    6.7780 C.3   171  LYS171      0.0206
     80  CE        15.6110   17.6980    8.2780 C.3   171  LYS171      0.1093
     81  NZ        16.6520   16.7880    8.8600 N.3   171  LYS171     -0.1314
     82  N         19.9060   20.9160    5.7570 N.am  172  GLU172     -0.1963
     83  CA        20.4450   22.2800    5.6720 C.3   172  GLU172      0.1733
     84  C         21.3900   22.4400    4.4840 C.2   172  GLU172      0.2616
     85  O         21.3450   23.4710    3.8150 O.2   172  GLU172     -0.2715
     86  CB        21.1110   22.7490    6.9810 C.3   172  GLU172      0.0429
     87  CG        21.6080   24.1880    6.9100 C.3   172  GLU172      0.1163
     88  CD        22.0170   24.8720    8.1990 C.2   172  GLU172      0.3649
     89  OE1       21.5330   24.4710    9.2810 O.co2 172  GLU172     -0.2457
     90  OE2       22.7370   25.8890    8.1090 O.co2 172  GLU172     -0.2457
     91  N         22.2210   21.4150    4.2110 N.am  173  LEU173     -0.1977
     92  CA        23.1490   21.4420    3.0860 C.3   173  LEU173      0.1596
     93  C         22.4130   21.5390    1.7370 C.2   173  LEU173      0.2287
     94  O         22.8620   22.2710    0.8520 O.2   173  LEU173     -0.2864
     95  CB        24.1140   20.2450    3.1360 C.3   173  LEU173      0.0297
     96  CG        25.2120   20.1870    2.0570 C.3   173  LEU173      0.0022
     97  CD1       25.9950   21.5230    1.9500 C.3   173  LEU173      0.0001
     98  CD2       26.1680   19.0510    2.3320 C.3   173  LEU173      0.0001
     99  N         15.1660   30.0540    5.7660 N.3   227  TYR227     -0.1241
    100  CA        15.1760   28.6370    6.0380 C.3   227  TYR227      0.1605
    101  C         14.6240   28.3670    7.4280 C.2   227  TYR227      0.2264
    102  O         15.2540   28.7070    8.4220 O.2   227  TYR227     -0.2867
    103  CB        16.5850   28.0580    5.8420 C.3   227  TYR227      0.0534
    104  CG        16.6700   26.5650    6.0610 C.ar  227  TYR227     -0.0201
    105  CD1       15.8110   25.6930    5.3960 C.ar  227  TYR227     -0.0009
    106  CD2       17.6120   26.0220    6.9320 C.ar  227  TYR227     -0.0009
    107  CE1       15.8690   24.3210    5.6090 C.ar  227  TYR227      0.0417
    108  CE2       17.6780   24.6500    7.1570 C.ar  227  TYR227      0.0417
    109  CZ        16.8120   23.8030    6.4830 C.ar  227  TYR227      0.1957
    110  OH        16.8680   22.4530    6.6970 O.3   227  TYR227     -0.2866
    111  N         14.2270   25.8550    9.7230 N.3   229  ASP229     -0.1239
    112  CA        14.8580   24.6050   10.0850 C.3   229  ASP229      0.1674
    113  C         14.0270   23.8950   11.1500 C.2   229  ASP229      0.2266
    114  O         13.9190   24.3900   12.2710 O.2   229  ASP229     -0.2867
    115  CB        16.2940   24.8920   10.5780 C.3   229  ASP229      0.1410
    116  CG        17.1850   23.6830   10.7890 C.2   229  ASP229      0.3668
    117  OD1       16.6670   22.5500   10.7520 O.co2 229  ASP229     -0.2456
    118  OD2       18.4080   23.8740   10.9900 O.co2 229  ASP229     -0.2456
    119  N         21.2720    4.6600    1.5920 N.3   304  ARG304     -0.1245
    120  CA        22.4600    4.8620    0.7390 C.3   304  ARG304      0.1563
    121  C         23.7670    4.3410    1.3990 C.2   304  ARG304      0.2260
    122  O         24.8110    4.9890    1.3200 O.2   304  ARG304     -0.2867
    123  CB        22.5820    6.3530    0.3390 C.3   304  ARG304      0.0307
    124  CG        22.5820    7.3110    1.5310 C.3   304  ARG304      0.0489
    125  CD        22.8870    8.7340    1.1580 C.3   304  ARG304      0.2205
    126  NE        22.4710    9.6510    2.2140 N.pl3 304  ARG304     -0.0865
    127  CZ        22.8310   10.9250    2.3010 C.cat 304  ARG304      0.5346
    128  NH1       23.6630   11.4360    1.3980 N.pl3 304  ARG304      0.1354
    129  NH2       22.3760   11.6950    3.2630 N.pl3 304  ARG304      0.1354
    130  N         32.0600    8.6150    2.0680 N.3   311  LEU311     -0.1245
    131  CA        31.8100    9.6280    3.0890 C.3   311  LEU311      0.1561
    132  C         32.8540    9.5660    4.2030 C.2   311  LEU311      0.2260
    133  O         33.3020   10.6250    4.6350 O.2   311  LEU311     -0.2867
    134  CB        30.3830    9.5100    3.6610 C.3   311  LEU311      0.0270
    135  CG        29.2360    9.8330    2.6990 C.3   311  LEU311      0.0019
    136  CD1       27.9270    9.2150    3.1820 C.3   311  LEU311      0.0001
    137  CD2       29.1140   11.3280    2.4470 C.3   311  LEU311      0.0001
    138  N         35.8860   11.0680    2.6910 N.3   314  PHE314     -0.1227
    139  CA        35.6510   12.5110    2.6060 C.3   314  PHE314      0.1736
    140  C         35.8100   13.1910    3.9870 C.2   314  PHE314      0.2595
    141  O         36.5060   14.1970    4.0980 O.2   314  PHE314     -0.2718
    142  CB        34.2810   12.8080    1.9850 C.3   314  PHE314      0.0547
    143  CG        33.8920   14.2670    2.0980 C.ar  314  PHE314     -0.0202
    144  CD1       34.4440   15.2220    1.2420 C.ar  314  PHE314     -0.0042
    145  CD2       33.0320   14.7000    3.1050 C.ar  314  PHE314     -0.0042
    146  CE1       34.1040   16.5730    1.3670 C.ar  314  PHE314     -0.0003
    147  CE2       32.7200   16.0570    3.2460 C.ar  314  PHE314     -0.0003
    148  CZ        33.2530   16.9820    2.3750 C.ar  314  PHE314     -0.0000
    149  N         35.1920   12.6190    5.0350 N.am  315  PHE315     -0.1976
    150  CA        35.2880   13.1650    6.3880 C.3   315  PHE315      0.1639
    151  C         36.7100   13.0840    6.9620 C.2   315  PHE315      0.2290
    152  O         37.1180   13.9990    7.6770 O.2   315  PHE315     -0.2864
    153  CB        34.2500   12.5310    7.3360 C.3   315  PHE315      0.0560
    154  CG        32.8020   12.8470    7.0260 C.ar  315  PHE315     -0.0200
    155  CD1       32.4100   14.1420    6.6790 C.ar  315  PHE315     -0.0042
    156  CD2       31.8180   11.8640    7.1360 C.ar  315  PHE315     -0.0042
    157  CE1       31.0650   14.4420    6.4400 C.ar  315  PHE315     -0.0003
    158  CE2       30.4760   12.1590    6.8800 C.ar  315  PHE315     -0.0003
    159  CZ        30.1110   13.4420    6.5160 C.ar  315  PHE315     -0.0000
    160  N         38.7060   16.0820    5.8290 N.3   318  GLN318     -0.1245
    161  CA        38.2860   17.3010    6.5430 C.3   318  GLN318      0.1566
    162  C         38.9740   17.3940    7.8980 C.2   318  GLN318      0.2260
    163  O         39.4550   18.4610    8.2710 O.2   318  GLN318     -0.2867
    164  CB        36.7640   17.3220    6.7760 C.3   318  GLN318      0.0367
    165  CG        35.8950   17.6600    5.5730 C.3   318  GLN318      0.0905
    166  CD        34.4680   18.0160    5.9860 C.2   318  GLN318      0.2608
    167  OE1       33.9120   17.5260    6.9780 O.2   318  GLN318     -0.2717
    168  NE2       33.8250   18.8610    5.2130 N.am  318  GLN318     -0.0878
    169  N         24.5490   11.3870    8.7710 N.3   347  LEU347     -0.1231
    170  CA        25.8760   11.9050    8.3880 C.3   347  LEU347      0.1693
    171  C         26.5640   12.6840    9.4740 C.2   347  LEU347      0.2591
    172  O         27.7950   12.6020    9.5820 O.2   347  LEU347     -0.2718
    173  CB        25.8310   12.7070    7.0840 C.3   347  LEU347      0.0284
    174  CG        25.7440   11.8350    5.8120 C.3   347  LEU347      0.0019
    175  CD1       24.3430   11.2160    5.6320 C.3   347  LEU347      0.0001
    176  CD2       26.1800   12.5940    4.5960 C.3   347  LEU347      0.0001
    177  N         25.8000   13.4260   10.2900 N.am  348  ARG348     -0.1980
    178  CA        26.3800   14.1350   11.4310 C.3   348  ARG348      0.1597
    179  C         26.9610   13.0990   12.4180 C.2   348  ARG348      0.2287
    180  O         28.0520   13.3020   12.9290 O.2   348  ARG348     -0.2864
    181  CB        25.3290   15.0010   12.1230 C.3   348  ARG348      0.0334
    182  CG        25.8220   15.5970   13.4260 C.3   348  ARG348      0.0492
    183  CD        25.0230   16.7790   13.8460 C.3   348  ARG348      0.2205
    184  NE        25.2270   17.8870   12.9260 N.pl3 348  ARG348     -0.0865
    185  CZ        24.3020   18.3480   12.0970 C.cat 348  ARG348      0.5346
    186  NH1       24.5670   19.3840   11.3160 N.pl3 348  ARG348      0.1354
    187  NH2       23.0920   17.7940   12.0620 N.pl3 348  ARG348      0.1354
    188  N         30.2310   11.3860   10.7260 N.3   351  ARG351     -0.1245
    189  CA        31.3680   12.3070   10.8270 C.3   351  ARG351      0.1563
    190  C         31.9330   12.3020   12.2700 C.2   351  ARG351      0.2260
    191  O         33.1440   12.1320   12.4680 O.2   351  ARG351     -0.2867
    192  CB        30.9230   13.7230   10.4080 C.3   351  ARG351      0.0307
    193  CG        32.0570   14.6730   10.0230 C.3   351  ARG351      0.0489
    194  CD        31.7960   16.1100   10.4450 C.3   351  ARG351      0.2205
    195  NE        32.4080   16.3120   11.7590 N.pl3 351  ARG351     -0.0865
    196  CZ        31.7730   16.2080   12.9230 C.cat 351  ARG351      0.5346
    197  NH1       30.4570   16.0050   12.9590 N.pl3 351  ARG351      0.1354
    198  NH2       32.4430   16.3350   14.0610 N.pl3 351  ARG351      0.1354
@<TRIPOS>BOND
     1    49    48    2
     2    48    47    1
     3    47    46    1
     4    47    50    1
     5    50    51    1
     6    34    33    2
     7    29    28   ar
     8    37    36    1
     9    33    32    1
    10    33    39   am
    11    26    23    1
    12    26    27    1
    13    35    32    1
    14    35    36    1
    15    51    52    1
    16    31    32    1
    17    31    24   am
    18    53    52    1
    19    28    30   ar
    20    28    27    1
    21    23    24    1
    22    23    22    1
    23    41    40    1
    24    41    42    2
    25    40    39    1
    26    40    43    1
    27    36    38    1
    28    24    25    2
    29    45    43    1
    30    44    43    1
    31   123   120    1
    32   123   124    1
    33   120   121    1
    34   120   119    1
    35    94    93    2
    36   125   124    1
    37   125   126    1
    38   144   146   ar
    39   144   143   ar
    40   122   121    2
    41   146   148   ar
    42   128   127    1
    43    93    92    1
    44    17    18    1
    45    17    14    1
    46    18    19    1
    47    97    96    1
    48    15    14    1
    49    15    16    2
    50   142   143    1
    51   142   139    1
    52    96    98    1
    53    96    95    1
    54   130   131    1
    55   143   145   ar
    56   126   127    2
    57   127   129    1
    58   148   147   ar
    59   137   135    1
    60    14    13    1
    61   139   138    1
    62   139   140    1
    63   135   136    1
    64   135   134    1
    65    21    19   am
    66    92    95    1
    67    92    91    1
    68   131   134    1
    69   131   132    1
    70    19    20    2
    71   145   147   ar
    72    72    71    2
    73    76    75    2
    74    85    84    2
    75    13     7   am
    76   140   141    2
    77   140   149   am
    78   132   133    2
    79    91    84   am
    80    84    83    1
    81    67    66    2
    82    71    70    1
    83    71    73   am
    84     8     7    2
    85   176   174    1
    86    75    74    1
    87    75    82   am
    88     7     6    1
    89    74    73    1
    90    74    77    1
    91    70    69    1
    92   149   150    1
    93   168   166   am
    94   105   107   ar
    95   105   104   ar
    96   165   166    1
    97   165   164    1
    98    66    69   am
    99    66    65    1
   100   107   109   ar
   101   175   174    1
   102    83    82    1
   103    83    86    1
   104    11    10   ar
   105    99   100    1
   106   174   173    1
   107   160   161    1
   108   103   100    1
   109   103   104    1
   110    77    78    1
   111    78    79    1
   112   166   167    2
   113   100   101    1
   114   104   106   ar
   115     6     5    1
   116     6     9    1
   117    68    65    1
   118   150   151    1
   119   150   153    1
   120   157   159   ar
   121   157   155   ar
   122   109   110    1
   123   109   108   ar
   124   159   158   ar
   125   161   164    1
   126   161   162    1
   127    65    64    1
   128   155   154   ar
   129    79    80    1
   130     5     3   am
   131   158   156   ar
   132    87    86    1
   133    87    88    1
   134    10     9    1
   135    10    12   ar
   136   106   108   ar
   137   151   152    2
   138   154   156   ar
   139   154   153    1
   140   173   170    1
   141     4     3    2
   142     3     2    1
   143   101   102    2
   144     2     1    1
   145   162   163    2
   146    64    62   am
   147    90    88   ar
   148    88    89   ar
   149    80    81    1
   150   170   169    1
   151   170   171    1
   152    63    62    2
   153    62    61    1
   154   171   172    2
   155   171   177   am
   156   111   112    1
   157   193   192    1
   158   193   194    1
   159   112   115    1
   160   112   113    1
   161    61    60    1
   162   177   178    1
   163   192   189    1
   164   194   195    1
   165   115   116    1
   166    60    56   am
   167   188   189    1
   168   117   116   ar
   169   116   118   ar
   170   189   190    1
   171    57    56    2
   172    54    55    1
   173    56    55    1
   174   113   114    2
   175   186   185    1
   176   178   181    1
   177   178   179    1
   178    55    58    1
   179   195   196    2
   180   187   185    1
   181   185   184    2
   182   181   182    1
   183   190   191    2
   184   179   180    2
   185   196   197    1
   186   196   198    1
   187   184   183    1
   188    58    59    1
   189   182   183    1
