@<TRIPOS>MOLECULE
tmp/5m7sB00.pdb
 168 164 0 0 0
SMALL
GASTEIGER

@<TRIPOS>ATOM
      1  N         15.9560   -4.3980   24.0710 N.3     9  GLY9       -0.1210
      2  CA        17.0280   -3.8410   24.9120 C.3     9  GLY9        0.1956
      3  C         16.5940   -2.8850   25.9850 C.2     9  GLY9        0.2612
      4  O         17.4050   -2.1410   26.5050 O.2     9  GLY9       -0.2717
      5  N         15.3270   -2.9500   26.3660 N.am   10  PHE10      -0.1962
      6  CA        14.7270   -1.9030   27.1990 C.3    10  PHE10       0.1771
      7  C         14.6640   -2.3200   28.6550 C.2    10  PHE10       0.2619
      8  O         14.9110   -3.4720   28.9820 O.2    10  PHE10      -0.2715
      9  CB        13.3560   -1.4930   26.6440 C.3    10  PHE10       0.0574
     10  CG        12.4680   -2.6440   26.3270 C.ar   10  PHE10      -0.0200
     11  CD1       11.8600   -3.3510   27.3250 C.ar   10  PHE10      -0.0042
     12  CD2       12.2610   -3.0290   25.0360 C.ar   10  PHE10      -0.0042
     13  CE1       11.0540   -4.4630   27.0430 C.ar   10  PHE10      -0.0003
     14  CE2       11.4300   -4.1200   24.7220 C.ar   10  PHE10      -0.0003
     15  CZ        10.8170   -4.8440   25.7350 C.ar   10  PHE10      -0.0000
     16  N         14.3670   -1.3590   29.5260 N.am   11  TYR11      -0.1974
     17  CA        14.1230   -1.6260   30.9400 C.3    11  TYR11       0.1639
     18  C         12.6390   -2.0300   31.1670 C.2    11  TYR11       0.2290
     19  O         11.7700   -1.5190   30.5110 O.2    11  TYR11      -0.2864
     20  CB        14.4560   -0.3990   31.7620 C.3    11  TYR11       0.0560
     21  CG        15.9310   -0.1110   31.9210 C.ar   11  TYR11      -0.0198
     22  CD1       16.6900   -0.7440   32.8840 C.ar   11  TYR11      -0.0009
     23  CD2       16.5690    0.8620   31.1530 C.ar   11  TYR11      -0.0009
     24  CE1       18.0550   -0.4570   33.0430 C.ar   11  TYR11       0.0417
     25  CE2       17.9310    1.1520   31.3180 C.ar   11  TYR11       0.0417
     26  CZ        18.6550    0.4710   32.2490 C.ar   11  TYR11       0.1957
     27  OH        19.9530    0.7540   32.4050 O.3    11  TYR11      -0.2866
     28  N         17.1530   -5.7500   29.6530 N.3    40  LYS40      -0.1245
     29  CA        17.7930   -5.2810   30.8740 C.3    40  LYS40       0.1561
     30  C         17.4050   -5.9760   32.1570 C.2    40  LYS40       0.2260
     31  O         18.2690   -6.1670   33.0310 O.2    40  LYS40      -0.2867
     32  CB        17.5430   -3.7930   31.0550 C.3    40  LYS40       0.0271
     33  CG        18.3760   -2.9350   30.1270 C.3    40  LYS40       0.0035
     34  CD        19.8350   -2.8300   30.6220 C.3    40  LYS40       0.0206
     35  CE        20.6160   -1.8030   29.8200 C.3    40  LYS40       0.1093
     36  NZ        20.5350   -2.1640   28.3740 N.3    40  LYS40      -0.1314
     37  N         26.9480   -0.9880   28.6770 N.3   116  ASP116     -0.1225
     38  CA        26.1770    0.2380   28.8250 C.3   116  ASP116      0.1805
     39  C         25.5830    0.3950   30.2060 C.2   116  ASP116      0.2597
     40  O         25.2590   -0.5940   30.8580 O.2   116  ASP116     -0.2718
     41  CB        25.0760    0.2850   27.7910 C.3   116  ASP116      0.1424
     42  CG        24.1530   -0.9340   27.8160 C.2   116  ASP116      0.3668
     43  OD1       24.6030   -2.0850   28.0150 O.co2 116  ASP116     -0.2456
     44  OD2       22.9590   -0.7300   27.5490 O.co2 116  ASP116     -0.2456
     45  N         25.4710    1.6410   30.6540 N.am  117  ASP117     -0.1974
     46  CA        24.7640    2.0010   31.8780 C.3   117  ASP117      0.1709
     47  C         25.3660    1.3490   33.1210 C.2   117  ASP117      0.2293
     48  O         24.6630    0.7670   33.9490 O.2   117  ASP117     -0.2864
     49  CB        23.2520    1.6700   31.7570 C.3   117  ASP117      0.1436
     50  CG        22.5410    2.4560   30.6230 C.2   117  ASP117      0.3671
     51  OD1       23.0810    3.4200   30.0380 O.co2 117  ASP117     -0.2456
     52  OD2       21.3810    2.0960   30.3270 O.co2 117  ASP117     -0.2456
     53  N         29.0670   -3.5450   23.1510 N.3   157  CYS157     -0.1235
     54  CA        28.4490   -2.2470   23.4500 C.3   157  CYS157      0.1677
     55  C         29.3320   -1.4510   24.3860 C.2   157  CYS157      0.2270
     56  O         29.5230   -1.8520   25.5180 O.2   157  CYS157     -0.2867
     57  CB        27.0340   -2.3410   24.0290 C.3   157  CYS157      0.0956
     58  SG        26.3530   -0.6620   24.2550 S.3   157  CYS157     -0.0801
     59  N         28.5350    5.1440   24.6020 N.3   161  TYR161     -0.1241
     60  CA        27.7720    4.6830   23.4470 C.3   161  TYR161      0.1605
     61  C         27.0130    5.6890   22.6320 C.2   161  TYR161      0.2264
     62  O         26.2120    5.3150   21.7640 O.2   161  TYR161     -0.2867
     63  CB        26.7760    3.6180   23.8930 C.3   161  TYR161      0.0534
     64  CG        25.7520    3.9960   24.9340 C.ar  161  TYR161     -0.0201
     65  CD1       24.6160    4.7420   24.6110 C.ar  161  TYR161     -0.0009
     66  CD2       25.8580    3.5130   26.2260 C.ar  161  TYR161     -0.0009
     67  CE1       23.6470    5.0340   25.5800 C.ar  161  TYR161      0.0417
     68  CE2       24.8920    3.7740   27.1900 C.ar  161  TYR161      0.0417
     69  CZ        23.7920    4.5250   26.8690 C.ar  161  TYR161      0.1957
     70  OH        22.8660    4.7500   27.8520 O.3   161  TYR161     -0.2866
     71  N         28.4040   -1.1580   18.9510 N.3   190  LEU190     -0.1231
     72  CA        27.0850   -0.5540   18.9840 C.3   190  LEU190      0.1693
     73  C         27.1900    0.9220   19.3470 C.2   190  LEU190      0.2592
     74  O         28.0750    1.3210   20.0960 O.2   190  LEU190     -0.2718
     75  CB        26.1990   -1.2870   19.9670 C.3   190  LEU190      0.0284
     76  CG        25.8610   -2.7240   19.5620 C.3   190  LEU190      0.0019
     77  CD1       25.6120   -3.5630   20.7950 C.3   190  LEU190      0.0001
     78  CD2       24.6360   -2.7670   18.6690 C.3   190  LEU190      0.0001
     79  N         26.2690    1.7250   18.8120 N.am  191  TRP191     -0.1962
     80  CA        26.2900    3.1820   18.9560 C.3   191  TRP191      0.1771
     81  C         24.8640    3.6850   18.7730 C.2   191  TRP191      0.2620
     82  O         24.1520    3.1670   17.9190 O.2   191  TRP191     -0.2715
     83  CB        27.2010    3.7490   17.8750 C.3   191  TRP191      0.0590
     84  CG        27.3970    5.2300   17.8530 C.ar  191  TRP191      0.0006
     85  CD1       26.8900    6.1110   16.9310 C.ar  191  TRP191      0.0946
     86  CD2       28.2320    6.0020   18.7230 C.ar  191  TRP191      0.0152
     87  NE1       27.3310    7.3880   17.1990 N.ar  191  TRP191     -0.2442
     88  CE2       28.1550    7.3460   18.2910 C.ar  191  TRP191      0.0810
     89  CE3       29.0350    5.6900   19.8320 C.ar  191  TRP191      0.0012
     90  CZ2       28.8260    8.3680   18.9420 C.ar  191  TRP191      0.0191
     91  CZ3       29.7040    6.6900   20.4740 C.ar  191  TRP191      0.0001
     92  CH2       29.6050    8.0210   20.0330 C.ar  191  TRP191      0.0015
     93  N         24.4510    4.6990   19.5420 N.am  192  THR192     -0.1951
     94  CA        23.0630    5.2070   19.4680 C.3   192  THR192      0.1897
     95  C         22.9090    6.5700   18.8110 C.2   192  THR192      0.2313
     96  O         21.8050    7.1200   18.7830 O.2   192  THR192     -0.2863
     97  CB        22.4160    5.2750   20.8520 C.3   192  THR192      0.1794
     98  OG1       22.9070    6.3850   21.5860 O.3   192  THR192     -0.2208
     99  CG2       22.6970    4.0270   21.6400 C.3   192  THR192      0.0378
    100  N         21.3950    9.4410   23.5000 N.3   196  VAL196     -0.1231
    101  CA        20.7210    8.1990   23.8350 C.3   196  VAL196      0.1692
    102  C         19.5400    8.0060   22.8880 C.2   196  VAL196      0.2591
    103  O         19.4250    6.9680   22.2030 O.2   196  VAL196     -0.2718
    104  CB        20.2200    8.1680   25.2960 C.3   196  VAL196      0.0266
    105  CG1       19.6720    6.7710   25.6340 C.3   196  VAL196      0.0020
    106  CG2       21.3500    8.5270   26.2470 C.3   196  VAL196      0.0020
    107  N         18.7020    9.0300   22.8170 N.am  197  VAL197     -0.1980
    108  CA        17.5710    9.0610   21.9120 C.3   197  VAL197      0.1595
    109  C         17.8240   10.1700   20.9220 C.2   197  VAL197      0.2287
    110  O         17.5390   11.3390   21.1870 O.2   197  VAL197     -0.2864
    111  CB        16.2350    9.3160   22.6360 C.3   197  VAL197      0.0276
    112  CG1       15.0960    9.2000   21.6520 C.3   197  VAL197      0.0022
    113  CG2       16.0360    8.3220   23.7540 C.3   197  VAL197      0.0022
    114  N         22.2670    1.0070   17.5020 N.3   220  TRP220     -0.1241
    115  CA        21.2260    0.5990   18.4340 C.3   220  TRP220      0.1605
    116  C         20.3610    1.8520   18.5450 C.2   220  TRP220      0.2264
    117  O         20.7130    2.8330   19.2250 O.2   220  TRP220     -0.2867
    118  CB        21.8340    0.2090   19.7690 C.3   220  TRP220      0.0550
    119  CG        20.9250   -0.0160   20.9500 C.ar  220  TRP220      0.0003
    120  CD1       19.8820    0.7610   21.3830 C.ar  220  TRP220      0.0946
    121  CD2       21.0330   -1.0740   21.9020 C.ar  220  TRP220      0.0152
    122  NE1       19.3290    0.2350   22.5240 N.ar  220  TRP220     -0.2442
    123  CE2       20.0300   -0.8770   22.8700 C.ar  220  TRP220      0.0810
    124  CE3       21.8780   -2.1760   22.0280 C.ar  220  TRP220      0.0012
    125  CZ2       19.8730   -1.7250   23.9430 C.ar  220  TRP220      0.0191
    126  CZ3       21.7040   -3.0150   23.0750 C.ar  220  TRP220      0.0001
    127  CH2       20.7240   -2.7950   24.0240 C.ar  220  TRP220      0.0015
    128  N         17.2430    4.1110   19.5120 N.3   222  ASN222     -0.1240
    129  CA        16.2640    4.2800   20.5710 C.3   222  ASN222      0.1653
    130  C         15.1410    5.2420   20.1840 C.2   222  ASN222      0.2266
    131  O         14.3840    5.6530   21.0490 O.2   222  ASN222     -0.2867
    132  CB        16.9450    4.7600   21.8500 C.3   222  ASN222      0.1155
    133  CG        17.8870    3.7330   22.4260 C.2   222  ASN222      0.2627
    134  OD1       17.4940    2.6060   22.7060 O.2   222  ASN222     -0.2716
    135  ND2       19.1470    4.1220   22.6200 N.am  222  ASN222     -0.0877
    136  N         11.9260    3.9490   21.6220 N.3   225  ALA225     -0.1245
    137  CA        11.9720    3.4810   22.9820 C.3   225  ALA225      0.1562
    138  C         11.0530    4.3150   23.8540 C.2   225  ALA225      0.2260
    139  O         10.9550    5.5470   23.6730 O.2   225  ALA225     -0.2867
    140  CB        13.4210    3.5410   23.5190 C.3   225  ALA225      0.0290
    141  N         10.6950    3.2530   27.5830 N.3   227  ASP227     -0.1225
    142  CA        10.8980    2.8150   28.9720 C.3   227  ASP227      0.1805
    143  C         11.2450    3.9360   29.9140 C.2   227  ASP227      0.2597
    144  O         11.2620    3.6950   31.1150 O.2   227  ASP227     -0.2718
    145  CB        11.9670    1.7020   29.0850 C.3   227  ASP227      0.1424
    146  CG        13.3590    2.0870   28.4480 C.2   227  ASP227      0.3668
    147  OD1       13.5090    3.2210   27.9540 O.co2 227  ASP227     -0.2456
    148  OD2       14.2720    1.2100   28.4190 O.co2 227  ASP227     -0.2456
    149  N         11.5080    5.1370   29.4020 N.am  228  TYR228     -0.1976
    150  CA        11.9440    6.2830   30.2260 C.3   228  TYR228      0.1639
    151  C         10.8780    7.3010   30.6340 C.2   228  TYR228      0.2290
    152  O         11.1500    8.1990   31.4040 O.2   228  TYR228     -0.2864
    153  CB        13.0670    7.0470   29.5200 C.3   228  TYR228      0.0560
    154  CG        12.7300    7.5840   28.1640 C.ar  228  TYR228     -0.0198
    155  CD1       12.0600    8.8060   28.0020 C.ar  228  TYR228     -0.0009
    156  CD2       13.0750    6.8870   27.0250 C.ar  228  TYR228     -0.0009
    157  CE1       11.7480    9.3120   26.7410 C.ar  228  TYR228      0.0417
    158  CE2       12.7740    7.3900   25.7620 C.ar  228  TYR228      0.0417
    159  CZ        12.1180    8.6170   25.6410 C.ar  228  TYR228      0.1957
    160  OH        11.8360    9.0710   24.3820 O.3   228  TYR228     -0.2866
    161  N         15.3510   -0.4280   19.1360 N.3   255  ASN255     -0.1240
    162  CA        14.9920   -0.7790   20.5190 C.3   255  ASN255      0.1653
    163  C         13.6500   -0.0810   20.7500 C.2   255  ASN255      0.2266
    164  O         13.6180    1.0870   21.1080 O.2   255  ASN255     -0.2867
    165  CB        16.0450   -0.2110   21.4960 C.3   255  ASN255      0.1155
    166  CG        15.7870   -0.5750   22.9250 C.2   255  ASN255      0.2627
    167  OD1       15.4860   -1.7160   23.2100 O.2   255  ASN255     -0.2716
    168  ND2       15.9670    0.3760   23.8510 N.am  255  ASN255     -0.0877
@<TRIPOS>BOND
     1    85    87   ar
     2    85    84   ar
     3    87    88   ar
     4   114   115    1
     5    84    83    1
     6    84    86   ar
     7    83    80    1
     8    82    81    2
     9    88    86   ar
    10    88    90   ar
    11   115   116    1
    12   115   118    1
    13   116   117    2
    14    78    76    1
    15    86    89   ar
    16    81    80    1
    17    81    93   am
    18    96    95    2
    19    95    94    1
    20    79    80    1
    21    79    73   am
    22    90    92   ar
    23    71    72    1
    24    72    73    1
    25    72    75    1
    26   161   162    1
    27    73    74    2
    28    94    93    1
    29    94    97    1
    30   128   129    1
    31    76    75    1
    32    76    77    1
    33   118   119    1
    34    89    91   ar
    35    92    91   ar
    36   130   129    1
    37   130   131    2
    38   162   163    1
    39   162   165    1
    40   129   132    1
    41   163   164    2
    42    97    98    1
    43    97    99    1
    44   109   110    2
    45   109   108    1
    46   119   120   ar
    47   119   121   ar
    48   120   122   ar
    49   165   166    1
    50   136   137    1
    51   112   111    1
    52    62    61    2
    53   132   133    1
    54   121   124   ar
    55   121   123   ar
    56   108   111    1
    57   108   107    1
    58   124   126   ar
    59   103   102    2
    60   133   135   am
    61   133   134    2
    62   122   123   ar
    63    61    60    1
    64   111   113    1
    65   107   102   am
    66   123   125   ar
    67   102   101    1
    68   166   167    2
    69   166   168   am
    70   137   140    1
    71   137   138    1
    72   126   127   ar
    73    53    54    1
    74    60    63    1
    75    60    59    1
    76    54    57    1
    77    54    55    1
    78   100   101    1
    79   139   138    2
    80   101   104    1
    81    63    64    1
    82   125   127   ar
    83    57    58    1
    84     1     2    1
    85   160   159    1
    86    55    56    2
    87    65    64   ar
    88    65    67   ar
    89    14    12   ar
    90    14    15   ar
    91     2     3    1
    92    64    66   ar
    93    12    10   ar
    94   104   105    1
    95   104   106    1
    96    67    69   ar
    97   159   158   ar
    98   159   157   ar
    99    15    13   ar
   100   158   156   ar
   101     3     5   am
   102     3     4    2
   103    66    68   ar
   104    10     9    1
   105    10    11   ar
   106     5     6    1
   107     9     6    1
   108   157   155   ar
   109    69    68   ar
   110    69    70    1
   111   156   154   ar
   112    13    11   ar
   113     6     7    1
   114    44    42   ar
   115   141   142    1
   116    41    42    1
   117    41    38    1
   118    42    43   ar
   119   147   146   ar
   120   155   154   ar
   121   154   153    1
   122    36    35    1
   123   148   146   ar
   124   146   145    1
   125     7     8    2
   126     7    16   am
   127    37    38    1
   128    38    39    1
   129   142   145    1
   130   142   143    1
   131   149   143   am
   132   149   150    1
   133   153   150    1
   134    16    17    1
   135    28    29    1
   136    35    34    1
   137   143   144    2
   138    51    50   ar
   139    33    34    1
   140    33    32    1
   141    39    45   am
   142    39    40    2
   143   150   151    1
   144    52    50   ar
   145    19    18    2
   146    50    49    1
   147   151   152    2
   148    45    46    1
   149    29    32    1
   150    29    30    1
   151    17    18    1
   152    17    20    1
   153    23    25   ar
   154    23    21   ar
   155    25    26   ar
   156    49    46    1
   157    20    21    1
   158    46    47    1
   159    21    22   ar
   160    30    31    2
   161    26    27    1
   162    26    24   ar
   163    22    24   ar
   164    47    48    2
