@<TRIPOS>MOLECULE
tmp/5m7tA00.pdb
 157 151 0 0 0
SMALL
GASTEIGER

@<TRIPOS>ATOM
      1  N        -17.4300    4.4700   23.5190 N.3     9  GLY9       -0.1210
      2  CA       -18.5170    3.9360   24.3650 C.3     9  GLY9        0.1956
      3  C        -18.0930    2.9810   25.4590 C.2     9  GLY9        0.2612
      4  O        -18.9280    2.2580   25.9650 O.2     9  GLY9       -0.2717
      5  N        -16.8260    3.0170   25.8560 N.am   10  PHE10      -0.1962
      6  CA       -16.2750    1.9720   26.7610 C.3    10  PHE10       0.1771
      7  C        -16.1980    2.4120   28.2010 C.2    10  PHE10       0.2619
      8  O        -16.3930    3.5880   28.5000 O.2    10  PHE10      -0.2715
      9  CB       -14.8860    1.5340   26.3070 C.3    10  PHE10       0.0574
     10  CG       -13.9680    2.6760   25.9800 C.ar   10  PHE10      -0.0200
     11  CD1      -13.2930    3.3360   26.9810 C.ar   10  PHE10      -0.0042
     12  CD2      -13.7470    3.0580   24.6740 C.ar   10  PHE10      -0.0042
     13  CE1      -12.4530    4.3970   26.6950 C.ar   10  PHE10      -0.0003
     14  CE2      -12.8680    4.0960   24.3680 C.ar   10  PHE10      -0.0003
     15  CZ       -12.2390    4.7850   25.3860 C.ar   10  PHE10      -0.0000
     16  N        -15.8930    1.4720   29.0880 N.am   11  TYR11      -0.1974
     17  CA       -15.6770    1.7490   30.5120 C.3    11  TYR11       0.1639
     18  C        -14.2060    2.0890   30.7840 C.2    11  TYR11       0.2290
     19  O        -13.3230    1.6520   30.1090 O.2    11  TYR11      -0.2864
     20  CB       -16.0770    0.5600   31.4010 C.3    11  TYR11       0.0560
     21  CG       -17.5760    0.2740   31.5260 C.ar   11  TYR11      -0.0198
     22  CD1      -18.2110   -0.5880   30.6360 C.ar   11  TYR11      -0.0009
     23  CD2      -18.3360    0.8120   32.5440 C.ar   11  TYR11      -0.0009
     24  CE1      -19.5590   -0.8750   30.7500 C.ar   11  TYR11       0.0417
     25  CE2      -19.6900    0.5490   32.6380 C.ar   11  TYR11       0.0417
     26  CZ       -20.2950   -0.3120   31.7400 C.ar   11  TYR11       0.1957
     27  OH       -21.6450   -0.6190   31.8140 O.3    11  TYR11      -0.2866
     28  N        -18.5400    5.6830   29.1450 N.3    40  LYS40      -0.1245
     29  CA       -19.3320    5.2070   30.2810 C.3    40  LYS40       0.1561
     30  C        -18.9920    5.9110   31.5570 C.2    40  LYS40       0.2260
     31  O        -19.8560    6.1480   32.3390 O.2    40  LYS40      -0.2867
     32  CB       -19.1590    3.6920   30.4980 C.3    40  LYS40       0.0271
     33  CG       -19.9800    2.8460   29.5360 C.3    40  LYS40       0.0035
     34  CD       -21.3890    2.5970   30.0620 C.3    40  LYS40       0.0206
     35  CE       -22.2180    1.6370   29.2470 C.3    40  LYS40       0.1093
     36  NZ       -22.2290    2.1340   27.8440 N.3    40  LYS40      -0.1314
     37  N        -28.5180    0.6940   27.4760 N.3   116  ASP116     -0.1225
     38  CA       -27.6880   -0.4800   27.6850 C.3   116  ASP116      0.1805
     39  C        -27.2290   -0.5520   29.1360 C.2   116  ASP116      0.2597
     40  O        -27.0980    0.4470   29.7950 O.2   116  ASP116     -0.2718
     41  CB       -26.4730   -0.4240   26.7600 C.3   116  ASP116      0.1424
     42  CG       -25.5510    0.7760   27.0500 C.2   116  ASP116      0.3668
     43  OD1      -25.9970    1.9590   26.9300 O.co2 116  ASP116     -0.2456
     44  OD2      -24.3770    0.5250   27.4050 O.co2 116  ASP116     -0.2456
     45  N        -27.0290   -1.7630   29.6250 N.am  117  ASP117     -0.1974
     46  CA       -26.3790   -2.0470   30.9150 C.3   117  ASP117      0.1709
     47  C        -27.1370   -1.5620   32.1430 C.2   117  ASP117      0.2293
     48  O        -26.5370   -1.1400   33.1220 O.2   117  ASP117     -0.2864
     49  CB       -24.9370   -1.5030   30.9300 C.3   117  ASP117      0.1436
     50  CG       -24.0080   -2.2270   29.9610 C.2   117  ASP117      0.3671
     51  OD1      -24.4760   -2.8710   28.9790 O.co2 117  ASP117     -0.2456
     52  OD2      -22.7730   -2.1760   30.2170 O.co2 117  ASP117     -0.2456
     53  N        -30.2340    3.2750   21.9520 N.3   157  CYS157     -0.1235
     54  CA       -29.6860    1.9570   22.2630 C.3   157  CYS157      0.1677
     55  C        -30.5860    1.2070   23.2420 C.2   157  CYS157      0.2270
     56  O        -30.6990    1.6280   24.3990 O.2   157  CYS157     -0.2867
     57  CB       -28.2820    2.0040   22.8530 C.3   157  CYS157      0.0956
     58  SG       -27.6230    0.3470   23.2510 S.3   157  CYS157     -0.0801
     59  N        -29.9900   -5.2290   23.5620 N.3   161  TYR161     -0.1241
     60  CA       -29.2400   -4.6890   22.4190 C.3   161  TYR161      0.1605
     61  C        -28.5470   -5.7570   21.5520 C.2   161  TYR161      0.2264
     62  O        -27.8100   -5.4220   20.6210 O.2   161  TYR161     -0.2867
     63  CB       -28.2410   -3.6160   22.8870 C.3   161  TYR161      0.0534
     64  CG       -27.2190   -4.0910   23.8810 C.ar  161  TYR161     -0.0201
     65  CD1      -26.1270   -4.8510   23.4760 C.ar  161  TYR161     -0.0009
     66  CD2      -27.3360   -3.7870   25.2310 C.ar  161  TYR161     -0.0009
     67  CE1      -25.1900   -5.3120   24.3870 C.ar  161  TYR161      0.0417
     68  CE2      -26.3930   -4.2400   26.1580 C.ar  161  TYR161      0.0417
     69  CZ       -25.3260   -5.0030   25.7260 C.ar  161  TYR161      0.1957
     70  OH       -24.3900   -5.4630   26.6220 O.3   161  TYR161     -0.2866
     71  N        -29.4450  -11.2450   24.7030 N.3   165  PHE165     -0.1241
     72  CA       -30.1450  -10.4770   25.7400 C.3   165  PHE165      0.1605
     73  C        -31.6510  -10.4030   25.4770 C.2   165  PHE165      0.2264
     74  O        -32.3690   -9.9860   26.3540 O.2   165  PHE165     -0.2867
     75  CB       -29.5900   -9.0550   25.8520 C.3   165  PHE165      0.0534
     76  CG       -28.3110   -8.9270   26.6490 C.ar  165  PHE165     -0.0203
     77  CD1      -27.3500   -9.9470   26.6920 C.ar  165  PHE165     -0.0042
     78  CD2      -28.0230   -7.7410   27.3000 C.ar  165  PHE165     -0.0042
     79  CE1      -26.1660   -9.7910   27.4040 C.ar  165  PHE165     -0.0003
     80  CE2      -26.8470   -7.5830   28.0190 C.ar  165  PHE165     -0.0003
     81  CZ       -25.9220   -8.6150   28.0730 C.ar  165  PHE165     -0.0000
     82  N        -25.7390   -4.7710   18.7510 N.3   192  THR192     -0.1218
     83  CA       -24.3570   -5.2940   18.7320 C.3   192  THR192      0.1862
     84  C        -24.1770   -6.6390   18.0620 C.2   192  THR192      0.2287
     85  O        -23.0630   -7.1190   17.9980 O.2   192  THR192     -0.2866
     86  CB       -23.7080   -5.3930   20.1220 C.3   192  THR192      0.1770
     87  OG1      -24.2160   -6.5350   20.8180 O.3   192  THR192     -0.2211
     88  CG2      -23.9360   -4.1480   20.9260 C.3   192  THR192      0.0375
     89  N        -23.0080   -9.7600   22.7070 N.3   196  VAL196     -0.1231
     90  CA       -22.3630   -8.5200   23.1230 C.3   196  VAL196      0.1692
     91  C        -21.0580   -8.2850   22.3330 C.2   196  VAL196      0.2591
     92  O        -20.8900   -7.2470   21.6900 O.2   196  VAL196     -0.2718
     93  CB       -22.0390   -8.5640   24.6350 C.3   196  VAL196      0.0266
     94  CG1      -21.2810   -7.3220   25.0570 C.3   196  VAL196      0.0020
     95  CG2      -23.3000   -8.7210   25.4570 C.3   196  VAL196      0.0020
     96  N        -20.1470   -9.2530   22.3850 N.am  197  VAL197     -0.1980
     97  CA       -18.9940   -9.2850   21.4820 C.3   197  VAL197      0.1595
     98  C        -19.1990  -10.3650   20.3970 C.2   197  VAL197      0.2287
     99  O        -18.8120  -11.5040   20.5480 O.2   197  VAL197     -0.2864
    100  CB       -17.6900   -9.5230   22.2450 C.3   197  VAL197      0.0276
    101  CG1      -16.5130   -9.4820   21.2960 C.3   197  VAL197      0.0022
    102  CG2      -17.5450   -8.4720   23.3220 C.3   197  VAL197      0.0022
    103  N        -23.4990   -1.1390   16.8940 N.3   220  TRP220     -0.1241
    104  CA       -22.5010   -0.7800   17.8970 C.3   220  TRP220      0.1605
    105  C        -21.6590   -2.0410   17.9150 C.2   220  TRP220      0.2264
    106  O        -22.0970   -3.0810   18.4100 O.2   220  TRP220     -0.2867
    107  CB       -23.1730   -0.4930   19.2380 C.3   220  TRP220      0.0550
    108  CG       -22.3030   -0.2800   20.4260 C.ar  220  TRP220      0.0003
    109  CD1      -21.3640   -1.1220   20.9180 C.ar  220  TRP220      0.0946
    110  CD2      -22.3940    0.7980   21.3650 C.ar  220  TRP220      0.0152
    111  NE1      -20.8280   -0.6240   22.0750 N.ar  220  TRP220     -0.2442
    112  CE2      -21.4340    0.5620   22.3660 C.ar  220  TRP220      0.0810
    113  CE3      -23.1870    1.9460   21.4480 C.ar  220  TRP220      0.0012
    114  CZ2      -21.2430    1.4380   23.4510 C.ar  220  TRP220      0.0191
    115  CZ3      -23.0040    2.7960   22.5050 C.ar  220  TRP220      0.0001
    116  CH2      -22.0440    2.5420   23.5030 C.ar  220  TRP220      0.0015
    117  N        -18.6050   -4.1740   19.1510 N.3   222  ASN222     -0.1240
    118  CA       -17.6510   -4.3980   20.2480 C.3   222  ASN222      0.1653
    119  C        -16.5200   -5.3510   19.8850 C.2   222  ASN222      0.2266
    120  O        -15.7760   -5.7910   20.7730 O.2   222  ASN222     -0.2867
    121  CB       -18.3690   -4.9680   21.4620 C.3   222  ASN222      0.1155
    122  CG       -19.2780   -3.9710   22.1290 C.2   222  ASN222      0.2627
    123  OD1      -18.8730   -2.8670   22.4480 O.2   222  ASN222     -0.2716
    124  ND2      -20.4970   -4.3710   22.3690 N.am  222  ASN222     -0.0877
    125  N        -13.2850   -3.9980   21.3700 N.3   225  ALA225     -0.1245
    126  CA       -13.3720   -3.4860   22.7230 C.3   225  ALA225      0.1562
    127  C        -12.5450   -4.3560   23.6840 C.2   225  ALA225      0.2260
    128  O        -12.5530   -5.5830   23.5820 O.2   225  ALA225     -0.2867
    129  CB       -14.8460   -3.4710   23.1540 C.3   225  ALA225      0.0290
    130  N        -12.1880   -3.2190   27.3710 N.3   227  ASP227     -0.1225
    131  CA       -12.4750   -2.8270   28.7460 C.3   227  ASP227      0.1805
    132  C        -12.7990   -3.9780   29.6610 C.2   227  ASP227      0.2597
    133  O        -12.6410   -3.8550   30.8640 O.2   227  ASP227     -0.2718
    134  CB       -13.6170   -1.7770   28.8390 C.3   227  ASP227      0.1424
    135  CG       -14.9150   -2.2110   28.1340 C.2   227  ASP227      0.3668
    136  OD1      -14.9830   -3.3750   27.7030 O.co2 227  ASP227     -0.2456
    137  OD2      -15.8400   -1.3570   27.9770 O.co2 227  ASP227     -0.2456
    138  N        -13.2330   -5.1030   29.1110 N.am  228  TYR228     -0.1976
    139  CA       -13.6660   -6.2490   29.9140 C.3   228  TYR228      0.1639
    140  C        -12.5630   -7.2010   30.3840 C.2   228  TYR228      0.2290
    141  O        -12.8600   -8.0920   31.1600 O.2   228  TYR228     -0.2864
    142  CB       -14.8030   -7.0300   29.2160 C.3   228  TYR228      0.0560
    143  CG       -14.4210   -7.5820   27.9130 C.ar  228  TYR228     -0.0198
    144  CD1      -13.6840   -8.7690   27.8220 C.ar  228  TYR228     -0.0009
    145  CD2      -14.7260   -6.9220   26.7490 C.ar  228  TYR228     -0.0009
    146  CE1      -13.2940   -9.2820   26.6060 C.ar  228  TYR228      0.0417
    147  CE2      -14.3240   -7.4380   25.5210 C.ar  228  TYR228      0.0417
    148  CZ       -13.6280   -8.6370   25.4700 C.ar  228  TYR228      0.1957
    149  OH       -13.2010   -9.1190   24.2620 O.3   228  TYR228     -0.2866
    150  N        -16.7850    0.3840   18.7780 N.3   255  ASN255     -0.1240
    151  CA       -16.3610    0.7030   20.1610 C.3   255  ASN255      0.1653
    152  C        -14.9890    0.0250   20.4660 C.2   255  ASN255      0.2266
    153  O        -14.9490   -1.1150   20.9500 O.2   255  ASN255     -0.2867
    154  CB       -17.4410    0.1500   21.1270 C.3   255  ASN255      0.1155
    155  CG       -17.2090    0.5360   22.5840 C.2   255  ASN255      0.2627
    156  OD1      -16.7860    1.6360   22.8620 O.2   255  ASN255     -0.2716
    157  ND2      -17.5150   -0.3660   23.5290 N.am  255  ASN255     -0.0877
@<TRIPOS>BOND
     1   103   104    1
     2   104   105    1
     3   104   107    1
     4   105   106    2
     5    85    84    2
     6    84    83    1
     7    83    82    1
     8    83    86    1
     9   150   151    1
    10   117   118    1
    11   107   108    1
    12   119   118    1
    13   119   120    2
    14    86    87    1
    15    86    88    1
    16   151   152    1
    17   151   154    1
    18   118   121    1
    19    98    99    2
    20    98    97    1
    21   108   109   ar
    22   108   110   ar
    23   152   153    2
    24    62    61    2
    25   109   111   ar
    26   154   155    1
    27   101   100    1
    28   110   113   ar
    29   110   112   ar
    30   125   126    1
    31   113   115   ar
    32   121   122    1
    33    97   100    1
    34    97    96    1
    35    61    60    1
    36    92    91    2
    37    53    54    1
    38   111   112   ar
    39   122   124   am
    40   122   123    2
    41   100   102    1
    42    54    57    1
    43    54    55    1
    44    91    96   am
    45    91    90    1
    46   112   114   ar
    47    60    63    1
    48    60    59    1
    49   115   116   ar
    50   155   156    2
    51   155   157   am
    52    89    90    1
    53   126   129    1
    54   126   127    1
    55    57    58    1
    56    63    64    1
    57    90    93    1
    58    55    56    2
    59   114   116   ar
    60    65    64   ar
    61    65    67   ar
    62     1     2    1
    63   128   127    2
    64    64    66   ar
    65   149   148    1
    66     2     3    1
    67    14    12   ar
    68    14    15   ar
    69    67    69   ar
    70    93    94    1
    71    93    95    1
    72    12    10   ar
    73    71    72    1
    74    66    68   ar
    75    15    13   ar
    76     3     5   am
    77     3     4    2
    78   148   147   ar
    79   148   146   ar
    80    73    72    1
    81    73    74    2
    82   147   145   ar
    83    69    68   ar
    84    69    70    1
    85    72    75    1
    86    75    76    1
    87     5     6    1
    88    10     9    1
    89    10    11   ar
    90     9     6    1
    91   146   144   ar
    92    76    77   ar
    93    76    78   ar
    94    77    79   ar
    95    13    11   ar
    96   145   143   ar
    97    41    42    1
    98    41    38    1
    99     6     7    1
   100    43    42   ar
   101    42    44   ar
   102    78    80   ar
   103   130   131    1
   104    79    81   ar
   105    37    38    1
   106    38    39    1
   107   136   135   ar
   108   144   143   ar
   109    36    35    1
   110   143   142    1
   111   137   135   ar
   112    80    81   ar
   113   135   134    1
   114     7     8    2
   115     7    16   am
   116   131   134    1
   117   131   132    1
   118    51    50   ar
   119    16    17    1
   120   138   132   am
   121   138   139    1
   122    39    45   am
   123    39    40    2
   124    28    29    1
   125   142   139    1
   126    35    34    1
   127    33    34    1
   128    33    32    1
   129    45    46    1
   130   132   133    2
   131   139   140    1
   132    50    52   ar
   133    50    49    1
   134    19    18    2
   135    29    32    1
   136    29    30    1
   137   140   141    2
   138    17    18    1
   139    17    20    1
   140    22    24   ar
   141    22    21   ar
   142    24    26   ar
   143    46    49    1
   144    46    47    1
   145    20    21    1
   146    21    23   ar
   147    30    31    2
   148    26    27    1
   149    26    25   ar
   150    47    48    2
   151    23    25   ar
