@<TRIPOS>MOLECULE
tmp/5m7uA00.pdb
 168 161 0 0 0
SMALL
GASTEIGER

@<TRIPOS>ATOM
      1  N        -13.7430   -4.6590   38.9430 N.3     9  GLY9       -0.1210
      2  CA       -14.7390   -3.7700   38.3320 C.3     9  GLY9        0.1956
      3  C        -14.1960   -2.6160   37.5220 C.2     9  GLY9        0.2612
      4  O        -14.9290   -1.6650   37.2510 O.2     9  GLY9       -0.2717
      5  N        -12.9380   -2.7220   37.1090 N.am   10  PHE10      -0.1962
      6  CA       -12.2080   -1.5700   36.6000 C.3    10  PHE10       0.1771
      7  C        -12.0880   -1.5920   35.0720 C.2    10  PHE10       0.2619
      8  O        -12.4670   -2.5700   34.4210 O.2    10  PHE10      -0.2715
      9  CB       -10.8110   -1.4650   37.2830 C.3    10  PHE10       0.0574
     10  CG       -10.0270   -2.7390   37.2630 C.ar   10  PHE10      -0.0200
     11  CD1       -9.4200   -3.1780   36.1050 C.ar   10  PHE10      -0.0042
     12  CD2       -9.9180   -3.5070   38.3760 C.ar   10  PHE10      -0.0042
     13  CE1       -8.7090   -4.3810   36.0640 C.ar   10  PHE10      -0.0003
     14  CE2       -9.2250   -4.7380   38.3430 C.ar   10  PHE10      -0.0003
     15  CZ        -8.6100   -5.1630   37.1950 C.ar   10  PHE10      -0.0000
     16  N        -11.5540   -0.4980   34.5220 N.am   11  TYR11      -0.1974
     17  CA       -11.3230   -0.3360   33.0930 C.3    11  TYR11       0.1639
     18  C         -9.9110   -0.8000   32.7470 C.2    11  TYR11       0.2290
     19  O         -8.9970   -0.6120   33.5310 O.2    11  TYR11      -0.2864
     20  CB       -11.4710    1.1430   32.7050 C.3    11  TYR11       0.0560
     21  CG       -12.8970    1.6640   32.7130 C.ar   11  TYR11      -0.0198
     22  CD1      -13.7470    1.3890   31.6670 C.ar   11  TYR11      -0.0009
     23  CD2      -13.3940    2.4660   33.7610 C.ar   11  TYR11      -0.0009
     24  CE1      -15.0310    1.8710   31.6520 C.ar   11  TYR11       0.0417
     25  CE2      -14.6920    2.9660   33.7360 C.ar   11  TYR11       0.0417
     26  CZ       -15.5080    2.6460   32.6770 C.ar   11  TYR11       0.1957
     27  OH       -16.8260    3.0890   32.5830 O.3    11  TYR11      -0.2866
     28  N        -14.8070   -4.1670   33.2450 N.3    40  LYS40      -0.1245
     29  CA       -15.4090   -3.3160   32.2420 C.3    40  LYS40       0.1561
     30  C        -15.0600   -3.6900   30.7910 C.2    40  LYS40       0.2260
     31  O        -15.9140   -3.6270   29.8830 O.2    40  LYS40      -0.2867
     32  CB       -15.0470   -1.8340   32.5140 C.3    40  LYS40       0.0271
     33  CG       -15.6840   -1.2220   33.7670 C.3    40  LYS40       0.0035
     34  CD       -17.1270   -0.8110   33.4890 C.3    40  LYS40       0.0206
     35  CE       -17.7830   -0.1080   34.6470 C.3    40  LYS40       0.1093
     36  NZ       -17.8730   -0.9120   35.8810 N.3    40  LYS40      -0.1314
     37  N        -19.5960   -6.6600   29.0320 N.3    46  ARG46      -0.1245
     38  CA       -20.2330   -5.3600   28.8410 C.3    46  ARG46       0.1563
     39  C        -20.4850   -5.0910   27.3760 C.2    46  ARG46       0.2260
     40  O        -21.6140   -5.1680   26.9460 O.2    46  ARG46      -0.2867
     41  CB       -19.4170   -4.2390   29.4820 C.3    46  ARG46       0.0307
     42  CG       -20.0890   -2.8440   29.4950 C.3    46  ARG46       0.0489
     43  CD       -19.3730   -1.8770   30.4320 C.3    46  ARG46       0.2205
     44  NE       -18.0190   -1.6790   29.9140 N.pl3  46  ARG46      -0.0865
     45  CZ       -17.5090   -0.5390   29.4150 C.cat  46  ARG46       0.5346
     46  NH1      -18.2050    0.5980   29.4060 N.pl3  46  ARG46       0.1354
     47  NH2      -16.2520   -0.5410   28.9740 N.pl3  46  ARG46       0.1354
     48  N        -23.9360    1.1430   35.7470 N.3   116  ASP116     -0.1225
     49  CA       -23.0180    2.2510   36.0110 C.3   116  ASP116      0.1805
     50  C        -22.4170    2.7480   34.7150 C.2   116  ASP116      0.2597
     51  O        -22.2490    1.9800   33.7880 O.2   116  ASP116     -0.2718
     52  CB       -21.9230    1.8410   37.0110 C.3   116  ASP116      0.1424
     53  CG       -21.1550    0.5730   36.6180 C.2   116  ASP116      0.3668
     54  OD1      -21.7560   -0.4130   36.1370 O.co2 116  ASP116     -0.2456
     55  OD2      -19.9290    0.5610   36.8630 O.co2 116  ASP116     -0.2456
     56  N        -22.1210    4.0410   34.6630 N.am  117  ASP117     -0.1974
     57  CA       -21.3920    4.6820   33.5620 C.3   117  ASP117      0.1709
     58  C        -22.0450    4.5160   32.1840 C.2   117  ASP117      0.2293
     59  O        -21.3800    4.2410   31.1740 O.2   117  ASP117     -0.2864
     60  CB       -19.9200    4.2150   33.5130 C.3   117  ASP117      0.1436
     61  CG       -19.1050    4.6320   34.7280 C.2   117  ASP117      0.3671
     62  OD1      -19.6180    5.3860   35.6190 O.co2 117  ASP117     -0.2456
     63  OD2      -17.9390    4.1720   34.7600 O.co2 117  ASP117     -0.2456
     64  N        -26.3710   -2.5540   40.3480 N.3   157  CYS157     -0.1235
     65  CA       -25.6380   -1.2850   40.4310 C.3   157  CYS157      0.1677
     66  C        -26.4770   -0.2470   39.7340 C.2   157  CYS157      0.2270
     67  O        -26.6790   -0.3420   38.5180 O.2   157  CYS157     -0.2867
     68  CB       -24.2320   -1.3240   39.8170 C.3   157  CYS157      0.0956
     69  SG       -23.3320    0.2120   40.1810 S.3   157  CYS157     -0.0801
     70  N        -25.0490    5.9290   41.2920 N.3   161  TYR161     -0.1241
     71  CA       -24.4070    5.0290   42.2540 C.3   161  TYR161      0.1605
     72  C        -23.5920    5.6820   43.3510 C.2   161  TYR161      0.2264
     73  O        -22.9010    4.9960   44.1040 O.2   161  TYR161     -0.2867
     74  CB       -23.5370    3.9920   41.5470 C.3   161  TYR161      0.0534
     75  CG       -22.4210    4.5320   40.6840 C.ar  161  TYR161     -0.0201
     76  CD1      -21.2090    4.9410   41.2350 C.ar  161  TYR161     -0.0009
     77  CD2      -22.5540    4.5770   39.2940 C.ar  161  TYR161     -0.0009
     78  CE1      -20.1660    5.3900   40.4210 C.ar  161  TYR161      0.0417
     79  CE2      -21.5260    5.0240   38.4860 C.ar  161  TYR161      0.0417
     80  CZ       -20.3340    5.4210   39.0420 C.ar  161  TYR161      0.1957
     81  OH       -19.3430    5.8740   38.2190 O.3   161  TYR161     -0.2866
     82  N        -23.6860   11.6910   41.8500 N.3   165  PHE165     -0.1241
     83  CA       -24.3850   11.2750   40.6220 C.3   165  PHE165      0.1605
     84  C        -25.9280   11.3650   40.7570 C.2   165  PHE165      0.2264
     85  O        -26.6430   11.2560   39.7530 O.2   165  PHE165     -0.2867
     86  CB       -23.9600    9.8500   40.2160 C.3   165  PHE165      0.0534
     87  CG       -22.6360    9.7710   39.4580 C.ar  165  PHE165     -0.0203
     88  CD1      -21.5850   10.6930   39.6790 C.ar  165  PHE165     -0.0042
     89  CD2      -22.4310    8.7360   38.5290 C.ar  165  PHE165     -0.0042
     90  CE1      -20.3940   10.5880   38.9650 C.ar  165  PHE165     -0.0003
     91  CE2      -21.2410    8.6270   37.8180 C.ar  165  PHE165     -0.0003
     92  CZ       -20.2220    9.5520   38.0360 C.ar  165  PHE165     -0.0000
     93  N        -21.1520    3.5770   45.9470 N.3   192  THR192     -0.1218
     94  CA       -19.7250    3.8950   46.1320 C.3   192  THR192      0.1862
     95  C        -19.4470    4.9600   47.1850 C.2   192  THR192      0.2287
     96  O        -18.2840    5.2780   47.4400 O.2   192  THR192     -0.2866
     97  CB       -19.0550    4.3200   44.8100 C.3   192  THR192      0.1770
     98  OG1      -19.4980    5.6170   44.4210 O.3   192  THR192     -0.2211
     99  CG2      -19.3820    3.3450   43.7000 C.3   192  THR192      0.0375
    100  N        -17.6470    9.0130   43.5530 N.3   196  VAL196     -0.1231
    101  CA       -17.0820    7.8580   42.8790 C.3   196  VAL196      0.1692
    102  C        -15.9230    7.2840   43.7040 C.2   196  VAL196      0.2591
    103  O        -15.9100    6.0800   44.0620 O.2   196  VAL196     -0.2718
    104  CB       -16.5810    8.2120   41.4740 C.3   196  VAL196      0.0266
    105  CG1      -16.0030    6.9830   40.7750 C.3   196  VAL196      0.0020
    106  CG2      -17.7140    8.8260   40.6530 C.3   196  VAL196      0.0020
    107  N        -14.9590    8.1520   44.0070 N.am  197  VAL197     -0.1980
    108  CA       -13.8400    7.8020   44.8550 C.3   197  VAL197      0.1595
    109  C        -14.0330    8.5640   46.1460 C.2   197  VAL197      0.2287
    110  O        -13.6740    9.7310   46.2620 O.2   197  VAL197     -0.2864
    111  CB       -12.4820    8.1280   44.1930 C.3   197  VAL197      0.0276
    112  CG1      -11.3330    7.5990   45.0480 C.3   197  VAL197      0.0022
    113  CG2      -12.4100    7.5110   42.8090 C.3   197  VAL197      0.0022
    114  N        -19.5420   -0.6490   46.9220 N.3   220  TRP220     -0.1241
    115  CA       -18.5680   -0.8790   45.8680 C.3   220  TRP220      0.1605
    116  C        -17.5340    0.2090   46.1050 C.2   220  TRP220      0.2264
    117  O        -17.7810    1.3760   45.8130 O.2   220  TRP220     -0.2867
    118  CB       -19.2400   -0.7290   44.5040 C.3   220  TRP220      0.0550
    119  CG       -18.3560   -0.6720   43.2900 C.ar  220  TRP220      0.0003
    120  CD1      -17.2720    0.1290   43.0730 C.ar  220  TRP220      0.0946
    121  CD2      -18.5300   -1.4180   42.0860 C.ar  220  TRP220      0.0152
    122  NE1      -16.7440   -0.0970   41.8210 N.ar  220  TRP220     -0.2442
    123  CE2      -17.5110   -1.0380   41.1950 C.ar  220  TRP220      0.0810
    124  CE3      -19.4420   -2.3840   41.6790 C.ar  220  TRP220      0.0012
    125  CZ2      -17.3900   -1.5840   39.9300 C.ar  220  TRP220      0.0191
    126  CZ3      -19.3320   -2.9180   40.4260 C.ar  220  TRP220      0.0001
    127  CH2      -18.3210   -2.5040   39.5520 C.ar  220  TRP220      0.0015
    128  N        -14.2130    2.3450   45.6630 N.3   222  ASN222     -0.1240
    129  CA       -13.2110    2.7280   44.6860 C.3   222  ASN222      0.1653
    130  C        -11.9780    3.3800   45.3240 C.2   222  ASN222      0.2266
    131  O        -11.1580    3.9190   44.6150 O.2   222  ASN222     -0.2867
    132  CB       -13.8300    3.6660   43.6460 C.3   222  ASN222      0.1155
    133  CG       -14.7600    2.9540   42.6960 C.2   222  ASN222      0.2627
    134  OD1      -14.4200    1.9280   42.1650 O.2   222  ASN222     -0.2716
    135  ND2      -15.9220    3.5250   42.4520 N.am  222  ASN222     -0.0877
    136  N         -8.8670    2.2160   43.5450 N.3   225  ALA225     -0.1245
    137  CA        -8.9330    2.1100   42.0960 C.3   225  ALA225      0.1562
    138  C         -7.9380    3.0780   41.4980 C.2   225  ALA225      0.2260
    139  O         -7.7910    4.1970   42.0100 O.2   225  ALA225     -0.2867
    140  CB       -10.3290    2.4520   41.6220 C.3   225  ALA225      0.0290
    141  N         -7.5240    3.1380   37.7080 N.3   227  ASP227     -0.1225
    142  CA        -7.7140    3.1870   36.2430 C.3   227  ASP227      0.1805
    143  C         -7.9180    4.5880   35.7020 C.2   227  ASP227      0.2597
    144  O         -7.7260    4.8290   34.5190 O.2   227  ASP227     -0.2718
    145  CB        -8.8670    2.2660   35.7660 C.3   227  ASP227      0.1424
    146  CG       -10.1830    2.4670   36.5310 C.2   227  ASP227      0.3668
    147  OD1      -10.2580    3.3590   37.4030 O.co2 227  ASP227     -0.2456
    148  OD2      -11.1410    1.6880   36.2610 O.co2 227  ASP227     -0.2456
    149  N         -8.3270    5.5110   36.5640 N.am  228  TYR228     -0.1976
    150  CA        -8.6250    6.8800   36.1420 C.3   228  TYR228      0.1639
    151  C         -7.4000    7.8040   35.8700 C.2   228  TYR228      0.2290
    152  O         -7.5390    8.8830   35.3150 O.2   228  TYR228     -0.2864
    153  CB        -9.5480    7.5420   37.1490 C.3   228  TYR228      0.0560
    154  CG        -9.0620    7.5990   38.5850 C.ar  228  TYR228     -0.0198
    155  CD1       -8.1360    8.5530   39.0070 C.ar  228  TYR228     -0.0009
    156  CD2       -9.5820    6.7460   39.5420 C.ar  228  TYR228     -0.0009
    157  CE1       -7.7250    8.6190   40.3400 C.ar  228  TYR228      0.0417
    158  CE2       -9.1650    6.8010   40.8750 C.ar  228  TYR228      0.0417
    159  CZ        -8.2400    7.7470   41.2630 C.ar  228  TYR228      0.1957
    160  OH        -7.8520    7.7850   42.5690 O.3   228  TYR228     -0.2866
    161  N        -12.8810   -2.2970   44.7290 N.3   255  ASN255     -0.1240
    162  CA       -12.4830   -2.2790   43.3070 C.3   255  ASN255      0.1653
    163  C        -11.0960   -1.6430   43.3270 C.2   255  ASN255      0.2266
    164  O        -10.9970   -0.4200   43.4190 O.2   255  ASN255     -0.2867
    165  CB       -13.4640   -1.4030   42.5210 C.3   255  ASN255      0.1155
    166  CG       -13.1800   -1.3650   41.0170 C.2   255  ASN255      0.2627
    167  OD1      -12.8710   -2.3820   40.3830 O.2   255  ASN255     -0.2716
    168  ND2      -13.3130   -0.1720   40.4320 N.am  255  ASN255     -0.0877
@<TRIPOS>BOND
     1    40    39    2
     2    39    38    1
     3    38    37    1
     4    38    41    1
     5    47    45    1
     6    46    45    1
     7    45    44    2
     8    41    42    1
     9    42    43    1
    10    31    30    2
    11    44    43    1
    12    30    29    1
    13    59    58    2
    14    24    22   ar
    15    24    26   ar
    16    22    21   ar
    17    58    57    1
    18    29    32    1
    19    29    28    1
    20    32    33    1
    21    27    26    1
    22    26    25   ar
    23    20    21    1
    24    20    17    1
    25    21    23   ar
    26    18    17    1
    27    18    19    2
    28    17    16    1
    29    34    33    1
    30    34    35    1
    31    60    57    1
    32    60    61    1
    33    57    56    1
    34    25    23   ar
    35    51    50    2
    36     8     7    2
    37   144   143    2
    38    16     7   am
    39    35    36    1
    40    56    50   am
    41    50    49    1
    42    61    63   ar
    43    61    62   ar
    44     7     6    1
    45   152   151    2
    46   143   142    1
    47   143   149   am
    48    48    49    1
    49   145   142    1
    50   145   146    1
    51   151   150    1
    52    49    52    1
    53    13    11   ar
    54    13    15   ar
    55    11    10   ar
    56    54    53   ar
    57   150   149    1
    58   150   153    1
    59   142   141    1
    60   148   146   ar
    61   146   147   ar
    62     6     5    1
    63     6     9    1
    64    53    55   ar
    65    53    52    1
    66     5     3   am
    67   153   154    1
    68    15    14   ar
    69     4     3    2
    70    10     9    1
    71    10    12   ar
    72     3     2    1
    73    91    92   ar
    74    91    89   ar
    75    92    90   ar
    76    81    80    1
    77     2     1    1
    78    14    12   ar
    79    79    80   ar
    80    79    77   ar
    81    67    66    2
    82    89    87   ar
    83   154   155   ar
    84   154   156   ar
    85    90    88   ar
    86   155   157   ar
    87    80    78   ar
    88    77    75   ar
    89    87    88   ar
    90    87    86    1
    91   156   158   ar
    92   127   125   ar
    93   127   126   ar
    94    66    65    1
    95    85    84    2
    96    68    69    1
    97    68    65    1
    98   125   123   ar
    99    86    83    1
   100   157   159   ar
   101    64    65    1
   102   167   166    2
   103    78    76   ar
   104   126   124   ar
   105   168   166   am
   106    83    84    1
   107    83    82    1
   108   106   104    1
   109    75    76   ar
   110    75    74    1
   111   105   104    1
   112   158   159   ar
   113   166   165    1
   114   123   122   ar
   115   123   121   ar
   116   159   160    1
   117    70    71    1
   118   104   101    1
   119   138   139    2
   120   138   137    1
   121    74    71    1
   122   140   137    1
   123   124   121   ar
   124   122   120   ar
   125   121   119   ar
   126   137   136    1
   127   134   133    2
   128    71    72    1
   129   135   133   am
   130   165   162    1
   131   133   132    1
   132   113   111    1
   133   101   100    1
   134   101   102    1
   135   120   119   ar
   136   119   118    1
   137   162   163    1
   138   162   161    1
   139   163   164    2
   140    72    73    2
   141   132   129    1
   142    99    97    1
   143   102   107   am
   144   102   103    2
   145   107   108    1
   146   111   108    1
   147   111   112    1
   148    98    97    1
   149   118   115    1
   150   131   130    2
   151   129   130    1
   152   129   128    1
   153    97    94    1
   154   108   109    1
   155   117   116    2
   156   115   116    1
   157   115   114    1
   158    93    94    1
   159    94    95    1
   160   109   110    2
   161    95    96    2
