@<TRIPOS>MOLECULE
tmp/5m7wA00.pdb
 142 140 0 0 0
SMALL
GASTEIGER

@<TRIPOS>ATOM
      1  N         49.8250   85.2500   -6.4680 N.3    17  PHE17      -0.1241
      2  CA        49.4400   86.5110   -7.0860 C.3    17  PHE17       0.1605
      3  C         48.0880   86.8800   -6.5090 C.2    17  PHE17       0.2264
      4  O         47.1850   86.0370   -6.4650 O.2    17  PHE17      -0.2867
      5  CB        49.3450   86.3920   -8.6230 C.3    17  PHE17       0.0534
      6  CG        48.7090   87.5990   -9.3010 C.ar   17  PHE17      -0.0203
      7  CD1       47.3240   87.7070   -9.4220 C.ar   17  PHE17      -0.0042
      8  CD2       49.5000   88.6190   -9.8210 C.ar   17  PHE17      -0.0042
      9  CE1       46.7400   88.8080  -10.0240 C.ar   17  PHE17      -0.0003
     10  CE2       48.9150   89.7320  -10.4400 C.ar   17  PHE17      -0.0003
     11  CZ        47.5320   89.8340  -10.5310 C.ar   17  PHE17      -0.0000
     12  N         45.1720   89.8300   -7.0740 N.3    19  ASN19      -0.1240
     13  CA        44.7260   90.9910   -7.8190 C.3    19  ASN19       0.1653
     14  C         44.5350   92.1650   -6.8690 C.2    19  ASN19       0.2266
     15  O         43.6950   92.1280   -5.9640 O.2    19  ASN19      -0.2867
     16  CB        43.4230   90.6720   -8.5600 C.3    19  ASN19       0.1155
     17  CG        43.1020   91.6980   -9.6140 C.2    19  ASN19       0.2627
     18  OD1       44.0060   92.2860  -10.2160 O.2    19  ASN19      -0.2716
     19  ND2       41.8130   91.9330   -9.8420 N.am   19  ASN19      -0.0877
     20  N         50.8750   94.8280  -12.1390 N.3    25  TRP25      -0.1227
     21  CA        50.7010   93.3800  -12.1850 C.3    25  TRP25       0.1737
     22  C         51.9120   92.6700  -11.5910 C.2    25  TRP25       0.2595
     23  O         51.7650   91.7380  -10.7930 O.2    25  TRP25      -0.2718
     24  CB        50.4940   92.9210  -13.6300 C.3    25  TRP25       0.0564
     25  CG        50.3060   91.4640  -13.7340 C.ar   25  TRP25       0.0003
     26  CD1       49.1310   90.7660  -13.6040 C.ar   25  TRP25       0.0946
     27  CD2       51.3210   90.5010  -13.9450 C.ar   25  TRP25       0.0152
     28  NE1       49.3620   89.4170  -13.7430 N.ar   25  TRP25      -0.2442
     29  CE2       50.7000   89.2270  -13.9600 C.ar   25  TRP25       0.0810
     30  CE3       52.6930   90.5810  -14.1300 C.ar   25  TRP25       0.0012
     31  CZ2       51.4160   88.0530  -14.1380 C.ar   25  TRP25       0.0191
     32  CZ3       53.4050   89.4040  -14.3200 C.ar   25  TRP25       0.0001
     33  CH2       52.7610   88.1610  -14.3210 C.ar   25  TRP25       0.0015
     34  N         53.1280   93.1020  -11.9790 N.am   26  GLN26      -0.1979
     35  CA        54.3440   92.4670  -11.4730 C.3    26  GLN26       0.1601
     36  C         54.4860   92.6450   -9.9640 C.2    26  GLN26       0.2287
     37  O         54.9650   91.7400   -9.2740 O.2    26  GLN26      -0.2864
     38  CB        55.5840   93.0140  -12.1940 C.3    26  GLN26       0.0394
     39  CG        55.5910   92.6280  -13.6820 C.3    26  GLN26       0.0908
     40  CD        56.6400   93.3630  -14.4990 C.2    26  GLN26       0.2608
     41  OE1       57.0120   94.4740  -14.1100 O.2    26  GLN26      -0.2717
     42  NE2       57.0910   92.8130  -15.6120 N.am   26  GLN26      -0.0878
     43  N         57.3210   83.2960  -13.0010 N.3    69  PRO69      -0.2102
     44  CA        56.1010   82.9340  -13.7310 C.3    69  PRO69       0.1504
     45  C         55.5850   84.0910  -14.5750 C.2    69  PRO69       0.2576
     46  O         54.4360   84.5220  -14.4390 O.2    69  PRO69      -0.2718
     47  CB        55.1370   82.5370  -12.5990 C.3    69  PRO69       0.0282
     48  CG        55.5840   83.3190  -11.4200 C.3    69  PRO69       0.0208
     49  CD        57.0240   83.7500  -11.6310 C.3    69  PRO69       0.0893
     50  N         56.4430   84.6200  -15.4490 N.am   70  MET70      -0.1966
     51  CA        56.0270   85.7230  -16.3090 C.3    70  MET70       0.1736
     52  C         56.5840   85.5450  -17.7130 C.2    70  MET70       0.2616
     53  O         57.6500   84.9570  -17.9100 O.2    70  MET70      -0.2715
     54  CB        56.4400   87.0970  -15.7220 C.3    70  MET70       0.0427
     55  CG        57.8790   87.1870  -15.2660 C.3    70  MET70       0.0599
     56  SD        58.4020   88.8760  -14.8690 S.3    70  MET70      -0.1393
     57  CE        57.3620   89.3040  -13.5070 C.3    70  MET70       0.0692
     58  N         55.8160   86.0440  -18.6940 N.am   71  TRP71      -0.1960
     59  CA        56.2060   85.9420  -20.0990 C.3    71  TRP71       0.1771
     60  C         57.6260   86.4290  -20.3350 C.2    71  TRP71       0.2619
     61  O         58.3180   85.9100  -21.2160 O.2    71  TRP71      -0.2715
     62  CB        55.2550   86.7490  -20.9970 C.3    71  TRP71       0.0590
     63  CG        53.7930   86.4500  -20.8030 C.ar   71  TRP71       0.0006
     64  CD1       53.2100   85.2240  -20.5630 C.ar   71  TRP71       0.0946
     65  CD2       52.7140   87.3860  -20.8990 C.ar   71  TRP71       0.0152
     66  NE1       51.8420   85.3580  -20.4650 N.ar   71  TRP71      -0.2442
     67  CE2       51.5120   86.6670  -20.6800 C.ar   71  TRP71       0.0810
     68  CE3       52.6440   88.7620  -21.1460 C.ar   71  TRP71       0.0012
     69  CZ2       50.2750   87.2790  -20.6900 C.ar   71  TRP71       0.0191
     70  CZ3       51.4080   89.3670  -21.1570 C.ar   71  TRP71       0.0001
     71  CH2       50.2380   88.6250  -20.9310 C.ar   71  TRP71       0.0015
     72  N         58.0640   87.4460  -19.5960 N.am   72  GLU72      -0.1977
     73  CA        59.3140   88.1060  -19.9460 C.3    72  GLU72       0.1602
     74  C         60.5370   87.3320  -19.4990 C.2    72  GLU72       0.2287
     75  O         61.6420   87.7200  -19.8670 O.2    72  GLU72      -0.2864
     76  CB        59.3700   89.5490  -19.4040 C.3    72  GLU72       0.0415
     77  CG        58.2930   90.4730  -19.9930 C.3    72  GLU72       0.1163
     78  CD        56.9520   90.4200  -19.2690 C.2    72  GLU72       0.3649
     79  OE1       56.1770   91.3950  -19.4090 O.co2  72  GLU72      -0.2457
     80  OE2       56.6180   89.3920  -18.6500 O.co2  72  GLU72      -0.2457
     81  N         51.7150   77.9940  -23.5440 N.3    81  ARG81      -0.1245
     82  CA        51.0310   77.2890  -22.4640 C.3    81  ARG81       0.1563
     83  C         49.9550   76.3610  -23.0100 C.2    81  ARG81       0.2260
     84  O         49.2180   76.7210  -23.9340 O.2    81  ARG81      -0.2867
     85  CB        50.4120   78.2610  -21.4470 C.3    81  ARG81       0.0307
     86  CG        49.2220   79.0820  -21.9810 C.3    81  ARG81       0.0489
     87  CD        48.6510   80.0230  -20.9250 C.3    81  ARG81       0.2205
     88  NE        47.5010   80.7800  -21.4360 N.pl3  81  ARG81      -0.0865
     89  CZ        46.7960   81.6560  -20.7230 C.cat  81  ARG81       0.5346
     90  NH1       47.1000   81.8910  -19.4470 N.pl3  81  ARG81       0.1354
     91  NH2       45.7630   82.2830  -21.2830 N.pl3  81  ARG81       0.1354
     92  N         44.7390   80.0900  -12.4790 N.3   124  ASN124     -0.1240
     93  CA        44.0550   81.3520  -12.2500 C.3   124  ASN124      0.1653
     94  C         42.6710   81.0690  -11.6840 C.2   124  ASN124      0.2266
     95  O         41.8720   80.3540  -12.3000 O.2   124  ASN124     -0.2867
     96  CB        43.9330   82.1930  -13.5240 C.3   124  ASN124      0.1155
     97  CG        45.2650   82.3300  -14.2920 C.2   124  ASN124      0.2627
     98  OD1       46.1430   83.1130  -13.9080 O.2   124  ASN124     -0.2716
     99  ND2       45.3500   81.6740  -15.4440 N.am  124  ASN124     -0.0877
    100  N         39.2750   82.7010  -11.0940 N.3   126  ARG126     -0.1245
    101  CA        38.5610   83.8360  -11.6330 C.3   126  ARG126      0.1563
    102  C         37.0610   83.6050  -11.5770 C.2   126  ARG126      0.2260
    103  O         36.5750   82.4890  -11.7760 O.2   126  ARG126     -0.2867
    104  CB        38.9470   84.1250  -13.0960 C.3   126  ARG126      0.0307
    105  CG        40.4290   84.2850  -13.3420 C.3   126  ARG126      0.0489
    106  CD        40.8870   85.6170  -12.8000 C.3   126  ARG126      0.2205
    107  NE        42.2530   85.9110  -13.2140 N.pl3 126  ARG126     -0.0865
    108  CZ        43.3110   85.6670  -12.4470 C.cat 126  ARG126      0.5346
    109  NH1       43.1480   85.1140  -11.2430 N.pl3 126  ARG126      0.1354
    110  NH2       44.5260   85.9530  -12.8900 N.pl3 126  ARG126      0.1354
    111  N         34.8910   84.6020  -13.7130 N.3   128  LYS128     -0.1245
    112  CA        34.3630   84.2690  -15.0290 C.3   128  LYS128      0.1561
    113  C         34.6610   82.8360  -15.4410 C.2   128  LYS128      0.2260
    114  O         34.1180   82.3730  -16.4520 O.2   128  LYS128     -0.2867
    115  CB        34.9250   85.2350  -16.0780 C.3   128  LYS128      0.0271
    116  CG        36.3550   85.1030  -16.3450 C.3   128  LYS128      0.0035
    117  CD        36.8350   86.2060  -17.3080 C.3   128  LYS128      0.0206
    118  CE        38.2150   86.1770  -17.8340 C.3   128  LYS128      0.1093
    119  NZ        39.2630   85.9820  -16.8820 N.3   128  LYS128     -0.1314
    120  N         41.2600   78.8480  -14.7360 N.3   131  LYS131     -0.1245
    121  CA        42.1810   78.3270  -15.7340 C.3   131  LYS131      0.1561
    122  C         43.3230   77.5900  -15.0450 C.2   131  LYS131      0.2260
    123  O         43.7870   77.9960  -13.9800 O.2   131  LYS131     -0.2867
    124  CB        42.7960   79.4470  -16.5990 C.3   131  LYS131      0.0271
    125  CG        41.8400   80.4520  -17.1850 C.3   131  LYS131      0.0035
    126  CD        42.4770   81.0700  -18.4090 C.3   131  LYS131      0.0206
    127  CE        41.5450   81.9960  -19.1370 C.3   131  LYS131      0.1093
    128  NZ        42.0950   83.3900  -19.0510 N.3   131  LYS131     -0.1314
    129  N         53.2350   75.7260  -18.6020 N.3   135  TRP135     -0.1241
    130  CA        54.0750   76.5970  -19.4240 C.3   135  TRP135      0.1605
    131  C         55.3310   75.8640  -19.8920 C.2   135  TRP135      0.2264
    132  O         56.0370   75.2560  -19.0830 O.2   135  TRP135     -0.2867
    133  CB        54.5100   77.8450  -18.6560 C.3   135  TRP135      0.0550
    134  CG        53.4620   78.8570  -18.3860 C.ar  135  TRP135      0.0003
    135  CD1       52.1080   78.6490  -18.2660 C.ar  135  TRP135      0.0946
    136  CD2       53.6710   80.2720  -18.2280 C.ar  135  TRP135      0.0152
    137  NE1       51.4700   79.8500  -18.0250 N.ar  135  TRP135     -0.2442
    138  CE2       52.4040   80.8610  -18.0020 C.ar  135  TRP135      0.0810
    139  CE3       54.8090   81.0990  -18.2500 C.ar  135  TRP135      0.0012
    140  CZ2       52.2440   82.2500  -17.7990 C.ar  135  TRP135      0.0191
    141  CZ3       54.6470   82.4800  -18.0520 C.ar  135  TRP135      0.0001
    142  CH2       53.3700   83.0330  -17.8280 C.ar  135  TRP135      0.0015
@<TRIPOS>BOND
     1    84    83    2
     2    81    82    1
     3    83    82    1
     4    82    85    1
     5    86    85    1
     6    86    87    1
     7    88    87    1
     8    88    89    2
     9    91    89    1
    10    61    60    2
    11    70    68   ar
    12    70    71   ar
    13    68    65   ar
    14    62    63    1
    15    62    59    1
    16    71    69   ar
    17    65    63   ar
    18    65    67   ar
    19    63    64   ar
    20    89    90    1
    21    69    67   ar
    22    67    66   ar
    23    64    66   ar
    24    60    59    1
    25    60    72   am
    26    59    58    1
    27    77    76    1
    28    77    78    1
    29    73    72    1
    30    73    74    1
    31    73    76    1
    32   131   130    1
    33   131   132    2
    34    75    74    2
    35   130   133    1
    36   130   129    1
    37    79    78   ar
    38    78    80   ar
    39   127   128    1
    40   127   126    1
    41    58    52   am
    42   133   134    1
    43   126   125    1
    44   134   135   ar
    45   134   136   ar
    46   135   137   ar
    47   139   136   ar
    48   139   141   ar
    49   136   138   ar
    50   141   142   ar
    51   137   138   ar
    52   138   140   ar
    53    53    52    2
    54   118   117    1
    55   118   119    1
    56   142   140   ar
    57    52    51    1
    58   117   116    1
    59   125   124    1
    60   124   121    1
    61   114   113    2
    62   116   115    1
    63    51    54    1
    64    51    50    1
    65   115   112    1
    66   121   122    1
    67   121   120    1
    68    54    55    1
    69    42    40   am
    70    50    45   am
    71    99    97   am
    72   113   112    1
    73    55    56    1
    74   122   123    2
    75   112   111    1
    76    56    57    1
    77    45    46    2
    78    45    44    1
    79    40    41    2
    80    40    39    1
    81    33    32   ar
    82    33    31   ar
    83    32    30   ar
    84    97    98    2
    85    97    96    1
    86    31    29   ar
    87    30    27   ar
    88    29    27   ar
    89    29    28   ar
    90    27    25   ar
    91    28    26   ar
    92    25    24    1
    93    25    26   ar
    94    44    43    1
    95    44    47    1
    96    39    38    1
    97    24    21    1
    98    96    93    1
    99   105   104    1
   100   105   106    1
   101   107   106    1
   102   107   108    2
   103   104   101    1
   104    43    49    1
   105   110   108    1
   106    47    48    1
   107    92    93    1
   108   108   109    1
   109    95    94    2
   110    93    94    1
   111    38    35    1
   112    21    20    1
   113    21    22    1
   114    34    22   am
   115    34    35    1
   116   103   102    2
   117   101   102    1
   118   101   100    1
   119    49    48    1
   120    22    23    2
   121    35    36    1
   122    11    10   ar
   123    11     9   ar
   124    10     8   ar
   125    18    17    2
   126     9     7   ar
   127    36    37    2
   128    19    17   am
   129     8     6   ar
   130    17    16    1
   131     7     6   ar
   132     6     5    1
   133     5     2    1
   134    16    13    1
   135    13    12    1
   136    13    14    1
   137     2     3    1
   138     2     1    1
   139    14    15    2
   140     3     4    2
