@<TRIPOS>MOLECULE
tmp/5m81D00.pdb
 174 171 0 0 0
SMALL
GASTEIGER

@<TRIPOS>ATOM
      1  N        -65.7490  -70.5370   79.6480 N.3    17  PHE17      -0.1241
      2  CA       -66.1970  -71.7830   80.2530 C.3    17  PHE17       0.1605
      3  C        -67.4810  -72.2140   79.5630 C.2    17  PHE17       0.2264
      4  O        -68.4360  -71.4360   79.4930 O.2    17  PHE17      -0.2867
      5  CB       -66.4310  -71.6160   81.7550 C.3    17  PHE17       0.0534
      6  CG       -66.9540  -72.8510   82.4590 C.ar   17  PHE17      -0.0203
      7  CD1      -66.1500  -73.8970   82.8420 C.ar   17  PHE17      -0.0042
      8  CD2      -68.3340  -72.9750   82.7420 C.ar   17  PHE17      -0.0042
      9  CE1      -66.6390  -75.0430   83.4300 C.ar   17  PHE17      -0.0003
     10  CE2      -68.8310  -74.0970   83.3780 C.ar   17  PHE17      -0.0003
     11  CZ       -68.0090  -75.1440   83.7340 C.ar   17  PHE17      -0.0000
     12  N        -70.4900  -75.0910   79.4480 N.3    19  ASN19      -0.1225
     13  CA       -71.1050  -76.1630   80.2170 C.3    19  ASN19       0.1785
     14  C        -71.1770  -77.4340   79.3810 C.2    19  ASN19       0.2597
     15  O        -71.7190  -77.4340   78.2720 O.2    19  ASN19      -0.2718
     16  CB       -72.5020  -75.7530   80.6820 C.3    19  ASN19       0.1169
     17  CG       -73.1550  -76.7680   81.5880 C.2    19  ASN19       0.2627
     18  OD1      -72.6630  -77.8870   81.7940 O.2    19  ASN19      -0.2716
     19  ND2      -74.3320  -76.4140   82.0450 N.am   19  ASN19      -0.0877
     20  N        -70.6230  -78.5170   79.9160 N.am   20  ASP20      -0.1960
     21  CA       -70.6540  -79.8100   79.2340 C.3    20  ASP20       0.1840
     22  C        -70.4060  -80.8820   80.2850 C.2    20  ASP20       0.2621
     23  O        -69.2810  -81.0170   80.7730 O.2    20  ASP20      -0.2715
     24  CB       -69.6110  -79.8660   78.1220 C.3    20  ASP20       0.1450
     25  CG       -69.6190  -81.1870   77.3760 C.2    20  ASP20       0.3671
     26  OD1      -68.7290  -81.3940   76.5290 O.co2  20  ASP20      -0.2456
     27  OD2      -70.5070  -82.0220   77.6330 O.co2  20  ASP20      -0.2456
     28  N        -71.4510  -81.6390   80.6250 N.am   21  LYS21      -0.1977
     29  CA       -71.3490  -82.6630   81.6570 C.3    21  LYS21       0.1596
     30  C        -70.5120  -83.8610   81.2290 C.2    21  LYS21       0.2287
     31  O        -70.1140  -84.6540   82.0900 O.2    21  LYS21      -0.2864
     32  CB       -72.7450  -83.1340   82.0670 C.3    21  LYS21       0.0298
     33  CG       -73.7230  -82.1100   82.6350 C.3    21  LYS21       0.0038
     34  CD       -73.1180  -81.6500   83.9110 C.3    21  LYS21       0.0206
     35  CE       -74.0820  -80.4880   84.2570 C.3    21  LYS21       0.1093
     36  NZ       -73.2880  -79.4510   84.9350 N.3    21  LYS21      -0.1314
     37  N        -67.5160  -83.9100   80.3420 N.3    23  LYS23      -0.1231
     38  CA       -66.0980  -83.6340   80.5240 C.3    23  LYS23       0.1693
     39  C        -65.8750  -83.0220   81.9000 C.2    23  LYS23       0.2593
     40  O        -66.8030  -82.5080   82.5310 O.2    23  LYS23      -0.2718
     41  CB       -65.5600  -82.7000   79.4310 C.3    23  LYS23       0.0285
     42  CG       -65.3920  -83.3600   78.0910 C.3    23  LYS23       0.0035
     43  CD       -65.0300  -82.3220   77.0440 C.3    23  LYS23       0.0206
     44  CE       -64.6180  -82.9840   75.7510 C.3    23  LYS23       0.1093
     45  NZ       -64.5740  -81.9900   74.6420 N.3    23  LYS23      -0.1314
     46  N        -64.6250  -83.0860   82.3580 N.am   24  THR24      -0.1939
     47  CA       -64.2460  -82.4770   83.6240 C.3    24  THR24       0.2028
     48  C        -64.3160  -80.9540   83.5290 C.2    24  THR24       0.2642
     49  O        -64.3610  -80.3710   82.4410 O.2    24  THR24      -0.2714
     50  CB       -62.8340  -82.9080   84.0320 C.3    24  THR24       0.1808
     51  OG1      -61.9300  -82.4920   83.0200 O.3    24  THR24      -0.2208
     52  CG2      -62.7380  -84.4050   84.2520 C.3    24  THR24       0.0379
     53  N        -64.3240  -80.3060   84.6980 N.am   25  TRP25      -0.1973
     54  CA       -64.4030  -78.8480   84.7390 C.3    25  TRP25       0.1640
     55  C        -63.1990  -78.2150   84.0560 C.2    25  TRP25       0.2290
     56  O        -63.3460  -77.3050   83.2330 O.2    25  TRP25      -0.2864
     57  CB       -64.5170  -78.3690   86.1870 C.3    25  TRP25       0.0576
     58  CG       -65.7860  -78.7050   86.8840 C.ar   25  TRP25       0.0006
     59  CD1      -66.7990  -79.5080   86.4490 C.ar   25  TRP25       0.0946
     60  CD2      -66.2300  -78.2070   88.1240 C.ar   25  TRP25       0.0152
     61  NE1      -67.8080  -79.5640   87.3860 N.ar   25  TRP25      -0.2442
     62  CE2      -67.4840  -78.7480   88.4120 C.ar   25  TRP25       0.0810
     63  CE3      -65.6620  -77.2640   88.9860 C.ar   25  TRP25       0.0012
     64  CZ2      -68.1640  -78.4520   89.5650 C.ar   25  TRP25       0.0191
     65  CZ3      -66.3610  -76.9860   90.1380 C.ar   25  TRP25       0.0001
     66  CH2      -67.5900  -77.5360   90.3960 C.ar   25  TRP25       0.0015
     67  N        -63.3530  -78.0510   80.2500 N.3    28  ASN28      -0.1240
     68  CA       -64.2940  -77.1070   79.6530 C.3    28  ASN28       0.1653
     69  C        -63.8390  -75.6570   79.7510 C.2    28  ASN28       0.2266
     70  O        -64.4640  -74.7840   79.1370 O.2    28  ASN28      -0.2867
     71  CB       -65.6780  -77.2430   80.3040 C.3    28  ASN28       0.1155
     72  CG       -66.2760  -78.6220   80.1300 C.2    28  ASN28       0.2627
     73  OD1      -67.0290  -79.0950   80.9830 O.2    28  ASN28      -0.2716
     74  ND2      -65.9510  -79.2750   79.0180 N.am   28  ASN28      -0.0877
     75  N        -58.1450  -68.7480   86.1490 N.3    69  PRO69      -0.2102
     76  CA       -59.4340  -68.3670   86.7410 C.3    69  PRO69       0.1504
     77  C        -60.0290  -69.4430   87.6500 C.2    69  PRO69       0.2576
     78  O        -61.2110  -69.7820   87.5510 O.2    69  PRO69      -0.2718
     79  CB       -60.3160  -68.1190   85.5140 C.3    69  PRO69       0.0282
     80  CG       -59.5600  -68.6370   84.3240 C.3    69  PRO69       0.0208
     81  CD       -58.3210  -69.3100   84.8030 C.3    69  PRO69       0.0893
     82  N        -59.2030  -69.9800   88.5440 N.am   70  MET70      -0.1966
     83  CA       -59.6150  -71.0630   89.4240 C.3    70  MET70       0.1736
     84  C        -59.0620  -70.8100   90.8170 C.2    70  MET70       0.2616
     85  O        -57.9890  -70.2210   90.9800 O.2    70  MET70      -0.2715
     86  CB       -59.1340  -72.4200   88.8980 C.3    70  MET70       0.0427
     87  CG       -57.6280  -72.6100   88.9670 C.3    70  MET70       0.0599
     88  SD       -56.9790  -73.5770   87.5940 S.3    70  MET70      -0.1393
     89  CE       -58.1750  -74.8960   87.4840 C.3    70  MET70       0.0692
     90  N        -59.8100  -71.2620   91.8260 N.am   71  TRP71      -0.1960
     91  CA       -59.3840  -71.0630   93.2080 C.3    71  TRP71       0.1771
     92  C        -58.0510  -71.7430   93.4900 C.2    71  TRP71       0.2619
     93  O        -57.3130  -71.3100   94.3810 O.2    71  TRP71      -0.2715
     94  CB       -60.4570  -71.5770   94.1730 C.3    71  TRP71       0.0590
     95  CG       -60.7510  -73.0460   94.0470 C.ar   71  TRP71       0.0006
     96  CD1      -61.2360  -73.7010   92.9470 C.ar   71  TRP71       0.0946
     97  CD2      -60.6060  -74.0350   95.0710 C.ar   71  TRP71       0.0152
     98  NE1      -61.4020  -75.0350   93.2270 N.ar   71  TRP71      -0.2442
     99  CE2      -61.0230  -75.2680   94.5230 C.ar   71  TRP71       0.0810
    100  CE3      -60.1630  -74.0000   96.4000 C.ar   71  TRP71       0.0012
    101  CZ2      -61.0130  -76.4580   95.2590 C.ar   71  TRP71       0.0191
    102  CZ3      -60.1530  -75.1800   97.1320 C.ar   71  TRP71       0.0001
    103  CH2      -60.5760  -76.3930   96.5570 C.ar   71  TRP71       0.0015
    104  N        -57.7190  -72.7960   92.7390 N.am   72  GLU72      -0.1977
    105  CA       -56.4830  -73.5370   92.9730 C.3    72  GLU72       0.1602
    106  C        -55.2260  -72.7430   92.6260 C.2    72  GLU72       0.2287
    107  O        -54.1320  -73.1690   93.0090 O.2    72  GLU72      -0.2864
    108  CB       -56.5000  -74.8450   92.1790 C.3    72  GLU72       0.0415
    109  CG       -57.7170  -75.7550   92.4890 C.3    72  GLU72       0.1163
    110  CD       -57.8500  -77.0250   91.7060 C.2    72  GLU72       0.3649
    111  OE1      -57.1860  -77.3240   90.7520 O.co2  72  GLU72      -0.2457
    112  OE2      -58.7360  -77.7960   92.1170 O.co2  72  GLU72      -0.2457
    113  N        -63.8630  -63.0270   96.9900 N.3    81  ARG81      -0.1245
    114  CA       -64.6160  -62.4920   95.8680 C.3    81  ARG81       0.1563
    115  C        -65.7040  -61.5380   96.3350 C.2    81  ARG81       0.2260
    116  O        -66.5130  -61.8900   97.1970 O.2    81  ARG81      -0.2867
    117  CB       -65.2410  -63.6280   95.0560 C.3    81  ARG81       0.0307
    118  CG       -66.2820  -64.4780   95.7770 C.3    81  ARG81       0.0489
    119  CD       -66.8920  -65.5500   94.8510 C.3    81  ARG81       0.2205
    120  NE       -67.8470  -66.3760   95.5810 N.pl3  81  ARG81      -0.0865
    121  CZ       -67.5180  -67.4620   96.2710 C.cat  81  ARG81       0.5346
    122  NH1      -66.2580  -67.8950   96.2720 N.pl3  81  ARG81       0.1354
    123  NH2      -68.4600  -68.1360   96.9250 N.pl3  81  ARG81       0.1354
    124  N        -70.8920  -65.4710   85.5310 N.3   124  ASN124     -0.1240
    125  CA       -71.5350  -66.7670   85.3580 C.3   124  ASN124      0.1653
    126  C        -72.9280  -66.5480   84.7770 C.2   124  ASN124      0.2266
    127  O        -73.7270  -65.7960   85.3450 O.2   124  ASN124     -0.2867
    128  CB       -71.6360  -67.5120   86.6900 C.3   124  ASN124      0.1155
    129  CG       -70.2860  -67.7000   87.3750 C.2   124  ASN124      0.2627
    130  OD1      -70.0390  -67.1310   88.4350 O.2   124  ASN124     -0.2716
    131  ND2      -69.4260  -68.5280   86.7900 N.am  124  ASN124     -0.0877
    132  N        -76.3730  -68.2170   84.2680 N.3   126  ARG126     -0.1245
    133  CA       -77.1670  -69.3400   84.7580 C.3   126  ARG126      0.1563
    134  C        -78.6570  -69.0140   84.7750 C.2   126  ARG126      0.2260
    135  O        -79.0650  -67.8900   85.0880 O.2   126  ARG126     -0.2867
    136  CB       -76.7500  -69.7890   86.1780 C.3   126  ARG126      0.0307
    137  CG       -75.2690  -70.0460   86.3820 C.3   126  ARG126      0.0489
    138  CD       -74.8710  -71.3550   85.7410 C.3   126  ARG126      0.2205
    139  NE       -73.5380  -71.7450   86.1750 N.pl3 126  ARG126     -0.0865
    140  CZ       -72.4210  -71.3990   85.5450 C.cat 126  ARG126      0.5346
    141  NH1      -72.4770  -70.6350   84.4520 N.pl3 126  ARG126      0.1354
    142  NH2      -71.2490  -71.8000   86.0330 N.pl3 126  ARG126      0.1354
    143  N        -80.7380  -70.1670   86.9620 N.3   128  LYS128     -0.1245
    144  CA       -81.0920  -69.8940   88.3500 C.3   128  LYS128      0.1561
    145  C        -80.7320  -68.4800   88.7910 C.2   128  LYS128      0.2260
    146  O        -81.0660  -68.0970   89.9200 O.2   128  LYS128     -0.2867
    147  CB       -80.4090  -70.9060   89.2750 C.3   128  LYS128      0.0271
    148  CG       -78.8880  -70.8460   89.2960 C.3   128  LYS128      0.0035
    149  CD       -78.4110  -71.8560   90.3120 C.3   128  LYS128      0.0206
    150  CE       -76.9610  -72.2930   90.0710 C.3   128  LYS128      0.1093
    151  NZ       -76.0280  -71.1940   90.1980 N.3   128  LYS128     -0.1314
    152  N        -74.3670  -64.1980   87.8420 N.3   131  LYS131     -0.1245
    153  CA       -73.4330  -63.7150   88.8510 C.3   131  LYS131      0.1561
    154  C        -72.2700  -62.9960   88.1820 C.2   131  LYS131      0.2260
    155  O        -71.7380  -63.4660   87.1740 O.2   131  LYS131     -0.2867
    156  CB       -72.9020  -64.8640   89.7270 C.3   131  LYS131      0.0271
    157  CG       -73.8730  -65.3260   90.8150 C.3   131  LYS131      0.0035
    158  CD       -73.4030  -66.6030   91.5140 C.3   131  LYS131      0.0206
    159  CE       -73.5680  -67.8190   90.6110 C.3   131  LYS131      0.1093
    160  NZ       -72.9550  -69.0460   91.1830 N.3   131  LYS131     -0.1314
    161  N        -62.5140  -60.9710   91.8690 N.3   135  TRP135     -0.1241
    162  CA       -61.6870  -61.7870   92.7460 C.3   135  TRP135      0.1605
    163  C        -60.4830  -60.9840   93.2100 C.2   135  TRP135      0.2264
    164  O        -59.8150  -60.3340   92.3980 O.2   135  TRP135     -0.2867
    165  CB       -61.2070  -63.0540   92.0410 C.3   135  TRP135      0.0550
    166  CG       -62.2790  -64.0240   91.7260 C.ar  135  TRP135      0.0003
    167  CD1      -63.6050  -63.7590   91.5630 C.ar  135  TRP135      0.0946
    168  CD2      -62.1210  -65.4310   91.5340 C.ar  135  TRP135      0.0152
    169  NE1      -64.2840  -64.9170   91.2760 N.ar  135  TRP135     -0.2442
    170  CE2      -63.3950  -65.9600   91.2580 C.ar  135  TRP135      0.0810
    171  CE3      -61.0250  -66.2980   91.5740 C.ar  135  TRP135      0.0012
    172  CZ2      -63.6040  -67.3150   91.0180 C.ar  135  TRP135      0.0191
    173  CZ3      -61.2330  -67.6410   91.3330 C.ar  135  TRP135      0.0001
    174  CH2      -62.5120  -68.1360   91.0540 C.ar  135  TRP135      0.0015
@<TRIPOS>BOND
     1    45    44    1
     2    44    43    1
     3    26    25   ar
     4    43    42    1
     5    25    27   ar
     6    25    24    1
     7    42    41    1
     8    24    21    1
     9    15    14    2
    10    74    72   am
    11    70    69    2
    12    21    20    1
    13    21    22    1
    14    14    20   am
    15    14    13    1
    16    41    38    1
    17    12    13    1
    18     4     3    2
    19     3     2    1
    20     1     2    1
    21    68    69    1
    22    68    67    1
    23    68    71    1
    24    72    71    1
    25    72    73    2
    26    13    16    1
    27     2     5    1
    28    22    28   am
    29    22    23    2
    30    37    38    1
    31    38    39    1
    32    28    29    1
    33    16    17    1
    34    30    29    1
    35    30    31    2
    36    17    18    2
    37    17    19   am
    38    29    32    1
    39     5     6    1
    40    39    46   am
    41    39    40    2
    42    32    33    1
    43    46    47    1
    44    49    48    2
    45     6     8   ar
    46     6     7   ar
    47    33    34    1
    48     8    10   ar
    49     7     9   ar
    50    51    50    1
    51    56    55    2
    52    10    11   ar
    53     9    11   ar
    54    48    47    1
    55    48    53   am
    56    47    50    1
    57    34    35    1
    58    50    52    1
    59    55    54    1
    60    35    36    1
    61   132   133    1
    62    80    81    1
    63    80    79    1
    64   141   140    1
    65    53    54    1
    66    54    57    1
    67   133   134    1
    68   133   136    1
    69   134   135    2
    70   126   127    2
    71   126   125    1
    72    81    75    1
    73   125   124    1
    74   125   128    1
    75    79    76    1
    76   140   142    1
    77   140   139    2
    78   138   139    1
    79   138   137    1
    80    75    76    1
    81   136   137    1
    82    57    58    1
    83    59    58   ar
    84    59    61   ar
    85   128   129    1
    86    76    77    1
    87   131   129   am
    88    58    60   ar
    89   143   144    1
    90   155   154    2
    91   129   130    2
    92    61    62   ar
    93    89    88    1
    94    78    77    2
    95    88    87    1
    96    77    82   am
    97   152   153    1
    98    60    62   ar
    99    60    63   ar
   100   154   153    1
   101   144   145    1
   102   144   147    1
   103    62    64   ar
   104    82    83    1
   105   145   146    2
   106   153   156    1
   107    86    87    1
   108    86    83    1
   109    63    65   ar
   110   147   148    1
   111   148   149    1
   112    83    84    1
   113    64    66   ar
   114   156   157    1
   115   150   151    1
   116   150   149    1
   117    65    66   ar
   118   159   160    1
   119   159   158    1
   120   111   110   ar
   121   157   158    1
   122    84    85    2
   123    84    90   am
   124   172   174   ar
   125   172   170   ar
   126   174   173   ar
   127   170   169   ar
   128   170   168   ar
   129   169   167   ar
   130   173   171   ar
   131   168   171   ar
   132   168   166   ar
   133   167   166   ar
   134   110   112   ar
   135   110   109    1
   136   166   165    1
   137    90    91    1
   138   161   162    1
   139   165   162    1
   140   108   109    1
   141   108   105    1
   142   164   163    2
   143   106   105    1
   144   106   107    2
   145   104   105    1
   146   104    92   am
   147   162   163    1
   148    96    98   ar
   149    96    95   ar
   150    91    92    1
   151    91    94    1
   152    98    99   ar
   153    92    93    2
   154    95    94    1
   155    95    97   ar
   156    99    97   ar
   157    99   101   ar
   158   119   120    1
   159   119   118    1
   160   117   118    1
   161   117   114    1
   162    97   100   ar
   163   101   103   ar
   164   120   121    2
   165   114   115    1
   166   114   113    1
   167   121   122    1
   168   121   123    1
   169   115   116    2
   170   100   102   ar
   171   103   102   ar
