@<TRIPOS>MOLECULE
tmp/5m85A02.pdb
 118 111 0 0 0
SMALL
GASTEIGER

@<TRIPOS>ATOM
      1  N         19.3220  157.6340    2.0650 N.3    22  LEU22      -0.1245
      2  CA        20.1640  156.6360    1.4560 C.3    22  LEU22       0.1561
      3  C         20.0810  156.6730   -0.0430 C.2    22  LEU22       0.2260
      4  O         18.9900  156.8830   -0.6300 O.2    22  LEU22      -0.2867
      5  CB        19.7160  155.2390    1.9230 C.3    22  LEU22       0.0270
      6  CG        19.8690  154.9850    3.4220 C.3    22  LEU22       0.0019
      7  CD1       19.1280  153.6970    3.7780 C.3    22  LEU22       0.0001
      8  CD2       21.3450  154.8740    3.7850 C.3    22  LEU22       0.0001
      9  N         22.9620  149.8370   -0.9080 N.3    34  PHE34      -0.1241
     10  CA        23.0460  151.2040   -0.4350 C.3    34  PHE34       0.1605
     11  C         24.4920  151.6280   -0.4860 C.2    34  PHE34       0.2264
     12  O         25.3270  151.0280    0.1720 O.2    34  PHE34      -0.2867
     13  CB        22.4660  151.3590    0.9580 C.3    34  PHE34       0.0534
     14  CG        20.9910  151.3180    0.9850 C.ar   34  PHE34      -0.0203
     15  CD1       20.2520  152.2660    0.2830 C.ar   34  PHE34      -0.0042
     16  CD2       20.3270  150.2880    1.6090 C.ar   34  PHE34      -0.0042
     17  CE1       18.8930  152.1990    0.2270 C.ar   34  PHE34      -0.0003
     18  CE2       18.9430  150.2040    1.5820 C.ar   34  PHE34      -0.0003
     19  CZ        18.2120  151.1810    0.9130 C.ar   34  PHE34      -0.0000
     20  N         24.2420  153.0060    8.8630 N.3    46  LEU46      -0.1245
     21  CA        23.7250  151.8090    8.2630 C.3    46  LEU46       0.1561
     22  C         24.7240  150.6660    8.2560 C.2    46  LEU46       0.2260
     23  O         24.3210  149.5800    8.5640 O.2    46  LEU46      -0.2867
     24  CB        23.3220  152.0520    6.8300 C.3    46  LEU46       0.0270
     25  CG        22.5400  150.9080    6.1670 C.3    46  LEU46       0.0019
     26  CD1       21.0790  151.1320    6.4930 C.3    46  LEU46       0.0001
     27  CD2       22.7830  150.9310    4.6590 C.3    46  LEU46       0.0001
     28  N         19.0110  140.8120    9.1150 N.3    55  LEU55      -0.1245
     29  CA        17.7420  141.2010    8.4700 C.3    55  LEU55       0.1561
     30  C         17.2080  140.0130    7.7590 C.2    55  LEU55       0.2260
     31  O         17.9640  139.1440    7.4150 O.2    55  LEU55      -0.2867
     32  CB        18.0370  142.2830    7.4200 C.3    55  LEU55       0.0270
     33  CG        18.6910  143.5610    7.9900 C.3    55  LEU55       0.0019
     34  CD1       19.1560  144.4900    6.8790 C.3    55  LEU55       0.0001
     35  CD2       17.7550  144.2810    8.9080 C.3    55  LEU55       0.0001
     36  N         16.0820  140.0760    1.2610 N.3    58  ASP58      -0.1239
     37  CA        15.1300  140.8320    0.4290 C.3    58  ASP58       0.1674
     38  C         15.6800  140.8830   -0.9730 C.2    58  ASP58       0.2266
     39  O         16.6640  141.5630   -1.2520 O.2    58  ASP58      -0.2867
     40  CB        14.8100  142.1750    1.0850 C.3    58  ASP58       0.1410
     41  CG        13.6070  142.9040    0.4500 C.2    58  ASP58       0.3668
     42  OD1       13.4300  142.7210   -0.7760 O.co2  58  ASP58      -0.2456
     43  OD2       12.9270  143.6850    1.2100 O.co2  58  ASP58      -0.2456
     44  N          9.1220  142.4500    5.5390 N.3    89  HIS89      -0.1241
     45  CA         9.4800  143.7590    5.0480 C.3    89  HIS89       0.1621
     46  C          9.3320  144.7290    6.1890 C.2    89  HIS89       0.2264
     47  O         10.2980  145.4500    6.5290 O.2    89  HIS89      -0.2867
     48  CB         8.6120  144.1450    3.8450 C.3    89  HIS89       0.0745
     49  CG         9.0760  145.3940    3.1200 C.ar   89  HIS89       0.0817
     50  ND1        8.5070  145.8250    1.9470 N.ar   89  HIS89      -0.2268
     51  CD2       10.0590  146.2820    3.3920 C.ar   89  HIS89       0.1154
     52  CE1        9.0990  146.9200    1.5310 C.ar   89  HIS89       0.1986
     53  NE2       10.0260  147.2420    2.4020 N.ar   89  HIS89      -0.2212
     54  N         12.0490  144.1620    8.7530 N.3    92  ASN92      -0.1225
     55  CA        13.2460  144.8890    8.3450 C.3    92  ASN92       0.1785
     56  C         13.1640  146.3520    8.6020 C.2    92  ASN92       0.2597
     57  O         14.0880  146.9150    9.1820 O.2    92  ASN92      -0.2718
     58  CB        13.6070  144.6320    6.9200 C.3    92  ASN92       0.1169
     59  CG        14.2160  143.2980    6.7270 C.2    92  ASN92       0.2627
     60  OD1       14.4700  142.5380    7.7070 O.2    92  ASN92      -0.2716
     61  ND2       14.5000  142.9850    5.4680 N.am   92  ASN92      -0.0877
     62  N         12.0320  146.9650    8.2950 N.am   93  LEU93      -0.1980
     63  CA        11.8900  148.4190    8.5040 C.3    93  LEU93       0.1596
     64  C         11.9950  148.7930    9.9890 C.2    93  LEU93       0.2287
     65  O         12.7290  149.7060   10.3840 O.2    93  LEU93      -0.2864
     66  CB        10.5290  148.9070    7.9620 C.3    93  LEU93       0.0297
     67  CG        10.4530  148.8770    6.4370 C.3    93  LEU93       0.0022
     68  CD1        9.0030  148.9640    5.9270 C.3    93  LEU93       0.0001
     69  CD2       11.2810  150.0380    5.9150 C.3    93  LEU93       0.0001
     70  N         15.4160  148.8940   11.6120 N.3    96  PHE96      -0.1241
     71  CA        16.0650  150.1970   11.4540 C.3    96  PHE96       0.1605
     72  C         15.3140  151.3680   12.0100 C.2    96  PHE96       0.2264
     73  O         15.6900  152.5210   11.7550 O.2    96  PHE96      -0.2867
     74  CB        16.3880  150.4730    9.9980 C.3    96  PHE96       0.0534
     75  CG        17.5410  149.7090    9.4950 C.ar   96  PHE96      -0.0203
     76  CD1       17.3760  148.4560    8.9720 C.ar   96  PHE96      -0.0042
     77  CD2       18.8220  150.2570    9.5280 C.ar   96  PHE96      -0.0042
     78  CE1       18.4560  147.7360    8.5110 C.ar   96  PHE96      -0.0003
     79  CE2       19.9220  149.5250    9.0670 C.ar   96  PHE96      -0.0003
     80  CZ        19.7270  148.2570    8.5530 C.ar   96  PHE96      -0.0000
     81  N         12.6040  152.5390   11.2600 N.3    98  ILE98      -0.1245
     82  CA        11.9810  153.3650   10.2010 C.3    98  ILE98       0.1561
     83  C         10.4770  153.3300   10.4270 C.2    98  ILE98       0.2260
     84  O          9.8510  152.2590   10.4450 O.2    98  ILE98      -0.2867
     85  CB        12.2760  152.8280    8.7840 C.3    98  ILE98       0.0252
     86  CG1       13.7790  152.9270    8.5330 C.3    98  ILE98       0.0019
     87  CG2       11.4850  153.6250    7.7570 C.3    98  ILE98       0.0019
     88  CD1       14.2810  152.1130    7.3860 C.3    98  ILE98       0.0001
     89  N          8.6470  156.7270    5.3200 N.3   101  PHE101     -0.1241
     90  CA         9.6730  156.9320    4.3140 C.3   101  PHE101      0.1605
     91  C          9.1660  157.2680    2.9240 C.2   101  PHE101      0.2264
     92  O          8.0380  156.9910    2.6020 O.2   101  PHE101     -0.2867
     93  CB        10.6490  155.7290    4.2590 C.3   101  PHE101      0.0534
     94  CG        10.0920  154.4380    3.6490 C.ar  101  PHE101     -0.0203
     95  CD1        9.3650  153.5520    4.4070 C.ar  101  PHE101     -0.0042
     96  CD2       10.3920  154.0680    2.3560 C.ar  101  PHE101     -0.0042
     97  CE1        8.9600  152.3150    3.8960 C.ar  101  PHE101     -0.0003
     98  CE2        9.9840  152.8270    1.8420 C.ar  101  PHE101     -0.0003
     99  CZ         9.2290  151.9610    2.6300 C.ar  101  PHE101     -0.0000
    100  N         10.6710  156.5850   -1.1090 N.3   103  THR103     -0.1218
    101  CA        11.6990  156.0110   -2.0200 C.3   103  THR103      0.1862
    102  C         11.3480  156.3970   -3.4580 C.2   103  THR103      0.2287
    103  O         10.2150  156.2140   -3.8790 O.2   103  THR103     -0.2866
    104  CB        11.8450  154.4870   -1.8000 C.3   103  THR103      0.1770
    105  OG1       12.2690  154.2480   -0.4300 O.3   103  THR103     -0.2211
    106  CG2       12.9490  153.9910   -2.7090 C.3   103  THR103      0.0375
    107  N         14.0820  158.6530    5.1580 N.3   119  TYR119     -0.1241
    108  CA        13.5020  157.8910    6.2950 C.3   119  TYR119      0.1605
    109  C         13.3410  158.7240    7.5370 C.2   119  TYR119      0.2264
    110  O         14.2800  159.4880    7.9350 O.2   119  TYR119     -0.2867
    111  CB        14.4320  156.7300    6.6260 C.3   119  TYR119      0.0534
    112  CG        14.7400  155.9290    5.3770 C.ar  119  TYR119     -0.0201
    113  CD1       13.9310  154.8680    4.9540 C.ar  119  TYR119     -0.0009
    114  CD2       15.8280  156.2780    4.6240 C.ar  119  TYR119     -0.0009
    115  CE1       14.2420  154.1840    3.7780 C.ar  119  TYR119      0.0417
    116  CE2       16.1420  155.6250    3.4820 C.ar  119  TYR119      0.0417
    117  CZ        15.3470  154.5790    3.0550 C.ar  119  TYR119      0.1957
    118  OH        15.7980  154.0320    1.9240 O.3   119  TYR119     -0.2866
@<TRIPOS>BOND
     1   103   102    2
     2   102   101    1
     3   106   104    1
     4   101   104    1
     5   101   100    1
     6   104   105    1
     7    39    38    2
     8    38    37    1
     9     9    10    1
    10    42    41   ar
    11     4     3    2
    12    11    10    1
    13    11    12    2
    14    10    13    1
    15     3     2    1
    16    17    15   ar
    17    17    19   ar
    18    15    14   ar
    19    37    40    1
    20    37    36    1
    21    41    40    1
    22    41    43   ar
    23    19    18   ar
    24    13    14    1
    25    14    16   ar
    26     2     5    1
    27     2     1    1
    28    52    50   ar
    29    52    53   ar
    30    18    16   ar
    31    98    96   ar
    32    98    99   ar
    33     5     6    1
    34   118   117    1
    35    50    49   ar
    36    96    94   ar
    37    53    51   ar
    38    92    91    2
    39    99    97   ar
    40    91    90    1
    41   117   116   ar
    42   117   115   ar
    43    49    51   ar
    44    49    48    1
    45     6     7    1
    46     6     8    1
    47   116   114   ar
    48    94    93    1
    49    94    95   ar
    50   115   113   ar
    51    48    45    1
    52    97    95   ar
    53    93    90    1
    54    90    89    1
    55   114   112   ar
    56    27    25    1
    57   113   112   ar
    58    45    44    1
    59    45    46    1
    60   107   108    1
    61   112   111    1
    62    61    59   am
    63    69    67    1
    64    68    67    1
    65    25    26    1
    66    25    24    1
    67    46    47    2
    68   108   111    1
    69   108   109    1
    70    67    66    1
    71    59    58    1
    72    59    60    2
    73    24    21    1
    74    34    33    1
    75    58    55    1
    76    88    86    1
    77    31    30    2
    78    32    33    1
    79    32    29    1
    80   109   110    2
    81    87    85    1
    82    30    29    1
    83    66    63    1
    84    33    35    1
    85    22    21    1
    86    22    23    2
    87    21    20    1
    88    62    63    1
    89    62    56   am
    90    55    56    1
    91    55    54    1
    92    29    28    1
    93    63    64    1
    94    78    80   ar
    95    78    76   ar
    96    86    85    1
    97    80    79   ar
    98    56    57    2
    99    85    82    1
   100    76    75   ar
   101    79    77   ar
   102    75    77   ar
   103    75    74    1
   104    64    65    2
   105    74    71    1
   106    82    83    1
   107    82    81    1
   108    83    84    2
   109    71    70    1
   110    71    72    1
   111    73    72    2
