@<TRIPOS>MOLECULE
tmp/5m85A00.pdb
 258 253 0 0 0
SMALL
GASTEIGER

@<TRIPOS>ATOM
      1  N         20.6580  154.0890   -3.0770 N.3    24  TYR24      -0.1241
      2  CA        20.7690  152.7280   -3.5680 C.3    24  TYR24       0.1605
      3  C         21.2050  152.6700   -5.0110 C.2    24  TYR24       0.2264
      4  O         20.6770  153.4060   -5.7810 O.2    24  TYR24      -0.2867
      5  CB        19.3820  152.0920   -3.4860 C.3    24  TYR24       0.0534
      6  CG        19.3580  150.5850   -3.5690 C.ar   24  TYR24      -0.0201
      7  CD1       19.6520  149.7950   -2.4450 C.ar   24  TYR24      -0.0009
      8  CD2       19.0390  149.9220   -4.8020 C.ar   24  TYR24      -0.0009
      9  CE1       19.5820  148.4120   -2.5250 C.ar   24  TYR24       0.0417
     10  CE2       18.9630  148.5380   -4.8610 C.ar   24  TYR24       0.0417
     11  CZ        19.2530  147.7830   -3.7120 C.ar   24  TYR24       0.1957
     12  OH        19.1890  146.3740   -3.7650 O.3    24  TYR24      -0.2866
     13  N         21.4200  144.9500   -5.8100 N.3    32  GLY32      -0.1210
     14  CA        22.0210  146.2740   -5.5920 C.3    32  GLY32       0.1956
     15  C         22.4280  146.4730   -4.1620 C.2    32  GLY32       0.2612
     16  O         22.4300  145.5270   -3.3970 O.2    32  GLY32      -0.2717
     17  N         22.7640  147.7110   -3.7980 N.am   33  GLU33      -0.1965
     18  CA        23.1060  148.0100   -2.4400 C.3    33  GLU33       0.1733
     19  C         23.0750  149.5030   -2.1870 C.2    33  GLU33       0.2616
     20  O         23.2970  150.3100   -3.1260 O.2    33  GLU33      -0.2715
     21  CB        24.5140  147.5050   -2.0920 C.3    33  GLU33       0.0429
     22  CG        25.5690  148.2250   -2.9080 C.3    33  GLU33       0.1163
     23  CD        26.9720  147.6910   -2.7430 C.2    33  GLU33       0.3649
     24  OE1       27.2800  147.1180   -1.6930 O.co2  33  GLU33      -0.2457
     25  OE2       27.7500  147.8820   -3.6950 O.co2  33  GLU33      -0.2457
     26  N         22.9620  149.8370   -0.9080 N.am   34  PHE34      -0.1974
     27  CA        23.0460  151.2040   -0.4350 C.3    34  PHE34       0.1639
     28  C         24.4920  151.6280   -0.4860 C.2    34  PHE34       0.2290
     29  O         25.3270  151.0280    0.1720 O.2    34  PHE34      -0.2864
     30  CB        22.4660  151.3590    0.9580 C.3    34  PHE34       0.0560
     31  CG        20.9910  151.3180    0.9850 C.ar   34  PHE34      -0.0200
     32  CD1       20.2520  152.2660    0.2830 C.ar   34  PHE34      -0.0042
     33  CD2       20.3270  150.2880    1.6090 C.ar   34  PHE34      -0.0042
     34  CE1       18.8930  152.1990    0.2270 C.ar   34  PHE34      -0.0003
     35  CE2       18.9430  150.2040    1.5820 C.ar   34  PHE34      -0.0003
     36  CZ        18.2120  151.1810    0.9130 C.ar   34  PHE34      -0.0000
     37  N         24.2420  153.0060    8.8630 N.3    46  LEU46      -0.1245
     38  CA        23.7250  151.8090    8.2630 C.3    46  LEU46       0.1561
     39  C         24.7240  150.6660    8.2560 C.2    46  LEU46       0.2260
     40  O         24.3210  149.5800    8.5640 O.2    46  LEU46      -0.2867
     41  CB        23.3220  152.0520    6.8300 C.3    46  LEU46       0.0270
     42  CG        22.5400  150.9080    6.1670 C.3    46  LEU46       0.0019
     43  CD1       21.0790  151.1320    6.4930 C.3    46  LEU46       0.0001
     44  CD2       22.7830  150.9310    4.6590 C.3    46  LEU46       0.0001
     45  N         24.4070  146.9760   10.0270 N.3    50  GLN50      -0.1245
     46  CA        24.4690  145.7760    9.2330 C.3    50  GLN50       0.1566
     47  C         25.4920  144.7500    9.7180 C.2    50  GLN50       0.2260
     48  O         25.2940  143.6050    9.4890 O.2    50  GLN50      -0.2867
     49  CB        24.7220  146.1280    7.7840 C.3    50  GLN50       0.0367
     50  CG        23.4800  146.7550    7.1710 C.3    50  GLN50       0.0905
     51  CD        23.6790  146.9070    5.7020 C.2    50  GLN50       0.2608
     52  OE1       23.2280  146.0660    4.9400 O.2    50  GLN50      -0.2717
     53  NE2       24.4520  147.9060    5.3030 N.am   50  GLN50      -0.0878
     54  N         19.0110  140.8120    9.1150 N.3    55  LEU55      -0.1231
     55  CA        17.7420  141.2010    8.4700 C.3    55  LEU55       0.1693
     56  C         17.2080  140.0130    7.7590 C.2    55  LEU55       0.2592
     57  O         17.9640  139.1440    7.4150 O.2    55  LEU55      -0.2718
     58  CB        18.0370  142.2830    7.4200 C.3    55  LEU55       0.0284
     59  CG        18.6910  143.5610    7.9900 C.3    55  LEU55       0.0019
     60  CD1       19.1560  144.4900    6.8790 C.3    55  LEU55       0.0001
     61  CD2       17.7550  144.2810    8.9080 C.3    55  LEU55       0.0001
     62  N         15.9230  140.0370    7.4270 N.am   56  TRP56      -0.1962
     63  CA        15.3710  139.1310    6.4610 C.3    56  TRP56       0.1771
     64  C         15.9210  139.4160    5.0950 C.2    56  TRP56       0.2620
     65  O         16.0480  140.5430    4.6950 O.2    56  TRP56      -0.2715
     66  CB        13.8330  139.2230    6.4230 C.3    56  TRP56       0.0590
     67  CG        13.1980  138.7650    7.6290 C.ar   56  TRP56       0.0006
     68  CD1       13.2430  139.3500    8.8590 C.ar   56  TRP56       0.0946
     69  CD2       12.4460  137.5280    7.7940 C.ar   56  TRP56       0.0152
     70  NE1       12.5350  138.5770    9.7640 N.ar   56  TRP56      -0.2442
     71  CE2       12.0780  137.4390    9.1370 C.ar   56  TRP56       0.0810
     72  CE3       12.0530  136.5270    6.9370 C.ar   56  TRP56       0.0012
     73  CZ2       11.2900  136.3990    9.6320 C.ar   56  TRP56       0.0191
     74  CZ3       11.2750  135.4480    7.4480 C.ar   56  TRP56       0.0001
     75  CH2       10.9030  135.4210    8.7770 C.ar   56  TRP56       0.0015
     76  N         16.2410  138.3580    4.3520 N.am   57  GLN57      -0.1963
     77  CA        16.7670  138.4910    3.0380 C.3    57  GLN57       0.1733
     78  C         15.6710  139.2640    2.2580 C.2    57  GLN57       0.2616
     79  O         14.4650  139.0890    2.5560 O.2    57  GLN57      -0.2715
     80  CB        17.0270  137.0620    2.5140 C.3    57  GLN57       0.0408
     81  CG        17.6670  136.8470    1.1750 C.3    57  GLN57       0.0908
     82  CD        18.1850  135.4030    0.9810 C.2    57  GLN57       0.2608
     83  OE1       17.7450  134.4200    1.6400 O.2    57  GLN57      -0.2717
     84  NE2       19.1780  135.2860    0.1290 N.am   57  GLN57      -0.0878
     85  N         16.0820  140.0760    1.2610 N.am   58  ASP58      -0.1957
     86  CA        15.1300  140.8320    0.4290 C.3    58  ASP58       0.1840
     87  C         15.6800  140.8830   -0.9730 C.2    58  ASP58       0.2623
     88  O         16.6640  141.5630   -1.2520 O.2    58  ASP58      -0.2715
     89  CB        14.8100  142.1750    1.0850 C.3    58  ASP58       0.1450
     90  CG        13.6070  142.9040    0.4500 C.2    58  ASP58       0.3671
     91  OD1       13.4300  142.7210   -0.7760 O.co2  58  ASP58      -0.2456
     92  OD2       12.9270  143.6850    1.2100 O.co2  58  ASP58      -0.2456
     93  N         15.1280  140.0110   -1.8170 N.am   59  THR59      -0.1937
     94  CA        15.4650  139.9350   -3.2420 C.3    59  THR59       0.2028
     95  C         14.3230  140.4160   -4.1740 C.2    59  THR59       0.2642
     96  O         14.3340  140.1430   -5.3730 O.2    59  THR59      -0.2714
     97  CB        15.7140  138.4470   -3.5710 C.3    59  THR59       0.1808
     98  OG1       14.5480  137.7240   -3.1300 O.3    59  THR59      -0.2208
     99  CG2       16.9540  137.9600   -2.8340 C.3    59  THR59       0.0379
    100  N         13.3530  141.1250   -3.6100 N.am   60  TYR60      -0.1959
    101  CA        12.2170  141.5820   -4.3630 C.3    60  TYR60       0.1771
    102  C         12.5430  142.3750   -5.5950 C.2    60  TYR60       0.2619
    103  O         12.1170  142.0560   -6.6920 O.2    60  TYR60      -0.2715
    104  CB        11.2460  142.3420   -3.5020 C.3    60  TYR60       0.0574
    105  CG        10.0500  142.6760   -4.3360 C.ar   60  TYR60      -0.0198
    106  CD1        9.0610  141.7010   -4.5510 C.ar   60  TYR60      -0.0009
    107  CD2        9.9510  143.9070   -5.0180 C.ar   60  TYR60      -0.0009
    108  CE1        7.9950  141.9820   -5.3700 C.ar   60  TYR60       0.0417
    109  CE2        8.8790  144.1850   -5.8530 C.ar   60  TYR60       0.0417
    110  CZ         7.9150  143.2360   -5.9900 C.ar   60  TYR60       0.1957
    111  OH         6.8580  143.4340   -6.8040 O.3    60  TYR60      -0.2866
    112  N         13.3350  143.4190   -5.4120 N.am   61  LEU61      -0.1977
    113  CA        13.7310  144.2930   -6.5240 C.3    61  LEU61       0.1596
    114  C         14.5420  143.5540   -7.5260 C.2    61  LEU61       0.2287
    115  O         14.4350  143.8070   -8.7330 O.2    61  LEU61      -0.2864
    116  CB        14.4610  145.5550   -6.0150 C.3    61  LEU61       0.0297
    117  CG        13.6040  146.5370   -5.1730 C.3    61  LEU61       0.0022
    118  CD1       14.5020  147.6460   -4.6780 C.3    61  LEU61       0.0001
    119  CD2       12.3610  147.0600   -5.9250 C.3    61  LEU61       0.0001
    120  N         14.4200  140.2440   -8.1650 N.3    63  GLU63      -0.1245
    121  CA        13.5110  139.3300   -8.8720 C.3    63  GLU63       0.1567
    122  C         12.6330  140.0710   -9.8240 C.2    63  GLU63       0.2260
    123  O         12.2230  139.5060  -10.8290 O.2    63  GLU63      -0.2867
    124  CB        12.6310  138.5180   -7.9040 C.3    63  GLU63       0.0388
    125  CG        13.4590  137.4820   -7.1780 C.3    63  GLU63       0.1160
    126  CD        12.8800  137.0220   -5.8740 C.2    63  GLU63       0.3649
    127  OE1       11.7710  137.4280   -5.4870 O.co2  63  GLU63      -0.2457
    128  OE2       13.5780  136.2760   -5.1870 O.co2  63  GLU63      -0.2457
    129  N          8.4320  148.6100   -9.0560 N.3    68  ARG68      -0.1231
    130  CA         7.6790  149.8120   -9.4980 C.3    68  ARG68       0.1694
    131  C          8.5670  150.9130  -10.0120 C.2    68  ARG68       0.2592
    132  O          8.1410  151.7030  -10.8590 O.2    68  ARG68      -0.2718
    133  CB         6.7860  150.3280   -8.3750 C.3    68  ARG68       0.0321
    134  CG         7.6120  150.9190   -7.2150 C.3    68  ARG68       0.0489
    135  CD         6.7110  151.5570   -6.2520 C.3    68  ARG68       0.2205
    136  NE         5.9660  150.5640   -5.4880 N.pl3  68  ARG68      -0.0865
    137  CZ         4.6520  150.4520   -5.3640 C.cat  68  ARG68       0.5346
    138  NH1        3.8220  151.2660   -5.9720 N.pl3  68  ARG68       0.1354
    139  NH2        4.1410  149.5020   -4.6280 N.pl3  68  ARG68       0.1354
    140  N          9.8230  150.9160   -9.5790 N.am   69  TYR69      -0.1976
    141  CA        10.7390  151.9960   -9.9230 C.3    69  TYR69       0.1639
    142  C         11.0260  152.0520  -11.4030 C.2    69  TYR69       0.2290
    143  O         11.3510  153.1050  -11.9580 O.2    69  TYR69      -0.2864
    144  CB        12.0560  151.9190   -9.0990 C.3    69  TYR69       0.0560
    145  CG        11.6970  151.9530   -7.6240 C.ar   69  TYR69      -0.0198
    146  CD1       11.1920  153.1190   -7.0390 C.ar   69  TYR69      -0.0009
    147  CD2       11.6830  150.7950   -6.8820 C.ar   69  TYR69      -0.0009
    148  CE1       10.7240  153.1460   -5.7420 C.ar   69  TYR69       0.0417
    149  CE2       11.2310  150.7990   -5.5770 C.ar   69  TYR69       0.0417
    150  CZ        10.7840  151.9790   -4.9960 C.ar   69  TYR69       0.1957
    151  OH        10.3110  151.9690   -3.7110 O.3    69  TYR69      -0.2866
    152  N          7.6210  155.2400   -3.9060 N.3    75  LEU75      -0.1245
    153  CA         6.8690  154.7960   -2.7640 C.3    75  LEU75       0.1561
    154  C          6.8000  155.9470   -1.7310 C.2    75  LEU75       0.2260
    155  O          7.8260  156.5190   -1.3910 O.2    75  LEU75      -0.2867
    156  CB         7.5720  153.5720   -2.1530 C.3    75  LEU75       0.0270
    157  CG         6.6750  152.5810   -1.4410 C.3    75  LEU75       0.0019
    158  CD1        5.6310  151.9930   -2.3550 C.3    75  LEU75       0.0001
    159  CD2        7.4280  151.4420   -0.7790 C.3    75  LEU75       0.0001
    160  N          2.6010  146.1000    4.5800 N.3    85  PHE85      -0.1227
    161  CA         3.7530  145.3450    4.0720 C.3    85  PHE85       0.1736
    162  C          3.6870  143.9140    4.5180 C.2    85  PHE85       0.2596
    163  O          3.1260  143.6240    5.5490 O.2    85  PHE85      -0.2718
    164  CB         5.0820  145.9210    4.5910 C.3    85  PHE85       0.0547
    165  CG         5.4060  147.2890    4.0320 C.ar   85  PHE85      -0.0202
    166  CD1        5.7230  147.4650    2.7170 C.ar   85  PHE85      -0.0042
    167  CD2        5.3840  148.3700    4.8360 C.ar   85  PHE85      -0.0042
    168  CE1        6.0290  148.6890    2.1930 C.ar   85  PHE85      -0.0003
    169  CE2        5.7240  149.6150    4.3580 C.ar   85  PHE85      -0.0003
    170  CZ         6.0340  149.7940    3.0330 C.ar   85  PHE85      -0.0000
    171  N          4.3220  143.0220    3.7780 N.am   86  THR86      -0.1953
    172  CA         4.6710  141.7070    4.3000 C.3    86  THR86       0.1897
    173  C          5.3720  141.7720    5.6480 C.2    86  THR86       0.2313
    174  O          6.0590  142.7630    5.9690 O.2    86  THR86      -0.2863
    175  CB         5.5550  140.9030    3.3060 C.3    86  THR86       0.1794
    176  OG1        6.7600  141.5930    2.9600 O.3    86  THR86      -0.2208
    177  CG2        4.8190  140.5590    2.0260 C.3    86  THR86       0.0378
    178  N          8.0550  140.1790    6.7080 N.3    88  CYS88      -0.1221
    179  CA         9.4740  140.2820    6.6650 C.3    88  CYS88       0.1808
    180  C          9.9460  141.7280    6.3320 C.2    88  CYS88       0.2601
    181  O         11.0130  142.1590    6.7880 O.2    88  CYS88      -0.2717
    182  CB        10.0490  139.2660    5.7200 C.3    88  CYS88       0.0970
    183  SG         9.3660  139.1950    4.0290 S.3    88  CYS88      -0.0800
    184  N          9.1220  142.4500    5.5390 N.am   89  HIS89      -0.1975
    185  CA         9.4800  143.7590    5.0480 C.3    89  HIS89       0.1656
    186  C          9.3320  144.7290    6.1890 C.2    89  HIS89       0.2291
    187  O         10.2980  145.4500    6.5290 O.2    89  HIS89      -0.2864
    188  CB         8.6120  144.1450    3.8450 C.3    89  HIS89       0.0771
    189  CG         9.0760  145.3940    3.1200 C.ar   89  HIS89       0.0820
    190  ND1        8.5070  145.8250    1.9470 N.ar   89  HIS89      -0.2267
    191  CD2       10.0590  146.2820    3.3920 C.ar   89  HIS89       0.1154
    192  CE1        9.0990  146.9200    1.5310 C.ar   89  HIS89       0.1986
    193  NE2       10.0260  147.2420    2.4020 N.ar   89  HIS89      -0.2212
    194  N         12.0490  144.1620    8.7530 N.3    92  ASN92      -0.1225
    195  CA        13.2460  144.8890    8.3450 C.3    92  ASN92       0.1785
    196  C         13.1640  146.3520    8.6020 C.2    92  ASN92       0.2597
    197  O         14.0880  146.9150    9.1820 O.2    92  ASN92      -0.2718
    198  CB        13.6070  144.6320    6.9200 C.3    92  ASN92       0.1169
    199  CG        14.2160  143.2980    6.7270 C.2    92  ASN92       0.2627
    200  OD1       14.4700  142.5380    7.7070 O.2    92  ASN92      -0.2716
    201  ND2       14.5000  142.9850    5.4680 N.am   92  ASN92      -0.0877
    202  N         12.0320  146.9650    8.2950 N.am   93  LEU93      -0.1980
    203  CA        11.8900  148.4190    8.5040 C.3    93  LEU93       0.1596
    204  C         11.9950  148.7930    9.9890 C.2    93  LEU93       0.2287
    205  O         12.7290  149.7060   10.3840 O.2    93  LEU93      -0.2864
    206  CB        10.5290  148.9070    7.9620 C.3    93  LEU93       0.0297
    207  CG        10.4530  148.8770    6.4370 C.3    93  LEU93       0.0022
    208  CD1        9.0030  148.9640    5.9270 C.3    93  LEU93       0.0001
    209  CD2       11.2810  150.0380    5.9150 C.3    93  LEU93       0.0001
    210  N         15.4160  148.8940   11.6120 N.3    96  PHE96      -0.1241
    211  CA        16.0650  150.1970   11.4540 C.3    96  PHE96       0.1605
    212  C         15.3140  151.3680   12.0100 C.2    96  PHE96       0.2264
    213  O         15.6900  152.5210   11.7550 O.2    96  PHE96      -0.2867
    214  CB        16.3880  150.4730    9.9980 C.3    96  PHE96       0.0534
    215  CG        17.5410  149.7090    9.4950 C.ar   96  PHE96      -0.0203
    216  CD1       17.3760  148.4560    8.9720 C.ar   96  PHE96      -0.0042
    217  CD2       18.8220  150.2570    9.5280 C.ar   96  PHE96      -0.0042
    218  CE1       18.4560  147.7360    8.5110 C.ar   96  PHE96      -0.0003
    219  CE2       19.9220  149.5250    9.0670 C.ar   96  PHE96      -0.0003
    220  CZ        19.7270  148.2570    8.5530 C.ar   96  PHE96      -0.0000
    221  N          8.6470  156.7270    5.3200 N.3   101  PHE101     -0.1241
    222  CA         9.6730  156.9320    4.3140 C.3   101  PHE101      0.1605
    223  C          9.1660  157.2680    2.9240 C.2   101  PHE101      0.2264
    224  O          8.0380  156.9910    2.6020 O.2   101  PHE101     -0.2867
    225  CB        10.6490  155.7290    4.2590 C.3   101  PHE101      0.0534
    226  CG        10.0920  154.4380    3.6490 C.ar  101  PHE101     -0.0203
    227  CD1        9.3650  153.5520    4.4070 C.ar  101  PHE101     -0.0042
    228  CD2       10.3920  154.0680    2.3560 C.ar  101  PHE101     -0.0042
    229  CE1        8.9600  152.3150    3.8960 C.ar  101  PHE101     -0.0003
    230  CE2        9.9840  152.8270    1.8420 C.ar  101  PHE101     -0.0003
    231  CZ         9.2290  151.9610    2.6300 C.ar  101  PHE101     -0.0000
    232  N         10.6710  156.5850   -1.1090 N.3   103  THR103     -0.1218
    233  CA        11.6990  156.0110   -2.0200 C.3   103  THR103      0.1862
    234  C         11.3480  156.3970   -3.4580 C.2   103  THR103      0.2287
    235  O         10.2150  156.2140   -3.8790 O.2   103  THR103     -0.2866
    236  CB        11.8450  154.4870   -1.8000 C.3   103  THR103      0.1770
    237  OG1       12.2690  154.2480   -0.4300 O.3   103  THR103     -0.2211
    238  CG2       12.9490  153.9910   -2.7090 C.3   103  THR103      0.0375
    239  N         18.0050  154.2660   -6.4790 N.3   115  LEU115     -0.1245
    240  CA        16.8850  154.8120   -5.7020 C.3   115  LEU115      0.1561
    241  C         17.4870  155.8490   -4.7530 C.2   115  LEU115      0.2260
    242  O         18.6880  155.7980   -4.3910 O.2   115  LEU115     -0.2867
    243  CB        16.1790  153.7610   -4.8290 C.3   115  LEU115      0.0270
    244  CG        15.8670  152.4140   -5.5080 C.3   115  LEU115      0.0019
    245  CD1       15.3900  151.3410   -4.5590 C.3   115  LEU115      0.0001
    246  CD2       14.7950  152.5960   -6.5910 C.3   115  LEU115      0.0001
    247  N         14.0820  158.6530    5.1580 N.3   119  TYR119     -0.1241
    248  CA        13.5020  157.8910    6.2950 C.3   119  TYR119      0.1605
    249  C         13.3410  158.7240    7.5370 C.2   119  TYR119      0.2264
    250  O         14.2800  159.4880    7.9350 O.2   119  TYR119     -0.2867
    251  CB        14.4320  156.7300    6.6260 C.3   119  TYR119      0.0534
    252  CG        14.7400  155.9290    5.3770 C.ar  119  TYR119     -0.0201
    253  CD1       13.9310  154.8680    4.9540 C.ar  119  TYR119     -0.0009
    254  CD2       15.8280  156.2780    4.6240 C.ar  119  TYR119     -0.0009
    255  CE1       14.2420  154.1840    3.7780 C.ar  119  TYR119      0.0417
    256  CE2       16.1420  155.6250    3.4820 C.ar  119  TYR119      0.0417
    257  CZ        15.3470  154.5790    3.0550 C.ar  119  TYR119      0.1957
    258  OH        15.7980  154.0320    1.9240 O.3   119  TYR119     -0.2866
@<TRIPOS>BOND
     1   143   142    2
     2   142   141    1
     3   132   131    2
     4   123   122    2
     5   131   140   am
     6   131   130    1
     7   141   140    1
     8   141   144    1
     9   122   121    1
    10   130   129    1
    11   130   133    1
    12   144   145    1
    13   121   120    1
    14   121   124    1
    15   115   114    2
    16   133   134    1
    17   124   125    1
    18   145   146   ar
    19   145   147   ar
    20   114   113    1
    21   134   135    1
    22   125   126    1
    23   146   148   ar
    24   147   149   ar
    25   111   110    1
    26   103   102    2
    27   246   244    1
    28   113   116    1
    29   113   112    1
    30   239   240    1
    31   135   136    1
    32   116   117    1
    33   110   109   ar
    34   110   108   ar
    35   138   137    1
    36   119   117    1
    37   126   127   ar
    38   126   128   ar
    39   109   107   ar
    40    13    14    1
    41     4     3    2
    42   148   150   ar
    43   240   243    1
    44   240   241    1
    45   102   112   am
    46   102   101    1
    47    14    15    1
    48   149   150   ar
    49   244   243    1
    50   244   245    1
    51   136   137    2
    52    96    95    2
    53   108   106   ar
    54   137   139    1
    55   117   118    1
    56   107   105   ar
    57     3     2    1
    58   150   151    1
    59    10     8   ar
    60    10    11   ar
    61     8     6   ar
    62   241   242    2
    63   106   105   ar
    64   101   100    1
    65   101   104    1
    66   105   104    1
    67    95   100   am
    68    95    94    1
    69    15    17   am
    70    15    16    2
    71   152   153    1
    72   235   234    2
    73    17    18    1
    74    12    11    1
    75    11     9   ar
    76    25    23   ar
    77    97    94    1
    78    97    98    1
    79    97    99    1
    80     6     5    1
    81     6     7   ar
    82     2     5    1
    83     2     1    1
    84   234   233    1
    85    94    93    1
    86    20    19    2
    87    22    23    1
    88    22    21    1
    89   153   156    1
    90   153   154    1
    91    23    24   ar
    92   238   236    1
    93     9     7   ar
    94    18    19    1
    95    18    21    1
    96   158   157    1
    97    19    26   am
    98   156   157    1
    99   233   236    1
   100   233   232    1
   101    93    87   am
   102   236   237    1
   103   154   155    2
   104   157   159    1
   105    88    87    2
   106    87    86    1
   107    26    27    1
   108    91    90   ar
   109    28    27    1
   110    28    29    2
   111    27    30    1
   112    84    82   am
   113    34    32   ar
   114    34    36   ar
   115    32    31   ar
   116    86    89    1
   117    86    85    1
   118    90    89    1
   119    90    92   ar
   120    36    35   ar
   121    30    31    1
   122    82    81    1
   123    82    83    2
   124    31    33   ar
   125    81    80    1
   126    85    78   am
   127   192   190   ar
   128   192   193   ar
   129    35    33   ar
   130   230   228   ar
   131   230   231   ar
   132   258   257    1
   133   190   189   ar
   134   177   175    1
   135   168   166   ar
   136   168   170   ar
   137    78    79    2
   138    78    77    1
   139   228   226   ar
   140   193   191   ar
   141    80    77    1
   142   224   223    2
   143   231   229   ar
   144   166   165   ar
   145   223   222    1
   146   176   175    1
   147   170   169   ar
   148    77    76    1
   149   257   256   ar
   150   257   255   ar
   151   189   191   ar
   152   189   188    1
   153   175   172    1
   154   256   254   ar
   155   226   225    1
   156   226   227   ar
   157   255   253   ar
   158   171   172    1
   159   171   162   am
   160   188   185    1
   161   229   227   ar
   162   183   182    1
   163   165   164    1
   164   165   167   ar
   165   161   162    1
   166   161   160    1
   167   161   164    1
   168   225   222    1
   169   172   173    1
   170   222   221    1
   171    76    64   am
   172   169   167   ar
   173   162   163    2
   174   254   252   ar
   175    44    42    1
   176    65    64    2
   177    52    51    2
   178   253   252   ar
   179   185   184    1
   180   185   186    1
   181    64    63    1
   182   247   248    1
   183    53    51   am
   184   252   251    1
   185   201   199   am
   186   184   180   am
   187   173   174    2
   188    51    50    1
   189   182   179    1
   190   209   207    1
   191   208   207    1
   192    42    43    1
   193    42    41    1
   194   186   187    2
   195   248   251    1
   196   248   249    1
   197   180   179    1
   198   180   181    2
   199    66    63    1
   200    66    67    1
   201   207   206    1
   202    63    62    1
   203   179   178    1
   204   199   198    1
   205   199   200    2
   206    41    38    1
   207    60    59    1
   208   198   195    1
   209    72    74   ar
   210    72    69   ar
   211    50    49    1
   212    57    56    2
   213    58    59    1
   214    58    55    1
   215    62    56   am
   216    74    75   ar
   217   249   250    2
   218    67    69   ar
   219    67    68   ar
   220    56    55    1
   221    49    46    1
   222    69    71   ar
   223   206   203    1
   224    59    61    1
   225    39    38    1
   226    39    40    2
   227    38    37    1
   228   202   203    1
   229   202   196   am
   230   195   196    1
   231   195   194    1
   232    55    54    1
   233   203   204    1
   234   218   220   ar
   235   218   216   ar
   236   220   219   ar
   237   196   197    2
   238    75    73   ar
   239    68    70   ar
   240   216   215   ar
   241   219   217   ar
   242    71    73   ar
   243    71    70   ar
   244    46    47    1
   245    46    45    1
   246    48    47    2
   247   215   217   ar
   248   215   214    1
   249   204   205    2
   250   214   211    1
   251   211   210    1
   252   211   212    1
   253   213   212    2
