@<TRIPOS>MOLECULE
tmp/5m87A00.pdb
 94 88 0 0 0
SMALL
GASTEIGER

@<TRIPOS>ATOM
      1  N        -31.0770   -6.0960  -11.3100 N.3   411  MET411     -0.1245
      2  CA       -31.9990   -5.8160  -10.2130 C.3   411  MET411      0.1570
      3  C        -31.2510   -5.5880   -8.9050 C.2   411  MET411      0.2261
      4  O        -31.4500   -4.5700   -8.2280 O.2   411  MET411     -0.2867
      5  CB       -32.9980   -6.9620  -10.0640 C.3   411  MET411      0.0387
      6  CG       -34.0230   -7.0300  -11.1700 C.3   411  MET411      0.0595
      7  SD       -35.3090   -8.2500  -10.8530 S.3   411  MET411     -0.1393
      8  CE       -36.5260   -7.6980  -12.0400 C.3   411  MET411      0.0692
      9  N        -29.4030   -2.4120   -8.9200 N.3   414  ASP414     -0.1225
     10  CA       -30.2560   -1.2330   -8.9880 C.3   414  ASP414      0.1805
     11  C        -31.0220   -0.9880   -7.6950 C.2   414  ASP414      0.2598
     12  O        -31.4810    0.1370   -7.4670 O.2   414  ASP414     -0.2718
     13  CB       -31.2360   -1.3510  -10.1570 C.3   414  ASP414      0.1424
     14  CG       -30.5950   -1.0080  -11.4860 C.2   414  ASP414      0.3668
     15  OD1      -29.3750   -1.2320  -11.6270 O.co2 414  ASP414     -0.2456
     16  OD2      -31.3040   -0.5100  -12.3860 O.co2 414  ASP414     -0.2456
     17  N        -31.1640   -2.0030   -6.8470 N.am  415  SER415     -0.1952
     18  CA       -31.8540   -1.8320   -5.5760 C.3   415  SER415      0.1924
     19  C        -30.9280   -1.2110   -4.5390 C.2   415  SER415      0.2314
     20  O        -29.7240   -1.4850   -4.5120 O.2   415  SER415     -0.2863
     21  CB       -32.3740   -3.1750   -5.0610 C.3   415  SER415      0.2116
     22  OG       -31.3090   -4.0200   -4.6620 O.3   415  SER415     -0.2180
     23  N        -29.1560    2.9220  -15.3850 N.3   430  LYS430     -0.1231
     24  CA       -30.4550    2.2670  -15.2630 C.3   430  LYS430      0.1693
     25  C        -31.1170    2.1100  -16.6260 C.2   430  LYS430      0.2591
     26  O        -31.6830    1.0550  -16.9340 O.2   430  LYS430     -0.2718
     27  CB       -31.3680    3.0570  -14.3230 C.3   430  LYS430      0.0285
     28  CG       -30.9710    3.0220  -12.8580 C.3   430  LYS430      0.0035
     29  CD       -31.9480    3.8300  -12.0150 C.3   430  LYS430      0.0206
     30  CE       -31.4550    4.0040  -10.5860 C.3   430  LYS430      0.1093
     31  NZ       -31.2090    2.7040   -9.9020 N.3   430  LYS430     -0.1314
     32  N        -31.0510    3.1510  -17.4570 N.am  431  VAL431     -0.1980
     33  CA       -31.6690    3.0920  -18.7780 C.3   431  VAL431      0.1595
     34  C        -30.8640    2.1860  -19.7020 C.2   431  VAL431      0.2287
     35  O        -31.4090    1.2690  -20.3280 O.2   431  VAL431     -0.2864
     36  CB       -31.8160    4.5080  -19.3640 C.3   431  VAL431      0.0276
     37  CG1      -32.4270    4.4450  -20.7550 C.3   431  VAL431      0.0022
     38  CG2      -32.6590    5.3800  -18.4450 C.3   431  VAL431      0.0022
     39  N        -31.0760   -1.5770  -18.4800 N.3   434  TRP434     -0.1227
     40  CA       -32.3380   -2.2520  -18.7630 C.3   434  TRP434      0.1737
     41  C        -32.5500   -2.4300  -20.2590 C.2   434  TRP434      0.2595
     42  O        -33.0700   -3.4630  -20.6980 O.2   434  TRP434     -0.2718
     43  CB       -33.4990   -1.4860  -18.1310 C.3   434  TRP434      0.0564
     44  CG       -33.7130   -1.8580  -16.7000 C.ar  434  TRP434      0.0003
     45  CD1      -33.3630   -1.1310  -15.6000 C.ar  434  TRP434      0.0946
     46  CD2      -34.3110   -3.0640  -16.2110 C.ar  434  TRP434      0.0152
     47  NE1      -33.7140   -1.8070  -14.4560 N.ar  434  TRP434     -0.2442
     48  CE2      -34.2960   -2.9980  -14.8040 C.ar  434  TRP434      0.0810
     49  CE3      -34.8560   -4.1950  -16.8280 C.ar  434  TRP434      0.0012
     50  CZ2      -34.8080   -4.0170  -14.0030 C.ar  434  TRP434      0.0191
     51  CZ3      -35.3650   -5.2050  -16.0310 C.ar  434  TRP434      0.0001
     52  CH2      -35.3380   -5.1090  -14.6330 C.ar  434  TRP434      0.0015
     53  N        -32.1500   -1.4410  -21.0590 N.am  435  LEU435     -0.1980
     54  CA       -32.2230   -1.5880  -22.5090 C.3   435  LEU435      0.1596
     55  C        -31.3840   -2.7720  -22.9750 C.2   435  LEU435      0.2287
     56  O        -31.8500   -3.6130  -23.7560 O.2   435  LEU435     -0.2864
     57  CB       -31.7640   -0.2950  -23.1860 C.3   435  LEU435      0.0297
     58  CG       -31.8500   -0.2340  -24.7110 C.3   435  LEU435      0.0022
     59  CD1      -33.2980   -0.3250  -25.1660 C.3   435  LEU435      0.0001
     60  CD2      -31.1940    1.0360  -25.2320 C.3   435  LEU435      0.0001
     61  N        -32.9650   -6.1480  -21.7990 N.3   438  ILE438     -0.1245
     62  CA       -34.1500   -6.4810  -22.5860 C.3   438  ILE438      0.1561
     63  C        -33.7470   -6.9680  -23.9740 C.2   438  ILE438      0.2260
     64  O        -34.2400   -7.9940  -24.4630 O.2   438  ILE438     -0.2867
     65  CB       -35.1000   -5.2720  -22.6630 C.3   438  ILE438      0.0252
     66  CG1      -35.7260   -4.9950  -21.2930 C.3   438  ILE438      0.0019
     67  CG2      -36.1760   -5.5060  -23.7120 C.3   438  ILE438      0.0019
     68  CD1      -36.4980   -3.6930  -21.2240 C.3   438  ILE438      0.0001
     69  N        -34.4300  -10.8160  -25.2390 N.3   442  LEU442     -0.1245
     70  CA       -35.2450  -11.0510  -26.4270 C.3   442  LEU442      0.1561
     71  C        -34.4510  -11.7930  -27.4950 C.2   442  LEU442      0.2260
     72  O        -34.9160  -12.7980  -28.0460 O.2   442  LEU442     -0.2867
     73  CB       -35.7720   -9.7230  -26.9730 C.3   442  LEU442      0.0270
     74  CG       -37.1610   -9.2630  -26.5220 C.3   442  LEU442      0.0019
     75  CD1      -38.2310  -10.2230  -27.0240 C.3   442  LEU442      0.0001
     76  CD2      -37.2380   -9.1090  -25.0070 C.3   442  LEU442      0.0001
     77  N        -37.7130   -8.6460   -6.6200 N.3   491  ARG491     -0.1245
     78  CA       -38.5180   -7.4680   -6.3150 C.3   491  ARG491      0.1563
     79  C        -39.2110   -7.5750   -4.9640 C.2   491  ARG491      0.2260
     80  O        -39.5680   -6.5450   -4.3820 O.2   491  ARG491     -0.2867
     81  CB       -39.5490   -7.2220   -7.4170 C.3   491  ARG491      0.0307
     82  CG       -38.9550   -6.6400   -8.6900 C.3   491  ARG491      0.0489
     83  CD       -40.0260   -6.0340   -9.5870 C.3   491  ARG491      0.2205
     84  NE       -40.5810   -4.7990   -9.0360 N.pl3 491  ARG491     -0.0865
     85  CZ       -41.7170   -4.7270   -8.3490 C.cat 491  ARG491      0.5346
     86  NH1      -42.4330   -5.8200   -8.1240 N.pl3 491  ARG491      0.1354
     87  NH2      -42.1400   -3.5580   -7.8890 N.pl3 491  ARG491      0.1354
     88  N        -36.5540   -6.1960   -2.8730 N.3   494  THR494     -0.1218
     89  CA       -36.5840   -4.7420   -3.0040 C.3   494  THR494      0.1862
     90  C        -38.0090   -4.2490   -3.2390 C.2   494  THR494      0.2287
     91  O        -38.2390   -3.3070   -3.9980 O.2   494  THR494     -0.2866
     92  CB       -35.6770   -4.2470   -4.1520 C.3   494  THR494      0.1770
     93  OG1      -35.8670   -2.8390   -4.3440 O.3   494  THR494     -0.2211
     94  CG2      -35.9870   -4.9780   -5.4490 C.3   494  THR494      0.0375
@<TRIPOS>BOND
     1    72    71    2
     2    71    70    1
     3    75    74    1
     4    73    74    1
     5    73    70    1
     6    74    76    1
     7    70    69    1
     8    60    58    1
     9    59    58    1
    10    58    57    1
    11    64    63    2
    12    63    62    1
    13    56    55    2
    14    67    65    1
    15    57    54    1
    16    55    54    1
    17    65    62    1
    18    65    66    1
    19    62    61    1
    20    54    53    1
    21    66    68    1
    22    53    41   am
    23    37    36    1
    24    42    41    2
    25    35    34    2
    26    41    40    1
    27    34    33    1
    28    36    33    1
    29    36    38    1
    30    33    32    1
    31    40    39    1
    32    40    43    1
    33    43    44    1
    34    32    25   am
    35    26    25    2
    36    49    46   ar
    37    49    51   ar
    38    44    46   ar
    39    44    45   ar
    40    25    24    1
    41    46    48   ar
    42    51    52   ar
    43    45    47   ar
    44    23    24    1
    45    24    27    1
    46    48    47   ar
    47    48    50   ar
    48    52    50   ar
    49    27    28    1
    50    28    29    1
    51    16    14   ar
    52     8     7    1
    53    29    30    1
    54    15    14   ar
    55    14    13    1
    56     1     2    1
    57     6     7    1
    58     6     5    1
    59    30    31    1
    60     2     5    1
    61     2     3    1
    62    13    10    1
    63    83    84    1
    64    83    82    1
    65    84    85    2
    66    10     9    1
    67    10    11    1
    68     3     4    2
    69    82    81    1
    70    85    86    1
    71    85    87    1
    72    11    12    2
    73    11    17   am
    74    81    78    1
    75    17    18    1
    76    77    78    1
    77    78    79    1
    78    18    21    1
    79    18    19    1
    80    94    92    1
    81    21    22    1
    82    79    80    2
    83    19    20    2
    84    93    92    1
    85    92    89    1
    86    91    90    2
    87    90    89    1
    88    89    88    1
