@<TRIPOS>MOLECULE
tmp/5m8bA01.pdb
 108 103 0 0 0
SMALL
GASTEIGER

@<TRIPOS>ATOM
      1  N         -0.4470   24.0440   48.3480 N.3    15  ALA15      -0.1231
      2  CA        -0.2690   23.3490   49.6090 C.3    15  ALA15       0.1694
      3  C         -0.7740   24.2290   50.7560 C.2    15  ALA15       0.2592
      4  O         -0.9120   25.4490   50.5990 O.2    15  ALA15      -0.2718
      5  CB         1.2040   23.0100   49.8210 C.3    15  ALA15       0.0304
      6  N         -1.1140   23.6020   51.9020 N.am   16  ASP16      -0.1974
      7  CA        -1.6370   24.2840   53.0870 C.3    16  ASP16       0.1709
      8  C         -2.8940   25.0700   52.7130 C.2    16  ASP16       0.2293
      9  O         -2.9830   26.2780   52.9730 O.2    16  ASP16      -0.2864
     10  CB        -0.5510   25.2120   53.6880 C.3    16  ASP16       0.1436
     11  CG         0.8080   24.5080   53.7310 C.2    16  ASP16       0.3671
     12  OD1        0.8960   23.3860   54.3090 O.co2  16  ASP16      -0.2456
     13  OD2        1.7350   25.0240   53.1460 O.co2  16  ASP16      -0.2456
     14  N          0.0210   28.1440   50.3210 N.3    32  SER32      -0.1217
     15  CA         1.4240   28.3240   49.9390 C.3    32  SER32       0.1889
     16  C          1.5490   28.1530   48.4210 C.2    32  SER32       0.2288
     17  O          1.1160   27.1250   47.8650 O.2    32  SER32      -0.2866
     18  CB         2.3080   27.2920   50.6120 C.3    32  SER32       0.2089
     19  OG         2.2020   27.3990   52.0240 O.3    32  SER32      -0.2183
     20  N          6.9530   30.0080   47.0260 N.3    36  TYR36      -0.1241
     21  CA         6.9880   30.4900   48.4220 C.3    36  TYR36       0.1605
     22  C          7.4550   31.9520   48.5480 C.2    36  TYR36       0.2264
     23  O          8.2220   32.2900   49.4580 O.2    36  TYR36      -0.2867
     24  CB         7.8970   29.6010   49.2580 C.3    36  TYR36       0.0534
     25  CG         7.7290   28.1200   49.0700 C.ar   36  TYR36      -0.0201
     26  CD1        6.4990   27.5110   49.2800 C.ar   36  TYR36      -0.0009
     27  CD2        8.8320   27.2990   48.8080 C.ar   36  TYR36      -0.0009
     28  CE1        6.3420   26.1360   49.1590 C.ar   36  TYR36       0.0417
     29  CE2        8.6900   25.9190   48.7070 C.ar   36  TYR36       0.0417
     30  CZ         7.4490   25.3380   48.9100 C.ar   36  TYR36       0.1957
     31  OH         7.2950   23.9760   48.8630 O.3    36  TYR36      -0.2866
     32  N          5.2070   30.7280   53.9170 N.3    74  TRP74      -0.1241
     33  CA         4.4080   29.5270   54.0700 C.3    74  TRP74       0.1605
     34  C          3.1190   29.6560   54.8280 C.2    74  TRP74       0.2264
     35  O          3.0420   30.2600   55.9030 O.2    74  TRP74      -0.2867
     36  CB         5.2370   28.4540   54.8110 C.3    74  TRP74       0.0550
     37  CG         6.4020   27.8710   54.0790 C.ar   74  TRP74       0.0003
     38  CD1        6.7600   28.0610   52.7700 C.ar   74  TRP74       0.0946
     39  CD2        7.3950   27.0120   54.6410 C.ar   74  TRP74       0.0152
     40  NE1        7.8740   27.3180   52.4750 N.ar   74  TRP74      -0.2442
     41  CE2        8.3170   26.7080   53.6140 C.ar   74  TRP74       0.0810
     42  CE3        7.6190   26.4900   55.9250 C.ar   74  TRP74       0.0012
     43  CZ2        9.4140   25.8690   53.8160 C.ar   74  TRP74       0.0191
     44  CZ3        8.6870   25.6080   56.1010 C.ar   74  TRP74       0.0001
     45  CH2        9.5980   25.3650   55.0720 C.ar   74  TRP74       0.0015
     46  N         14.5880   24.2730   59.4340 N.3   103  PHE103     -0.1241
     47  CA        14.1550   25.5440   58.8430 C.3   103  PHE103      0.1605
     48  C         14.1050   26.6000   59.9450 C.2   103  PHE103      0.2264
     49  O         14.0550   26.2660   61.1360 O.2   103  PHE103     -0.2867
     50  CB        12.8100   25.4180   58.1430 C.3   103  PHE103      0.0534
     51  CG        12.8750   24.6970   56.8200 C.ar  103  PHE103     -0.0203
     52  CD1       13.4240   25.3100   55.7070 C.ar  103  PHE103     -0.0042
     53  CD2       12.3810   23.4090   56.6870 C.ar  103  PHE103     -0.0042
     54  CE1       13.4540   24.6570   54.4780 C.ar  103  PHE103     -0.0003
     55  CE2       12.4880   22.7210   55.4760 C.ar  103  PHE103     -0.0003
     56  CZ        13.0330   23.3430   54.3820 C.ar  103  PHE103     -0.0000
     57  N          5.8810   13.9510   54.9950 N.3   221  THR221     -0.1218
     58  CA         4.9140   14.4080   54.0110 C.3   221  THR221      0.1862
     59  C          4.7310   13.4780   52.7900 C.2   221  THR221      0.2287
     60  O          4.1750   13.8850   51.7810 O.2   221  THR221     -0.2866
     61  CB         5.2760   15.8360   53.5960 C.3   221  THR221      0.1770
     62  OG1        6.5560   15.7930   53.0090 O.3   221  THR221     -0.2211
     63  CG2        5.3130   16.8090   54.7810 C.3   221  THR221      0.0375
     64  N         -0.7060   14.3740   47.6440 N.3   284  ARG284     -0.1245
     65  CA         0.0630   14.0670   46.4500 C.3   284  ARG284      0.1563
     66  C         -0.5190   12.8630   45.7540 C.2   284  ARG284      0.2260
     67  O         -1.1790   12.0530   46.3960 O.2   284  ARG284     -0.2867
     68  CB         1.5170   13.7380   46.8470 C.3   284  ARG284      0.0307
     69  CG         2.2830   14.8820   47.4760 C.3   284  ARG284      0.0489
     70  CD         3.7580   14.5620   47.6310 C.3   284  ARG284      0.2205
     71  NE         4.5670   15.7970   47.6360 N.pl3 284  ARG284     -0.0865
     72  CZ         4.9450   16.4700   46.5540 C.cat 284  ARG284      0.5346
     73  NH1        4.6010   16.0440   45.3340 N.pl3 284  ARG284      0.1354
     74  NH2        5.6800   17.5580   46.6740 N.pl3 284  ARG284      0.1354
     75  N          9.5870   11.6190   44.1130 N.3   289  ILE289     -0.1245
     76  CA        10.0160   13.0110   43.8670 C.3   289  ILE289      0.1561
     77  C         11.4790   12.9920   43.4000 C.2   289  ILE289      0.2260
     78  O         12.3000   12.3380   44.0300 O.2   289  ILE289     -0.2867
     79  CB         9.8250   13.8500   45.1510 C.3   289  ILE289      0.0252
     80  CG1        8.2980   13.9960   45.4640 C.3   289  ILE289      0.0019
     81  CG2       10.4830   15.2460   44.9960 C.3   289  ILE289      0.0019
     82  CD1        7.9560   14.4330   46.8690 C.3   289  ILE289      0.0001
     83  N         12.9630   18.0090   47.1350 N.3   293  PRO293     -0.2102
     84  CA        11.5190   17.9020   47.3900 C.3   293  PRO293      0.1504
     85  C         10.8170   19.1940   47.7810 C.2   293  PRO293      0.2575
     86  O          9.6450   19.3150   47.5270 O.2   293  PRO293     -0.2718
     87  CB        11.4040   16.8350   48.4930 C.3   293  PRO293      0.0282
     88  CG        12.7280   16.6690   49.0280 C.3   293  PRO293      0.0208
     89  CD        13.7360   17.1190   48.0260 C.3   293  PRO293      0.0893
     90  N         11.5280   20.1730   48.3400 N.am  294  LEU294     -0.1980
     91  CA        10.9790   21.4910   48.6740 C.3   294  LEU294      0.1596
     92  C         10.3540   22.1650   47.4480 C.2   294  LEU294      0.2287
     93  O          9.3930   22.9110   47.5740 O.2   294  LEU294     -0.2864
     94  CB        12.1450   22.3460   49.2230 C.3   294  LEU294      0.0297
     95  CG        11.8660   23.7610   49.6570 C.3   294  LEU294      0.0022
     96  CD1       10.7470   23.8250   50.6780 C.3   294  LEU294      0.0001
     97  CD2       13.1230   24.3770   50.2720 C.3   294  LEU294      0.0001
     98  N          1.8070   19.0490   45.4930 N.3   299  ARG299     -0.1245
     99  CA         0.8590   18.8450   46.5630 C.3   299  ARG299      0.1563
    100  C         -0.3580   19.5900   46.0310 C.2   299  ARG299      0.2260
    101  O         -0.2580   20.7940   45.7610 O.2   299  ARG299     -0.2867
    102  CB         1.3030   19.4470   47.8880 C.3   299  ARG299      0.0307
    103  CG         2.2820   18.4950   48.5950 C.3   299  ARG299      0.0489
    104  CD         2.9140   19.1420   49.8190 C.3   299  ARG299      0.2205
    105  NE         3.7170   20.2770   49.3970 N.pl3 299  ARG299     -0.0865
    106  CZ         4.2150   21.2110   50.2000 C.cat 299  ARG299      0.5346
    107  NH1        4.0220   21.1430   51.5130 N.pl3 299  ARG299      0.1354
    108  NH2        4.8900   22.2310   49.6950 N.pl3 299  ARG299      0.1354
@<TRIPOS>BOND
     1    77    76    1
     2    77    78    2
     3    76    75    1
     4    76    79    1
     5    81    79    1
     6    79    80    1
     7    73    72    1
     8    80    82    1
     9    98    99    1
    10    66    67    2
    11    66    65    1
    12   101   100    2
    13   100    99    1
    14    65    68    1
    15    65    64    1
    16    72    74    1
    17    72    71    2
    18    99   102    1
    19    68    69    1
    20    20    21    1
    21    83    84    1
    22    83    89    1
    23    84    85    1
    24    84    87    1
    25    92    93    2
    26    92    91    1
    27    69    70    1
    28    86    85    2
    29    70    71    1
    30    85    90   am
    31    17    16    2
    32   102   103    1
    33    89    88    1
    34    90    91    1
    35     1     2    1
    36    16    15    1
    37    21    22    1
    38    21    24    1
    39    87    88    1
    40    22    23    2
    41   103   104    1
    42    91    94    1
    43    29    27   ar
    44    29    30   ar
    45    27    25   ar
    46    31    30    1
    47    30    28   ar
    48    25    24    1
    49    25    26   ar
    50    28    26   ar
    51    94    95    1
    52   105   104    1
    53   105   106    2
    54     2     5    1
    55     2     3    1
    56    95    97    1
    57    95    96    1
    58   108   106    1
    59    15    14    1
    60    15    18    1
    61   106   107    1
    62     4     3    2
    63    18    19    1
    64     3     6   am
    65    60    59    2
    66     6     7    1
    67    40    38   ar
    68    40    41   ar
    69     8     9    2
    70     8     7    1
    71    38    37   ar
    72    59    58    1
    73    62    61    1
    74     7    10    1
    75    13    11   ar
    76    61    58    1
    77    61    63    1
    78    41    43   ar
    79    41    39   ar
    80    10    11    1
    81    11    12   ar
    82    43    45   ar
    83    32    33    1
    84    58    57    1
    85    33    36    1
    86    33    34    1
    87    37    39   ar
    88    37    36    1
    89    56    54   ar
    90    56    55   ar
    91    54    52   ar
    92    39    42   ar
    93    34    35    2
    94    45    44   ar
    95    55    53   ar
    96    52    51   ar
    97    42    44   ar
    98    53    51   ar
    99    51    50    1
   100    50    47    1
   101    47    46    1
   102    47    48    1
   103    48    49    2
