@<TRIPOS>MOLECULE
tmp/5m8bB03.pdb
 112 112 0 0 0
SMALL
GASTEIGER

@<TRIPOS>ATOM
      1  N          0.4230   25.9280   25.4360 N.3    18  TYR18      -0.1227
      2  CA         0.4930   25.0700   24.2530 C.3    18  TYR18       0.1736
      3  C         -0.3630   23.8340   24.4810 C.2    18  TYR18       0.2595
      4  O         -0.1290   23.0870   25.4560 O.2    18  TYR18      -0.2718
      5  CB         1.9570   24.7010   23.9790 C.3    18  TYR18       0.0548
      6  CG         2.1090   23.8010   22.7900 C.ar   18  TYR18      -0.0200
      7  CD1        1.9830   22.4250   22.9200 C.ar   18  TYR18      -0.0009
      8  CD2        2.2560   24.3230   21.5140 C.ar   18  TYR18      -0.0009
      9  CE1        2.0630   21.5890   21.8220 C.ar   18  TYR18       0.0417
     10  CE2        2.3210   23.4930   20.4000 C.ar   18  TYR18       0.0417
     11  CZ         2.2420   22.1210   20.5610 C.ar   18  TYR18       0.1957
     12  OH         2.3610   21.2920   19.4740 O.3    18  TYR18      -0.2866
     13  N         -1.3720   23.6350   23.6170 N.am   19  ILE19      -0.1966
     14  CA        -2.2910   22.4970   23.6880 C.3    19  ILE19       0.1727
     15  C         -2.1760   21.6910   22.4380 C.2    19  ILE19       0.2616
     16  O         -2.1950   22.2610   21.3570 O.2    19  ILE19      -0.2715
     17  CB        -3.7640   22.8970   23.9930 C.3    19  ILE19       0.0290
     18  CG1       -3.8340   23.5450   25.3940 C.3    19  ILE19       0.0022
     19  CG2       -4.6930   21.6850   23.9320 C.3    19  ILE19       0.0023
     20  CD1       -5.1700   24.1240   25.7860 C.3    19  ILE19       0.0001
     21  N         -2.0350   20.3700   22.5870 N.am   20  TYR20      -0.1960
     22  CA        -1.9680   19.4380   21.4730 C.3    20  TYR20       0.1771
     23  C         -2.9680   18.2970   21.7240 C.2    20  TYR20       0.2619
     24  O         -2.8880   17.5870   22.7430 O.2    20  TYR20      -0.2715
     25  CB        -0.5390   18.9170   21.2680 C.3    20  TYR20       0.0574
     26  CG        -0.4580   17.7330   20.3370 C.ar   20  TYR20      -0.0198
     27  CD1       -0.8240   17.8460   18.9980 C.ar   20  TYR20      -0.0009
     28  CD2       -0.1780   16.4670   20.8220 C.ar   20  TYR20      -0.0009
     29  CE1       -0.8620   16.7250   18.1600 C.ar   20  TYR20       0.0417
     30  CE2       -0.1350   15.3640   19.9830 C.ar   20  TYR20       0.0417
     31  CZ        -0.4710   15.4920   18.6510 C.ar   20  TYR20       0.1957
     32  OH        -0.4910   14.3520   17.8980 O.3    20  TYR20      -0.2866
     33  N         -3.9290   18.1550   20.8010 N.am   21  LYS21      -0.1977
     34  CA        -4.9300   17.0970   20.8530 C.3    21  LYS21       0.1596
     35  C         -4.3770   15.8620   20.1450 C.2    21  LYS21       0.2287
     36  O         -4.2330   15.8510   18.9270 O.2    21  LYS21      -0.2864
     37  CB        -6.2320   17.5600   20.2320 C.3    21  LYS21       0.0298
     38  CG        -7.3950   16.6160   20.5020 C.3    21  LYS21       0.0038
     39  CD        -8.6210   17.0860   19.7620 C.3    21  LYS21       0.0206
     40  CE        -9.8330   16.2580   20.1150 C.3    21  LYS21       0.1093
     41  NZ       -11.0680   16.8280   19.5120 N.3    21  LYS21      -0.1314
     42  N          5.5130   18.1840   20.6660 N.3    79  HIS79      -0.1241
     43  CA         5.1680   17.7620   19.3120 C.3    79  HIS79       0.1621
     44  C          5.3690   16.2580   19.1460 C.2    79  HIS79       0.2264
     45  O          6.2780   15.6700   19.7290 O.2    79  HIS79      -0.2867
     46  CB         6.0260   18.5260   18.3030 C.3    79  HIS79       0.0745
     47  CG         5.6930   19.9810   18.2290 C.ar   79  HIS79       0.0817
     48  ND1        4.7590   20.4680   17.3300 N.ar   79  HIS79      -0.2268
     49  CD2        6.1260   21.0030   19.0010 C.ar   79  HIS79       0.1154
     50  CE1        4.7200   21.7780   17.5370 C.ar   79  HIS79       0.1986
     51  NE2        5.5300   22.1360   18.5330 N.ar   79  HIS79      -0.2212
     52  N          8.8190   26.6090   17.3940 N.3   142  THR142     -0.1203
     53  CA         7.6950   25.7370   17.0490 C.3   142  THR142      0.1994
     54  C          8.0480   25.0520   15.7460 C.2   142  THR142      0.2618
     55  O          9.0020   25.4480   15.0670 O.2   142  THR142     -0.2717
     56  CB         6.3700   26.5080   16.9720 C.3   142  THR142      0.1784
     57  OG1        5.3220   25.5700   16.8680 O.3   142  THR142     -0.2211
     58  CG2        6.2910   27.4510   15.7590 C.3   142  THR142      0.0376
     59  N          7.3320   23.9830   15.4300 N.am  143  VAL143     -0.1965
     60  CA         7.5510   23.2210   14.2030 C.3   143  VAL143      0.1727
     61  C          6.2430   22.9890   13.4880 C.2   143  VAL143      0.2616
     62  O          5.1960   22.9440   14.1230 O.2   143  VAL143     -0.2715
     63  CB         8.2830   21.8650   14.4270 C.3   143  VAL143      0.0290
     64  CG1        9.7390   22.0560   14.8670 C.3   143  VAL143      0.0023
     65  CG2        7.5310   20.9780   15.3890 C.3   143  VAL143      0.0023
     66  N          6.3060   22.8010   12.1840 N.am  144  PHE144     -0.1974
     67  CA         5.1430   22.4150   11.3840 C.3   144  PHE144      0.1639
     68  C          5.5770   21.6550   10.1730 C.2   144  PHE144      0.2290
     69  O          6.6640   21.8720    9.6280 O.2   144  PHE144     -0.2864
     70  CB         4.2220   23.5890   11.0000 C.3   144  PHE144      0.0560
     71  CG         4.7510   24.5150    9.9200 C.ar  144  PHE144     -0.0200
     72  CD1        5.7430   25.4410   10.2020 C.ar  144  PHE144     -0.0042
     73  CD2        4.2220   24.4900    8.6350 C.ar  144  PHE144     -0.0042
     74  CE1        6.1660   26.3480    9.2320 C.ar  144  PHE144     -0.0003
     75  CE2        4.7010   25.3460    7.6500 C.ar  144  PHE144     -0.0003
     76  CZ         5.6780   26.2670    7.9490 C.ar  144  PHE144     -0.0000
     77  N          3.2150   30.7430   15.9910 N.3   204  ALA204     -0.1231
     78  CA         2.3360   29.5690   15.9420 C.3   204  ALA204      0.1694
     79  C          1.8290   29.4830   14.5260 C.2   204  ALA204      0.2591
     80  O          1.6520   30.5210   13.9000 O.2   204  ALA204     -0.2718
     81  CB         1.1710   29.7020   16.9030 C.3   204  ALA204      0.0304
     82  N          1.5650   28.2790   14.0360 N.am  205  VAL205     -0.1980
     83  CA         1.1900   28.0480   12.6320 C.3   205  VAL205      0.1595
     84  C         -0.1250   27.3600   12.5230 C.2   205  VAL205      0.2287
     85  O         -0.3380   26.3370   13.1760 O.2   205  VAL205     -0.2864
     86  CB         2.2980   27.2480   11.8980 C.3   205  VAL205      0.0276
     87  CG1        1.9290   27.0100   10.4360 C.3   205  VAL205      0.0022
     88  CG2        3.6530   27.9470   12.0190 C.3   205  VAL205      0.0022
     89  N         -1.3220   29.3480   20.7130 N.3   267  SER267     -0.1202
     90  CA        -1.2750   28.0840   20.0270 C.3   267  SER267      0.2020
     91  C         -2.7060   27.8510   19.5390 C.2   267  SER267      0.2619
     92  O         -3.5890   28.7080   19.7410 O.2   267  SER267     -0.2717
     93  CB        -0.7210   26.9650   20.9190 C.3   267  SER267      0.2103
     94  OG        -1.5960   26.6360   21.9820 O.3   267  SER267     -0.2182
     95  N         -2.9100   26.7640   18.8310 N.am  268  PHE268     -0.1961
     96  CA        -4.1780   26.4130   18.2130 C.3   268  PHE268      0.1771
     97  C         -4.5240   24.9900   18.5090 C.2   268  PHE268      0.2620
     98  O         -3.6450   24.1350   18.4910 O.2   268  PHE268     -0.2715
     99  CB        -4.0690   26.5460   16.6970 C.3   268  PHE268      0.0574
    100  CG        -3.6620   27.9250   16.2120 C.ar  268  PHE268     -0.0200
    101  CD1       -4.5640   28.9830   16.2420 C.ar  268  PHE268     -0.0042
    102  CD2       -2.4170   28.1390   15.6370 C.ar  268  PHE268     -0.0042
    103  CE1       -4.2070   30.2380   15.7610 C.ar  268  PHE268     -0.0003
    104  CE2       -2.0560   29.4060   15.1620 C.ar  268  PHE268     -0.0003
    105  CZ        -2.9840   30.4300   15.1650 C.ar  268  PHE268     -0.0000
    106  N         -5.7890   24.7180   18.7210 N.am  269  THR269     -0.1951
    107  CA        -6.2590   23.3430   18.8520 C.3   269  THR269      0.1897
    108  C         -7.6540   23.2410   18.2930 C.2   269  THR269      0.2313
    109  O         -8.1280   24.1630   17.6080 O.2   269  THR269     -0.2863
    110  CB        -6.0730   22.8260   20.3110 C.3   269  THR269      0.1794
    111  OG1       -6.2750   21.4050   20.3120 O.3   269  THR269     -0.2208
    112  CG2       -6.9830   23.5030   21.3130 C.3   269  THR269      0.0378
@<TRIPOS>BOND
     1    75    76   ar
     2    75    73   ar
     3    76    74   ar
     4    73    71   ar
     5    74    72   ar
     6    69    68    2
     7    71    72   ar
     8    71    70    1
     9    68    67    1
    10    87    86    1
    11    70    67    1
    12    67    66    1
    13    86    88    1
    14    86    83    1
    15    66    61   am
    16    84    83    1
    17    84    85    2
    18    83    82    1
    19    61    62    2
    20    61    60    1
    21    80    79    2
    22    82    79   am
    23    60    63    1
    24    60    59    1
    25    63    64    1
    26    63    65    1
    27    79    78    1
    28    55    54    2
    29   104   105   ar
    30   104   102   ar
    31   105   103   ar
    32    59    54   am
    33   102   100   ar
    34    54    53    1
    35    58    56    1
    36   103   101   ar
    37    78    77    1
    38    78    81    1
    39   100   101   ar
    40   100    99    1
    41    99    96    1
    42    57    56    1
    43    56    53    1
    44    53    52    1
    45    48    50   ar
    46    48    47   ar
    47    50    51   ar
    48   109   108    2
    49    32    31    1
    50    29    31   ar
    51    29    27   ar
    52    96    97    1
    53    96    95    1
    54    47    46    1
    55    47    49   ar
    56   108   107    1
    57    46    43    1
    58    98    97    2
    59    97   106   am
    60    51    49   ar
    61    31    30   ar
    62   106   107    1
    63    95    91   am
    64   107   110    1
    65    36    35    2
    66    27    26   ar
    67    44    43    1
    68    44    45    2
    69    43    42    1
    70    12    11    1
    71    41    40    1
    72    91    92    2
    73    91    90    1
    74    39    40    1
    75    39    38    1
    76    30    28   ar
    77    90    89    1
    78    90    93    1
    79    35    34    1
    80    37    38    1
    81    37    34    1
    82   110   111    1
    83   110   112    1
    84    26    28   ar
    85    26    25    1
    86    10    11   ar
    87    10     8   ar
    88    11     9   ar
    89    33    34    1
    90    33    23   am
    91    93    94    1
    92    25    22    1
    93    16    15    2
    94    22    23    1
    95    22    21    1
    96     8     6   ar
    97    23    24    2
    98     9     7   ar
    99    15    21   am
   100    15    14    1
   101     6     7   ar
   102     6     5    1
   103    13    14    1
   104    13     3   am
   105    14    17    1
   106    19    17    1
   107     5     2    1
   108    17    18    1
   109     2     3    1
   110     2     1    1
   111     3     4    2
   112    18    20    1
