@<TRIPOS>MOLECULE
tmp/5m8bA00.pdb
 102 98 0 0 0
SMALL
GASTEIGER

@<TRIPOS>ATOM
      1  N         -1.1140   23.6020   51.9020 N.3    16  ASP16      -0.1239
      2  CA        -1.6370   24.2840   53.0870 C.3    16  ASP16       0.1674
      3  C         -2.8940   25.0700   52.7130 C.2    16  ASP16       0.2266
      4  O         -2.9830   26.2780   52.9730 O.2    16  ASP16      -0.2867
      5  CB        -0.5510   25.2120   53.6880 C.3    16  ASP16       0.1410
      6  CG         0.8080   24.5080   53.7310 C.2    16  ASP16       0.3668
      7  OD1        0.8960   23.3860   54.3090 O.co2  16  ASP16      -0.2456
      8  OD2        1.7350   25.0240   53.1460 O.co2  16  ASP16      -0.2456
      9  N          5.2070   30.7280   53.9170 N.3    74  TRP74      -0.1227
     10  CA         4.4080   29.5270   54.0700 C.3    74  TRP74       0.1737
     11  C          3.1190   29.6560   54.8280 C.2    74  TRP74       0.2595
     12  O          3.0420   30.2600   55.9030 O.2    74  TRP74      -0.2718
     13  CB         5.2370   28.4540   54.8110 C.3    74  TRP74       0.0564
     14  CG         6.4020   27.8710   54.0790 C.ar   74  TRP74       0.0003
     15  CD1        6.7600   28.0610   52.7700 C.ar   74  TRP74       0.0946
     16  CD2        7.3950   27.0120   54.6410 C.ar   74  TRP74       0.0152
     17  NE1        7.8740   27.3180   52.4750 N.ar   74  TRP74      -0.2442
     18  CE2        8.3170   26.7080   53.6140 C.ar   74  TRP74       0.0810
     19  CE3        7.6190   26.4900   55.9250 C.ar   74  TRP74       0.0012
     20  CZ2        9.4140   25.8690   53.8160 C.ar   74  TRP74       0.0191
     21  CZ3        8.6870   25.6080   56.1010 C.ar   74  TRP74       0.0001
     22  CH2        9.5980   25.3650   55.0720 C.ar   74  TRP74       0.0015
     23  N          2.1330   28.9220   54.3110 N.am   75  ALA75      -0.1980
     24  CA         0.8480   28.6320   54.9230 C.3    75  ALA75       0.1597
     25  C          0.0820   29.8290   55.4750 C.2    75  ALA75       0.2287
     26  O         -0.3150   29.8330   56.6310 O.2    75  ALA75      -0.2864
     27  CB         1.0400   27.5640   55.9940 C.3    75  ALA75       0.0319
     28  N          5.5550   28.0350   63.0370 N.3   139  LEU139     -0.1231
     29  CA         4.7630   28.2140   61.8240 C.3   139  LEU139      0.1693
     30  C          3.3390   27.6550   61.9870 C.2   139  LEU139      0.2592
     31  O          2.9840   27.1640   63.0520 O.2   139  LEU139     -0.2718
     32  CB         5.4600   27.5160   60.6610 C.3   139  LEU139      0.0284
     33  CG         5.5680   25.9440   60.6920 C.3   139  LEU139      0.0019
     34  CD1        6.3250   25.5020   59.4520 C.3   139  LEU139      0.0001
     35  CD2        6.2800   25.4300   61.9180 C.3   139  LEU139      0.0001
     36  N          2.5370   27.7260   60.9190 N.am  140  ASP140     -0.1974
     37  CA         1.1880   27.1620   60.8300 C.3   140  ASP140      0.1709
     38  C          0.1900   27.6940   61.8600 C.2   140  ASP140      0.2293
     39  O         -0.7160   26.9620   62.3000 O.2   140  ASP140     -0.2864
     40  CB         1.2820   25.6420   60.9000 C.3   140  ASP140      0.1436
     41  CG         2.0030   25.0040   59.7450 C.2   140  ASP140      0.3671
     42  OD1        2.3370   25.7310   58.7730 O.co2 140  ASP140     -0.2456
     43  OD2        2.2010   23.7680   59.7860 O.co2 140  ASP140     -0.2456
     44  N          2.0780   19.3950   63.2140 N.3   201  GLU201     -0.1245
     45  CA         1.9700   20.7170   62.5970 C.3   201  GLU201      0.1567
     46  C          0.5740   20.9130   61.9380 C.2   201  GLU201      0.2260
     47  O         -0.3350   20.1480   62.2140 O.2   201  GLU201     -0.2867
     48  CB         3.1040   20.8750   61.5890 C.3   201  GLU201      0.0388
     49  CG         2.9750   19.9550   60.4040 C.3   201  GLU201      0.1160
     50  CD         4.1800   19.8550   59.4830 C.2   201  GLU201      0.3649
     51  OE1        5.1660   20.5940   59.6690 O.co2 201  GLU201     -0.2457
     52  OE2        4.1040   19.0620   58.5250 O.co2 201  GLU201     -0.2457
     53  N          5.8810   13.9510   54.9950 N.3   221  THR221     -0.1218
     54  CA         4.9140   14.4080   54.0110 C.3   221  THR221      0.1862
     55  C          4.7310   13.4780   52.7900 C.2   221  THR221      0.2287
     56  O          4.1750   13.8850   51.7810 O.2   221  THR221     -0.2866
     57  CB         5.2760   15.8360   53.5960 C.3   221  THR221      0.1770
     58  OG1        6.5560   15.7930   53.0090 O.3   221  THR221     -0.2211
     59  CG2        5.3130   16.8090   54.7810 C.3   221  THR221      0.0375
     60  N          1.9800   10.8180   55.7870 N.3   225  TYR225     -0.1241
     61  CA         1.3740   12.0340   56.3520 C.3   225  TYR225      0.1605
     62  C         -0.0670   11.7380   56.7500 C.2   225  TYR225      0.2264
     63  O         -0.7920   11.1110   55.9840 O.2   225  TYR225     -0.2867
     64  CB         1.4190   13.1710   55.3580 C.3   225  TYR225      0.0534
     65  CG         1.4800   14.5640   55.9580 C.ar  225  TYR225     -0.0201
     66  CD1        2.4090   14.8780   56.9400 C.ar  225  TYR225     -0.0009
     67  CD2        0.7650   15.6080   55.3950 C.ar  225  TYR225     -0.0009
     68  CE1        2.5550   16.1830   57.4120 C.ar  225  TYR225      0.0417
     69  CE2        0.8670   16.9060   55.8860 C.ar  225  TYR225      0.0417
     70  CZ         1.7720   17.1950   56.8800 C.ar  225  TYR225      0.1957
     71  OH         1.8870   18.5050   57.2810 O.3   225  TYR225     -0.2866
     72  N         -2.2680   19.1730   56.3930 N.3   265  HIS265     -0.1241
     73  CA        -2.4490   20.5810   56.6680 C.3   265  HIS265      0.1621
     74  C         -3.8350   21.0240   56.2100 C.2   265  HIS265      0.2264
     75  O         -4.0020   21.7700   55.2350 O.2   265  HIS265     -0.2867
     76  CB        -1.3610   21.4720   56.1360 C.3   265  HIS265      0.0745
     77  CG        -1.4170   22.8450   56.7640 C.ar  265  HIS265      0.0817
     78  ND1       -0.2920   23.6130   56.8680 N.ar  265  HIS265     -0.2268
     79  CD2       -2.4360   23.4840   57.3940 C.ar  265  HIS265      0.1154
     80  CE1       -0.6520   24.7130   57.5080 C.ar  265  HIS265      0.1986
     81  NE2       -1.9480   24.6790   57.8390 N.ar  265  HIS265     -0.2212
     82  N         -4.2950   19.2230   51.4610 N.3   282  HIS282     -0.1241
     83  CA        -3.4370   18.9670   50.3110 C.3   282  HIS282      0.1621
     84  C         -3.0840   17.4720   50.3200 C.2   282  HIS282      0.2264
     85  O         -3.0650   16.8320   51.3780 O.2   282  HIS282     -0.2867
     86  CB        -2.1980   19.8800   50.2140 C.3   282  HIS282      0.0745
     87  CG        -1.1910   19.7160   51.2980 C.ar  282  HIS282      0.0817
     88  ND1       -0.7880   20.8020   52.0680 N.ar  282  HIS282     -0.2268
     89  CD2       -0.4370   18.6440   51.6360 C.ar  282  HIS282      0.1154
     90  CE1        0.1820   20.3490   52.8500 C.ar  282  HIS282      0.1986
     91  NE2        0.4050   19.0540   52.6430 N.ar  282  HIS282     -0.2212
     92  N          1.8070   19.0490   45.4930 N.3   299  ARG299     -0.1245
     93  CA         0.8590   18.8450   46.5630 C.3   299  ARG299      0.1563
     94  C         -0.3580   19.5900   46.0310 C.2   299  ARG299      0.2260
     95  O         -0.2580   20.7940   45.7610 O.2   299  ARG299     -0.2867
     96  CB         1.3030   19.4470   47.8880 C.3   299  ARG299      0.0307
     97  CG         2.2820   18.4950   48.5950 C.3   299  ARG299      0.0489
     98  CD         2.9140   19.1420   49.8190 C.3   299  ARG299      0.2205
     99  NE         3.7170   20.2770   49.3970 N.pl3 299  ARG299     -0.0865
    100  CZ         4.2150   21.2110   50.2000 C.cat 299  ARG299      0.5346
    101  NH1        4.0220   21.1430   51.5130 N.pl3 299  ARG299      0.1354
    102  NH2        4.8900   22.2310   49.6950 N.pl3 299  ARG299      0.1354
@<TRIPOS>BOND
     1    92    93    1
     2    95    94    2
     3    94    93    1
     4    93    96    1
     5    96    97    1
     6    97    98    1
     7    99    98    1
     8    99   100    2
     9   102   100    1
    10   100   101    1
    11    86    83    1
    12    86    87    1
    13    83    84    1
    14    83    82    1
    15    84    85    2
    16    87    89   ar
    17    87    88   ar
    18    89    91   ar
    19    56    55    2
    20     1     2    1
    21    88    90   ar
    22    17    15   ar
    23    17    18   ar
    24    91    90   ar
    25     3     4    2
    26     3     2    1
    27    15    14   ar
    28    55    54    1
    29    58    57    1
    30     2     5    1
    31     8     6   ar
    32    57    54    1
    33    57    59    1
    34    18    20   ar
    35    18    16   ar
    36     5     6    1
    37     6     7   ar
    38    20    22   ar
    39     9    10    1
    40    54    53    1
    41    10    13    1
    42    10    11    1
    43    14    16   ar
    44    14    13    1
    45    23    11   am
    46    23    24    1
    47    16    19   ar
    48    11    12    2
    49    24    25    1
    50    24    27    1
    51    22    21   ar
    52    75    74    2
    53    64    65    1
    54    64    61    1
    55    67    69   ar
    56    67    65   ar
    57    25    26    2
    58    60    61    1
    59    69    70   ar
    60    19    21   ar
    61    65    66   ar
    62    63    62    2
    63    76    73    1
    64    76    77    1
    65    74    73    1
    66    61    62    1
    67    72    73    1
    68    77    78   ar
    69    77    79   ar
    70    78    80   ar
    71    70    71    1
    72    70    68   ar
    73    66    68   ar
    74    79    81   ar
    75    80    81   ar
    76    52    50   ar
    77    42    41   ar
    78    34    33    1
    79    50    51   ar
    80    50    49    1
    81    41    43   ar
    82    41    40    1
    83    49    48    1
    84    32    33    1
    85    32    29    1
    86    33    35    1
    87    37    40    1
    88    37    36    1
    89    37    38    1
    90    36    30   am
    91    48    45    1
    92    29    30    1
    93    29    28    1
    94    38    39    2
    95    46    47    2
    96    46    45    1
    97    30    31    2
    98    45    44    1
