@<TRIPOS>MOLECULE
tmp/5m8bA02.pdb
 90 90 0 0 0
SMALL
GASTEIGER

@<TRIPOS>ATOM
      1  N          7.1010   34.5000   70.8320 N.3   132  THR132     -0.1204
      2  CA         6.8840   33.5110   71.8790 C.3   132  THR132      0.1979
      3  C          8.0480   33.6150   72.8880 C.2   132  THR132      0.2460
      4  O          9.1280   34.0560   72.4960 O.2   132  THR132     -0.2732
      5  CB         6.7620   32.1130   71.2480 C.3   132  THR132      0.1783
      6  OG1        7.9500   31.8270   70.4920 O.3   132  THR132     -0.2211
      7  CG2        5.5390   32.0060   70.3220 C.3   132  THR132      0.0376
      8  N          7.8860   33.1770   74.1580 N.am  133  PRO133     -0.2717
      9  CA         8.9950   33.3080   75.1370 C.3   133  PRO133      0.1535
     10  C         10.3160   32.6950   74.6750 C.2   133  PRO133      0.2598
     11  O         11.3460   33.3410   74.8110 O.2   133  PRO133     -0.2715
     12  CB         8.4320   32.6510   76.4000 C.3   133  PRO133      0.0310
     13  CG         6.9580   32.8970   76.2930 C.3   133  PRO133      0.0237
     14  CD         6.6550   32.6990   74.8180 C.3   133  PRO133      0.0939
     15  N         10.2780   31.5100   74.0520 N.am  134  LEU134     -0.1978
     16  CA        11.4690   30.9290   73.4380 C.3   134  LEU134      0.1596
     17  C         11.4160   31.2550   71.9470 C.2   134  LEU134      0.2287
     18  O         10.3940   30.9800   71.3080 O.2   134  LEU134     -0.2864
     19  CB        11.5220   29.4230   73.6410 C.3   134  LEU134      0.0297
     20  CG        12.8910   28.7760   73.3710 C.3   134  LEU134      0.0022
     21  CD1       13.9640   29.2500   74.3690 C.3   134  LEU134      0.0001
     22  CD2       12.7790   27.2870   73.4160 C.3   134  LEU134      0.0001
     23  N         -0.6590   27.0870   67.2870 N.3   154  TRP154     -0.1241
     24  CA         0.4460   27.0260   66.3300 C.3   154  TRP154      0.1605
     25  C          1.3820   25.8470   66.5870 C.2   154  TRP154      0.2264
     26  O          1.2460   25.1340   67.5980 O.2   154  TRP154     -0.2867
     27  CB         1.2440   28.3690   66.4030 C.3   154  TRP154      0.0550
     28  CG         2.1330   28.5300   67.6070 C.ar  154  TRP154      0.0003
     29  CD1        3.4750   28.3330   67.6540 C.ar  154  TRP154      0.0946
     30  CD2        1.7360   28.9120   68.9450 C.ar  154  TRP154      0.0152
     31  NE1        3.9540   28.6080   68.9170 N.ar  154  TRP154     -0.2442
     32  CE2        2.9050   28.9710   69.7260 C.ar  154  TRP154      0.0810
     33  CE3        0.5090   29.2190   69.5500 C.ar  154  TRP154      0.0012
     34  CZ2        2.8800   29.2820   71.0990 C.ar  154  TRP154      0.0191
     35  CZ3        0.4920   29.5410   70.9070 C.ar  154  TRP154      0.0001
     36  CH2        1.6740   29.6130   71.6470 C.ar  154  TRP154      0.0015
     37  N          5.4540   24.7150   66.9460 N.3   156  GLN156     -0.1182
     38  CA         6.7570   25.2380   67.3150 C.3   156  GLN156      0.1914
     39  C          7.6880   24.1590   67.8650 C.2   156  GLN156      0.2634
     40  O          7.2720   23.2150   68.5310 O.2   156  GLN156     -0.2714
     41  CB         6.5980   26.4090   68.3150 C.2   156  GLN156      0.0065
     42  CG         7.9040   27.0510   68.7840 C.2   156  GLN156      0.0585
     43  CD         7.7620   28.2930   69.6070 C.2   156  GLN156      0.2840
     44  OE1        6.6710   28.7280   69.9590 O.2   156  GLN156     -0.2667
     45  NE2        8.8750   28.8510   70.0010 N.am  156  GLN156     -0.0837
     46  N          8.9550   24.3340   67.5910 N.am  157  LYS157     -0.1963
     47  CA        10.0250   23.4690   68.0720 C.3   157  LYS157      0.1728
     48  C         10.3550   23.7870   69.5330 C.2   157  LYS157      0.2616
     49  O         10.5680   24.9500   69.8930 O.2   157  LYS157     -0.2715
     50  CB        11.2840   23.6970   67.2250 C.3   157  LYS157      0.0311
     51  CG        12.5690   23.0090   67.7190 C.3   157  LYS157      0.0038
     52  CD        12.4620   21.5040   67.7760 C.3   157  LYS157      0.0206
     53  CE        13.7510   20.8180   68.1860 C.3   157  LYS157      0.1093
     54  NZ        13.4710   19.4870   68.7390 N.3   157  LYS157     -0.1314
     55  N         10.4580   22.7450   70.3560 N.am  158  ASP158     -0.1971
     56  CA        10.9780   22.8570   71.7170 C.3   158  ASP158      0.1709
     57  C         12.2970   22.0860   71.6980 C.2   158  ASP158      0.2293
     58  O         12.2600   20.8750   71.4940 O.2   158  ASP158     -0.2864
     59  CB        10.0510   22.2360   72.7650 C.3   158  ASP158      0.1436
     60  CG        10.5320   22.4290   74.2010 C.2   158  ASP158      0.3671
     61  OD1       11.7210   22.7800   74.3960 O.co2 158  ASP158     -0.2456
     62  OD2        9.7180   22.2470   75.1310 O.co2 158  ASP158     -0.2456
     63  N          0.8260   24.1940   70.2270 N.3   168  TYR168     -0.1241
     64  CA         0.6450   25.0590   71.3920 C.3   168  TYR168      0.1605
     65  C         -0.6040   25.8810   71.2750 C.2   168  TYR168      0.2264
     66  O         -1.0570   26.1620   70.1790 O.2   168  TYR168     -0.2867
     67  CB         1.8470   25.9980   71.5570 C.3   168  TYR168      0.0534
     68  CG         3.1230   25.2560   71.8230 C.ar  168  TYR168     -0.0201
     69  CD1        3.8930   24.7690   70.7790 C.ar  168  TYR168     -0.0009
     70  CD2        3.5400   24.9860   73.1250 C.ar  168  TYR168     -0.0009
     71  CE1        5.0750   24.0890   71.0190 C.ar  168  TYR168      0.0417
     72  CE2        4.6810   24.2300   73.3730 C.ar  168  TYR168      0.0417
     73  CZ         5.4450   23.7810   72.3100 C.ar  168  TYR168      0.1957
     74  OH         6.5830   23.0320   72.4810 O.3   168  TYR168     -0.2866
     75  N          1.4120   32.5010   78.6250 N.3   181  LYS181     -0.1231
     76  CA         2.5660   31.6560   78.3270 C.3   181  LYS181      0.1678
     77  C          2.0540   30.4790   77.4990 C.2   181  LYS181      0.2434
     78  O          1.0580   29.8960   77.8950 O.2   181  LYS181     -0.2733
     79  CB         3.1740   31.1250   79.6360 C.3   181  LYS181      0.0284
     80  CG         4.4990   30.3930   79.4750 C.3   181  LYS181      0.0035
     81  CD         4.9310   29.7190   80.7930 C.3   181  LYS181      0.0206
     82  CE         6.0980   28.7760   80.6060 C.3   181  LYS181      0.1093
     83  NZ         6.3970   28.0160   81.8460 N.3   181  LYS181     -0.1314
     84  N          2.7230   30.0680   76.4080 N.am  182  PRO182     -0.2729
     85  CA         2.2310   28.9120   75.6260 C.3   182  PRO182      0.1401
     86  C          2.0060   27.6240   76.4110 C.2   182  PRO182      0.2269
     87  O          2.7790   27.3180   77.2970 O.2   182  PRO182     -0.2865
     88  CB         3.3580   28.6830   74.6170 C.3   182  PRO182      0.0296
     89  CG         3.9520   30.0420   74.4160 C.3   182  PRO182      0.0237
     90  CD         3.9220   30.6610   75.7780 C.3   182  PRO182      0.0939
@<TRIPOS>BOND
     1    24    27    1
     2    24    25    1
     3    24    23    1
     4    27    28    1
     5    25    26    2
     6    37    38    1
     7    50    51    1
     8    50    47    1
     9    38    39    1
    10    38    41    1
    11    46    39   am
    12    46    47    1
    13    28    29   ar
    14    28    30   ar
    15    29    31   ar
    16    51    52    1
    17    52    53    1
    18    39    40    2
    19    47    48    1
    20    53    54    1
    21    41    42    2
    22    42    43    1
    23    31    32   ar
    24    30    33   ar
    25    30    32   ar
    26    48    49    2
    27    48    55   am
    28    33    35   ar
    29    43    44    2
    30    43    45   am
    31    32    34   ar
    32    66    65    2
    33    63    64    1
    34     7     5    1
    35    55    56    1
    36     6     5    1
    37    69    71   ar
    38    69    68   ar
    39     1     2    1
    40    35    36   ar
    41    71    73   ar
    42    34    36   ar
    43     5     2    1
    44    65    64    1
    45    18    17    2
    46    64    67    1
    47    58    57    2
    48    67    68    1
    49    57    56    1
    50    56    59    1
    51    68    70   ar
    52     2     3    1
    53    17    16    1
    54    73    74    1
    55    73    72   ar
    56     4     3    2
    57    59    60    1
    58     3     8   am
    59    70    72   ar
    60    20    22    1
    61    20    19    1
    62    20    21    1
    63    16    19    1
    64    16    15    1
    65    15    10   am
    66     8    14    1
    67     8     9    1
    68    60    61   ar
    69    60    62   ar
    70    89    88    1
    71    89    90    1
    72    88    85    1
    73    10    11    2
    74    10     9    1
    75    14    13    1
    76     9    12    1
    77    85    84    1
    78    85    86    1
    79    90    84    1
    80    13    12    1
    81    84    77   am
    82    86    87    2
    83    77    78    2
    84    77    76    1
    85    76    75    1
    86    76    79    1
    87    80    79    1
    88    80    81    1
    89    82    81    1
    90    82    83    1
