@<TRIPOS>MOLECULE
tmp/5m8bB01.pdb
 163 160 0 0 0
SMALL
GASTEIGER

@<TRIPOS>ATOM
      1  N         11.5980   28.4860   29.4030 N.3    74  TRP74      -0.1241
      2  CA        10.5190   29.1740   28.7210 C.3    74  TRP74       0.1605
      3  C          9.8810   28.4570   27.5580 C.2    74  TRP74       0.2264
      4  O         10.5440   27.9860   26.6300 O.2    74  TRP74      -0.2867
      5  CB        10.9960   30.5620   28.2190 C.3    74  TRP74       0.0550
      6  CG        11.2950   31.5830   29.2950 C.ar   74  TRP74       0.0003
      7  CD1       10.9310   31.5330   30.6110 C.ar   74  TRP74       0.0946
      8  CD2       11.8530   32.8940   29.0860 C.ar   74  TRP74       0.0152
      9  NE1       11.2930   32.7000   31.2500 N.ar   74  TRP74      -0.2442
     10  CE2       11.8910   33.5390   30.3430 C.ar   74  TRP74       0.0810
     11  CE3       12.4340   33.5380   27.9760 C.ar   74  TRP74       0.0012
     12  CZ2       12.4000   34.8310   30.5030 C.ar   74  TRP74       0.0191
     13  CZ3       12.9580   34.8040   28.1390 C.ar   74  TRP74       0.0001
     14  CH2       12.9160   35.4490   29.3750 C.ar   74  TRP74       0.0015
     15  N         21.5010   39.7590   32.3910 N.3    97  PHE97      -0.1241
     16  CA        21.3540   40.2960   31.0570 C.3    97  PHE97       0.1605
     17  C         22.7590   40.4640   30.4550 C.2    97  PHE97       0.2264
     18  O         23.7450   40.6050   31.1880 O.2    97  PHE97      -0.2867
     19  CB        20.6740   41.6740   31.0820 C.3    97  PHE97       0.0534
     20  CG        19.2120   41.6820   31.4850 C.ar   97  PHE97      -0.0203
     21  CD1       18.3740   40.6430   31.1350 C.ar   97  PHE97      -0.0042
     22  CD2       18.6570   42.7810   32.1200 C.ar   97  PHE97      -0.0042
     23  CE1       17.0110   40.6960   31.4170 C.ar   97  PHE97      -0.0003
     24  CE2       17.2890   42.8270   32.4130 C.ar   97  PHE97      -0.0003
     25  CZ        16.4720   41.7920   32.0360 C.ar   97  PHE97      -0.0000
     26  N         23.7780   44.2470   26.0140 N.3   100  ASN100     -0.1225
     27  CA        22.6730   44.9550   25.3690 C.3   100  ASN100      0.1785
     28  C         21.4100   44.9230   26.2360 C.2   100  ASN100      0.2598
     29  O         20.3510   45.3410   25.7930 O.2   100  ASN100     -0.2718
     30  CB        22.4110   44.3660   24.0130 C.3   100  ASN100      0.1169
     31  CG        23.5670   44.6030   23.0860 C.2   100  ASN100      0.2627
     32  OD1       24.1420   45.6890   23.0660 O.2   100  ASN100     -0.2716
     33  ND2       23.9350   43.5940   22.3220 N.am  100  ASN100     -0.0877
     34  N         21.5320   44.4990   27.4870 N.am  101  GLY101     -0.1942
     35  CA        20.4000   44.4610   28.3920 C.3   101  GLY101      0.2014
     36  C         19.3820   43.3750   28.0910 C.2   101  GLY101      0.2639
     37  O         18.2570   43.4700   28.5550 O.2   101  GLY101     -0.2714
     38  N         19.7820   42.3280   27.3760 N.am  102  MET102     -0.1963
     39  CA        18.9180   41.2220   26.9740 C.3   102  MET102      0.1736
     40  C         19.1420   39.9280   27.6940 C.2   102  MET102      0.2616
     41  O         20.2330   39.6590   28.1810 O.2   102  MET102     -0.2715
     42  CB        19.1110   40.9720   25.4780 C.3   102  MET102      0.0427
     43  CG        18.5180   42.1120   24.6330 C.3   102  MET102      0.0599
     44  SD        18.7840   41.9440   22.8610 S.3   102  MET102     -0.1393
     45  CE        17.8810   40.5130   22.5700 C.3   102  MET102      0.0692
     46  N         18.1050   39.0760   27.6780 N.am  103  PHE103     -0.1974
     47  CA        18.1640   37.7240   28.1730 C.3   103  PHE103      0.1639
     48  C         19.1410   36.9160   27.2820 C.2   103  PHE103      0.2290
     49  O         19.4590   37.3360   26.1570 O.2   103  PHE103     -0.2864
     50  CB        16.7580   37.1060   28.1840 C.3   103  PHE103      0.0560
     51  CG        15.9110   37.6410   29.3000 C.ar  103  PHE103     -0.0200
     52  CD1       16.0840   37.1890   30.5930 C.ar  103  PHE103     -0.0042
     53  CD2       14.8720   38.5300   29.0450 C.ar  103  PHE103     -0.0042
     54  CE1       15.2390   37.6050   31.6080 C.ar  103  PHE103     -0.0003
     55  CE2       14.0690   39.0000   30.0830 C.ar  103  PHE103     -0.0003
     56  CZ        14.2560   38.5380   31.3510 C.ar  103  PHE103     -0.0000
     57  N         20.6690   35.3280   21.2190 N.3   137  PHE137     -0.1241
     58  CA        19.4000   35.1410   21.9030 C.3   137  PHE137      0.1605
     59  C         18.3600   34.5300   20.9890 C.2   137  PHE137      0.2264
     60  O         18.0850   35.0970   19.9460 O.2   137  PHE137     -0.2867
     61  CB        18.9410   36.5000   22.4390 C.3   137  PHE137      0.0534
     62  CG        17.5620   36.5140   23.0400 C.ar  137  PHE137     -0.0203
     63  CD1       17.2900   35.8140   24.2020 C.ar  137  PHE137     -0.0042
     64  CD2       16.5300   37.2180   22.4330 C.ar  137  PHE137     -0.0042
     65  CE1       16.0240   35.8570   24.7870 C.ar  137  PHE137     -0.0003
     66  CE2       15.2960   37.3500   23.0620 C.ar  137  PHE137     -0.0003
     67  CZ        15.0280   36.6340   24.2250 C.ar  137  PHE137     -0.0000
     68  N         14.6050   31.8100   21.0390 N.3   139  LEU139     -0.1245
     69  CA        13.5470   31.2230   21.8530 C.3   139  LEU139      0.1561
     70  C         12.2550   31.0250   21.0970 C.2   139  LEU139      0.2260
     71  O         12.1560   31.3750   19.9290 O.2   139  LEU139     -0.2867
     72  CB        13.3010   32.1100   23.0940 C.3   139  LEU139      0.0270
     73  CG        12.6290   33.5010   22.9100 C.3   139  LEU139      0.0019
     74  CD1       12.2900   34.1110   24.2800 C.3   139  LEU139      0.0001
     75  CD2       13.5080   34.4550   22.1090 C.3   139  LEU139      0.0001
     76  N         17.2600   46.3220   14.4450 N.3   162  LYS162     -0.1245
     77  CA        16.8340   46.9120   15.6880 C.3   162  LYS162      0.1561
     78  C         15.7860   46.0690   16.3950 C.2   162  LYS162      0.2260
     79  O         14.8910   45.4880   15.7610 O.2   162  LYS162     -0.2867
     80  CB        16.3260   48.3690   15.4940 C.3   162  LYS162      0.0271
     81  CG        16.5160   49.2240   16.7280 C.3   162  LYS162      0.0035
     82  CD        15.4560   50.3080   16.9030 C.3   162  LYS162      0.0206
     83  CE        15.7310   51.1770   18.1180 C.3   162  LYS162      0.1093
     84  NZ        15.6990   50.4140   19.4020 N.3   162  LYS162     -0.1314
     85  N         14.6890   43.3080   19.9010 N.3   164  ASN164     -0.1225
     86  CA        15.0420   42.1150   20.6380 C.3   164  ASN164      0.1785
     87  C         14.9930   40.8490   19.8400 C.2   164  ASN164      0.2597
     88  O         15.8050   39.9530   20.0850 O.2   164  ASN164     -0.2718
     89  CB        14.1530   41.9780   21.8700 C.3   164  ASN164      0.1169
     90  CG        14.4840   42.9710   22.9410 C.2   164  ASN164      0.2627
     91  OD1       15.0230   44.0560   22.6890 O.2   164  ASN164     -0.2716
     92  ND2       14.1480   42.6310   24.1560 N.am  164  ASN164     -0.0877
     93  N         13.9980   40.6990   18.9520 N.am  165  SER165     -0.1952
     94  CA        13.9060   39.4570   18.1890 C.3   165  SER165      0.1924
     95  C         12.9770   39.5810   16.9850 C.2   165  SER165      0.2314
     96  O         12.0120   40.3540   16.9890 O.2   165  SER165     -0.2863
     97  CB        13.4250   38.3230   19.0860 C.3   165  SER165      0.2116
     98  OG        12.2080   38.6880   19.7000 O.3   165  SER165     -0.2180
     99  N          7.4270   49.5350   24.6640 N.3   196  ILE196     -0.1231
    100  CA         8.3700   49.1560   25.7280 C.3   196  ILE196      0.1692
    101  C          9.5560   48.3830   25.1320 C.2   196  ILE196      0.2592
    102  O         10.6880   48.8460   25.2560 O.2   196  ILE196     -0.2718
    103  CB         7.7350   48.4090   26.9210 C.3   196  ILE196      0.0266
    104  CG1        6.4420   49.1050   27.4430 C.3   196  ILE196      0.0019
    105  CG2        8.7780   48.2310   28.0470 C.3   196  ILE196      0.0020
    106  CD1        6.5790   50.4740   27.9080 C.3   196  ILE196      0.0001
    107  N          9.3120   47.2130   24.5070 N.am  197  PHE197     -0.1962
    108  CA        10.3620   46.4520   23.8250 C.3   197  PHE197      0.1771
    109  C          9.9870   46.2520   22.3580 C.2   197  PHE197      0.2620
    110  O          8.8070   46.1020   22.0380 O.2   197  PHE197     -0.2715
    111  CB        10.5760   45.0880   24.4950 C.3   197  PHE197      0.0574
    112  CG        10.8860   45.1680   25.9680 C.ar  197  PHE197     -0.0200
    113  CD1       11.9240   45.9570   26.4340 C.ar  197  PHE197     -0.0042
    114  CD2       10.1380   44.4540   26.8910 C.ar  197  PHE197     -0.0042
    115  CE1       12.2270   46.0090   27.7970 C.ar  197  PHE197     -0.0003
    116  CE2       10.4270   44.5320   28.2530 C.ar  197  PHE197     -0.0003
    117  CZ        11.4680   45.2990   28.6940 C.ar  197  PHE197     -0.0000
    118  N         10.9770   46.2650   21.4700 N.am  198  TRP198     -0.1960
    119  CA        10.7860   45.9860   20.0400 C.3   198  TRP198      0.1771
    120  C         10.8900   44.4760   19.9320 C.2   198  TRP198      0.2619
    121  O         11.9880   43.9320   19.9720 O.2   198  TRP198     -0.2715
    122  CB        11.8660   46.6570   19.1830 C.3   198  TRP198      0.0590
    123  CG        11.6970   48.1280   19.0220 C.ar  198  TRP198      0.0006
    124  CD1       11.4980   49.0430   20.0140 C.ar  198  TRP198      0.0946
    125  CD2       11.9020   48.8750   17.8200 C.ar  198  TRP198      0.0152
    126  NE1       11.4360   50.3020   19.4820 N.ar  198  TRP198     -0.2442
    127  CE2       11.7120   50.2360   18.1410 C.ar  198  TRP198      0.0810
    128  CE3       12.0750   48.5160   16.4720 C.ar  198  TRP198      0.0012
    129  CZ2       11.7600   51.2470   17.1770 C.ar  198  TRP198      0.0191
    130  CZ3       12.1190   49.5140   15.5130 C.ar  198  TRP198      0.0001
    131  CH2       11.9720   50.8680   15.8700 C.ar  198  TRP198      0.0015
    132  N          9.7500   43.7800   19.8490 N.am  199  VAL199     -0.1977
    133  CA         9.7450   42.3160   19.8780 C.3   199  VAL199      0.1596
    134  C          8.8240   41.7030   18.8430 C.2   199  VAL199      0.2287
    135  O          7.7110   42.1800   18.6730 O.2   199  VAL199     -0.2864
    136  CB         9.2630   41.8410   21.2970 C.3   199  VAL199      0.0276
    137  CG1        8.9830   40.3450   21.3240 C.3   199  VAL199      0.0022
    138  CG2       10.2500   42.1930   22.4040 C.3   199  VAL199      0.0022
    139  N          7.8420   37.5920   18.7190 N.3   201  GLU201     -0.1245
    140  CA         8.1190   36.3120   19.3490 C.3   201  GLU201      0.1567
    141  C          6.8760   35.4290   19.3570 C.2   201  GLU201      0.2260
    142  O          5.9350   35.7310   18.6460 O.2   201  GLU201     -0.2867
    143  CB         8.7270   36.5540   20.7520 C.3   201  GLU201      0.0388
    144  CG         7.7110   37.0350   21.7650 C.3   201  GLU201      0.1160
    145  CD         8.1980   37.3830   23.1570 C.2   201  GLU201      0.3649
    146  OE1        9.4250   37.3660   23.4030 O.co2 201  GLU201     -0.2457
    147  OE2        7.3270   37.6840   24.0060 O.co2 201  GLU201     -0.2457
    148  N          9.2870   43.6490   36.8360 N.3   292  ASP292     -0.1239
    149  CA         9.2970   43.1110   35.5000 C.3   292  ASP292      0.1674
    150  C          8.0120   42.2570   35.3150 C.2   292  ASP292      0.2266
    151  O          7.7680   41.3470   36.1140 O.2   292  ASP292     -0.2867
    152  CB        10.5730   42.2550   35.3280 C.3   292  ASP292      0.1410
    153  CG        10.8450   41.7390   33.9350 C.2   292  ASP292      0.3668
    154  OD1        9.8550   41.4710   33.1800 O.co2 292  ASP292     -0.2456
    155  OD2       12.0400   41.6260   33.5720 O.co2 292  ASP292     -0.2456
    156  N          7.4780   39.7810   33.4310 N.3   294  LEU294     -0.1245
    157  CA         7.8480   38.3560   33.3170 C.3   294  LEU294      0.1561
    158  C          7.8950   37.6620   34.7030 C.2   294  LEU294      0.2260
    159  O          7.7570   36.4360   34.7670 O.2   294  LEU294     -0.2867
    160  CB         9.2130   38.2040   32.6130 C.3   294  LEU294      0.0270
    161  CG         9.2160   38.5440   31.1150 C.3   294  LEU294      0.0019
    162  CD1       10.6320   38.8050   30.6130 C.3   294  LEU294      0.0001
    163  CD2        8.5650   37.4580   30.3130 C.3   294  LEU294      0.0001
@<TRIPOS>BOND
     1    76    77    1
     2    80    77    1
     3    80    81    1
     4   130   131   ar
     5   130   128   ar
     6    77    78    1
     7    79    78    2
     8   131   129   ar
     9   128   125   ar
    10    81    82    1
    11    82    83    1
    12    95    96    2
    13    95    94    1
    14   129   127   ar
    15   125   127   ar
    16   125   123   ar
    17    83    84    1
    18   127   126   ar
    19    94    93    1
    20    94    97    1
    21   142   141    2
    22   135   134    2
    23   139   140    1
    24   134   133    1
    25    93    87   am
    26   123   122    1
    27   123   124   ar
    28    97    98    1
    29   122   119    1
    30   140   141    1
    31   140   143    1
    32   126   124   ar
    33    87    88    2
    34    87    86    1
    35   132   133    1
    36   132   120   am
    37   133   136    1
    38    85    86    1
    39    71    70    2
    40   120   121    2
    41   120   119    1
    42    60    59    2
    43   119   118    1
    44    86    89    1
    45   143   144    1
    46    59    58    1
    47    68    69    1
    48    70    69    1
    49    57    58    1
    50   136   137    1
    51   136   138    1
    52   118   109   am
    53   144   145    1
    54    69    72    1
    55    89    90    1
    56    58    61    1
    57   110   109    2
    58    75    73    1
    59    33    31   am
    60   109   108    1
    61    64    62   ar
    62    64    66   ar
    63    61    62    1
    64    45    44    1
    65    91    90    2
    66    44    43    1
    67    73    72    1
    68    73    74    1
    69    90    92   am
    70    62    63   ar
    71    66    67   ar
    72    32    31    2
    73    31    30    1
    74   145   146   ar
    75   145   147   ar
    76   108   111    1
    77   108   107    1
    78    30    27    1
    79    63    65   ar
    80    67    65   ar
    81   111   112    1
    82   107   101   am
    83    43    42    1
    84    99   100    1
    85   101   102    2
    86   101   100    1
    87    27    26    1
    88    27    28    1
    89    42    39    1
    90   100   103    1
    91    29    28    2
    92   112   113   ar
    93   112   114   ar
    94    49    48    2
    95    28    34   am
    96   113   115   ar
    97     4     3    2
    98   114   116   ar
    99   103   104    1
   100   103   105    1
   101    39    38    1
   102    39    40    1
   103    48    47    1
   104    38    36   am
   105   104   106    1
   106    34    35    1
   107     3     2    1
   108    46    40   am
   109    46    47    1
   110    40    41    2
   111   115   117   ar
   112    11    13   ar
   113    11     8   ar
   114    36    35    1
   115    36    37    2
   116    13    14   ar
   117    47    50    1
   118    50    51    1
   119     5     2    1
   120     5     6    1
   121   116   117   ar
   122     2     1    1
   123    53    51   ar
   124    53    55   ar
   125     8     6   ar
   126     8    10   ar
   127     6     7   ar
   128    51    52   ar
   129    14    12   ar
   130    55    56   ar
   131   163   161    1
   132    10    12   ar
   133    10     9   ar
   134    17    16    1
   135    17    18    2
   136    52    54   ar
   137     7     9   ar
   138   162   161    1
   139    16    19    1
   140    16    15    1
   141    19    20    1
   142   161   160    1
   143    21    23   ar
   144    21    20   ar
   145    56    54   ar
   146    23    25   ar
   147    20    22   ar
   148    25    24   ar
   149    22    24   ar
   150   160   157    1
   151   154   153   ar
   152   157   156    1
   153   157   158    1
   154   155   153   ar
   155   153   152    1
   156   158   159    2
   157   150   149    1
   158   150   151    2
   159   152   149    1
   160   149   148    1
