@<TRIPOS>MOLECULE
tmp/5m8dB00.pdb
 169 158 0 0 0
SMALL
GASTEIGER

@<TRIPOS>ATOM
      1  N         23.6940   57.1070   35.1850 N.3   197  GLU197     -0.1245
      2  CA        22.2540   56.9620   35.3550 C.3   197  GLU197      0.1567
      3  C         21.6680   56.3330   34.1020 C.2   197  GLU197      0.2260
      4  O         21.9270   56.7940   32.9870 O.2   197  GLU197     -0.2867
      5  CB        21.5770   58.3130   35.6270 C.3   197  GLU197      0.0388
      6  CG        22.0310   58.9790   36.9160 C.3   197  GLU197      0.1160
      7  CD        21.6490   60.4480   36.9920 C.2   197  GLU197      0.3649
      8  OE1       22.4220   61.3130   36.4860 O.co2 197  GLU197     -0.2457
      9  OE2       20.5720   60.7290   37.5710 O.co2 197  GLU197     -0.2457
     10  N         17.8220   55.2930   32.8230 N.3   199  TYR199     -0.1241
     11  CA        16.3790   55.1730   32.9240 C.3   199  TYR199      0.1605
     12  C         15.9910   53.9210   32.1490 C.2   199  TYR199      0.2264
     13  O         16.1910   53.8500   30.9370 O.2   199  TYR199     -0.2867
     14  CB        15.6950   56.4400   32.4000 C.3   199  TYR199      0.0534
     15  CG        16.0480   57.6750   33.2140 C.ar  199  TYR199     -0.0201
     16  CD1       15.2750   58.0660   34.3000 C.ar  199  TYR199     -0.0009
     17  CD2       17.1630   58.4380   32.9100 C.ar  199  TYR199     -0.0009
     18  CE1       15.5900   59.1700   35.0460 C.ar  199  TYR199      0.0417
     19  CE2       17.4920   59.5610   33.6630 C.ar  199  TYR199      0.0417
     20  CZ        16.7080   59.9150   34.7290 C.ar  199  TYR199      0.1957
     21  OH        17.0290   61.0240   35.4860 O.3   199  TYR199     -0.2866
     22  N         11.4730   63.7990   33.3180 N.3   235  VAL235     -0.1245
     23  CA        12.6810   63.5820   34.1150 C.3   235  VAL235      0.1561
     24  C         13.6870   64.7040   33.8820 C.2   235  VAL235      0.2260
     25  O         14.4830   65.0250   34.7710 O.2   235  VAL235     -0.2867
     26  CB        13.3220   62.1960   33.8580 C.3   235  VAL235      0.0252
     27  CG1       12.3310   61.0830   34.1110 C.3   235  VAL235      0.0019
     28  CG2       13.9060   62.1050   32.4820 C.3   235  VAL235      0.0019
     29  N         13.6610   69.3400   35.6320 N.3   238  CYS238     -0.1235
     30  CA        14.4700   70.0590   36.6050 C.3   238  CYS238      0.1677
     31  C         15.8180   70.4880   36.0410 C.2   238  CYS238      0.2270
     32  O         16.5390   71.2320   36.7140 O.2   238  CYS238     -0.2867
     33  CB        14.6830   69.1930   37.8480 C.3   238  CYS238      0.0956
     34  SG        15.8630   67.8780   37.5420 S.3   238  CYS238     -0.0801
     35  N         16.4550   74.6890   43.6240 N.3   245  LEU245     -0.1231
     36  CA        17.0970   73.4180   43.9490 C.3   245  LEU245      0.1693
     37  C         18.3640   73.1730   43.1300 C.2   245  LEU245      0.2592
     38  O         19.2010   72.3610   43.5380 O.2   245  LEU245     -0.2718
     39  CB        16.0940   72.2570   43.8070 C.3   245  LEU245      0.0284
     40  CG        16.3650   70.9270   43.1060 C.3   245  LEU245      0.0019
     41  CD1       15.4230   69.9010   43.6710 C.3   245  LEU245      0.0001
     42  CD2       16.1580   71.0240   41.6100 C.3   245  LEU245      0.0001
     43  N         18.5290   73.8580   41.9930 N.am  246  ASN246     -0.1960
     44  CA        19.8380   74.0040   41.3470 C.3   246  ASN246      0.1819
     45  C         20.4290   72.6470   40.9330 C.2   246  ASN246      0.2621
     46  O         21.5050   72.2520   41.3870 O.2   246  ASN246     -0.2715
     47  CB        20.7970   74.7500   42.2890 C.3   246  ASN246      0.1195
     48  CG        21.5570   75.8720   41.6070 C.2   246  ASN246      0.2630
     49  OD1       21.8970   75.7900   40.4280 O.2   246  ASN246     -0.2716
     50  ND2       21.8410   76.9250   42.3590 N.am  246  ASN246     -0.0877
     51  N         19.7190   71.9400   40.0430 N.am  247  ALA247     -0.1977
     52  CA        20.0420   70.5510   39.7160 C.3   247  ALA247      0.1597
     53  C         20.7120   70.4330   38.3480 C.2   247  ALA247      0.2287
     54  O         20.1090   70.7580   37.3190 O.2   247  ALA247     -0.2864
     55  CB        18.7930   69.6700   39.7570 C.3   247  ALA247      0.0319
     56  N         24.6960   66.5360   40.3770 N.3   251  LYS251     -0.1231
     57  CA        23.8830   66.5940   41.5930 C.3   251  LYS251      0.1693
     58  C         22.7790   65.5500   41.5680 C.2   251  LYS251      0.2591
     59  O         22.4540   64.9570   42.6030 O.2   251  LYS251     -0.2718
     60  CB        23.2650   67.9780   41.7780 C.3   251  LYS251      0.0285
     61  CG        23.8690   68.7780   42.8760 C.3   251  LYS251      0.0035
     62  CD        23.4070   70.2240   42.8410 C.3   251  LYS251      0.0206
     63  CE        24.2700   71.0970   43.7530 C.3   251  LYS251      0.1093
     64  NZ        23.7680   72.4980   43.8060 N.3   251  LYS251     -0.1314
     65  N         22.1900   65.3070   40.3950 N.am  252  LEU252     -0.1980
     66  CA        21.1620   64.2800   40.3020 C.3   252  LEU252      0.1596
     67  C         21.7490   62.9070   40.6100 C.2   252  LEU252      0.2287
     68  O         21.1690   62.1320   41.3740 O.2   252  LEU252     -0.2864
     69  CB        20.5030   64.3000   38.9170 C.3   252  LEU252      0.0297
     70  CG        19.7900   65.6030   38.4880 C.3   252  LEU252      0.0022
     71  CD1       18.9980   65.3810   37.2080 C.3   252  LEU252      0.0001
     72  CD2       18.8870   66.2000   39.5720 C.3   252  LEU252      0.0001
     73  N         22.5680   62.3200   44.3630 N.3   255  ASN255     -0.1225
     74  CA        21.4320   62.0980   45.2430 C.3   255  ASN255      0.1785
     75  C         20.6800   60.8020   44.9480 C.2   255  ASN255      0.2597
     76  O         19.9640   60.3080   45.8230 O.2   255  ASN255     -0.2718
     77  CB        20.4910   63.3050   45.1740 C.3   255  ASN255      0.1169
     78  CG        21.0220   64.4950   45.9670 C.2   255  ASN255      0.2627
     79  OD1       20.9210   64.5190   47.1860 O.2   255  ASN255     -0.2716
     80  ND2       21.6340   65.4570   45.2840 N.am  255  ASN255     -0.0877
     81  N         20.8480   60.2190   43.7620 N.am  256  MET256     -0.1979
     82  CA        20.0890   59.0400   43.3840 C.3   256  MET256      0.1605
     83  C         20.8780   57.7390   43.4320 C.2   256  MET256      0.2287
     84  O         20.2570   56.6750   43.4140 O.2   256  MET256     -0.2864
     85  CB        19.5190   59.1960   41.9650 C.3   256  MET256      0.0413
     86  CG        18.3770   60.1970   41.8320 C.3   256  MET256      0.0598
     87  SD        16.8950   59.7230   42.7390 S.3   256  MET256     -0.1393
     88  CE        16.2270   58.3890   41.7450 C.3   256  MET256      0.0692
     89  N         17.1350   53.0830   37.0090 N.3   265  PHE265     -0.1241
     90  CA        15.9640   53.7150   37.6000 C.3   265  PHE265      0.1605
     91  C         14.6830   53.2210   36.9500 C.2   265  PHE265      0.2264
     92  O         14.6480   52.9810   35.7380 O.2   265  PHE265     -0.2867
     93  CB        16.0400   55.2310   37.4390 C.3   265  PHE265      0.0534
     94  CG        17.2670   55.8520   38.0460 C.ar  265  PHE265     -0.0203
     95  CD1       17.9490   55.2230   39.0780 C.ar  265  PHE265     -0.0042
     96  CD2       17.7300   57.0740   37.5940 C.ar  265  PHE265     -0.0042
     97  CE1       19.0800   55.8000   39.6500 C.ar  265  PHE265     -0.0003
     98  CE2       18.8600   57.6530   38.1580 C.ar  265  PHE265     -0.0003
     99  CZ        19.5340   57.0090   39.1860 C.ar  265  PHE265     -0.0000
    100  N         16.2290   55.3710   46.7100 N.3   307  THR307     -0.1203
    101  CA        16.0350   56.8030   46.5560 C.3   307  THR307      0.1994
    102  C         14.8740   56.9810   45.6000 C.2   307  THR307      0.2618
    103  O         14.6150   56.1140   44.7610 O.2   307  THR307     -0.2717
    104  CB        17.2660   57.5150   45.9730 C.3   307  THR307      0.1784
    105  OG1       17.6420   56.8520   44.7540 O.3   307  THR307     -0.2211
    106  CG2       18.4480   57.5280   46.9590 C.3   307  THR307      0.0376
    107  N         14.1860   58.1080   45.7300 N.am  308  VAL308     -0.1965
    108  CA        13.0500   58.4480   44.8800 C.3   308  VAL308      0.1727
    109  C         13.1140   59.9380   44.6010 C.2   308  VAL308      0.2616
    110  O         13.3870   60.7340   45.5000 O.2   308  VAL308     -0.2715
    111  CB        11.6910   58.1010   45.5330 C.3   308  VAL308      0.0290
    112  CG1       10.5380   58.6440   44.6860 C.3   308  VAL308      0.0023
    113  CG2       11.5490   56.6020   45.7460 C.3   308  VAL308      0.0023
    114  N         12.8920   60.3110   43.3540 N.am  309  ALA309     -0.1963
    115  CA        12.6730   61.6940   42.9760 C.3   309  ALA309      0.1728
    116  C         11.2800   61.7810   42.3630 C.2   309  ALA309      0.2616
    117  O         10.8700   60.8890   41.6180 O.2   309  ALA309     -0.2715
    118  CB        13.7530   62.1830   41.9940 C.3   309  ALA309      0.0334
    119  N         10.5470   62.8350   42.7100 N.am  310  ALA310     -0.1963
    120  CA         9.1620   63.0320   42.2860 C.3   310  ALA310      0.1728
    121  C          9.0200   64.4760   41.8390 C.2   310  ALA310      0.2616
    122  O          9.2440   65.3930   42.6390 O.2   310  ALA310     -0.2715
    123  CB         8.1840   62.7290   43.4240 C.3   310  ALA310      0.0334
    124  N          8.6570   64.6770   40.5730 N.am  311  ILE311     -0.1977
    125  CA         8.5840   66.0080   39.9640 C.3   311  ILE311      0.1596
    126  C          7.1310   66.3040   39.6040 C.2   311  ILE311      0.2287
    127  O          6.5250   65.5860   38.7970 O.2   311  ILE311     -0.2864
    128  CB         9.4850   66.1240   38.7190 C.3   311  ILE311      0.0276
    129  CG1       10.9250   65.7210   39.0450 C.3   311  ILE311      0.0022
    130  CG2        9.4810   67.5460   38.1860 C.3   311  ILE311      0.0022
    131  CD1       11.2600   64.2770   38.7440 C.3   311  ILE311      0.0001
    132  N         15.4920   60.3940   54.7160 N.3   342  ASN342     -0.1225
    133  CA        14.9270   61.4080   53.8260 C.3   342  ASN342      0.1785
    134  C         15.2830   61.1390   52.3640 C.2   342  ASN342      0.2597
    135  O         15.6860   62.0260   51.6160 O.2   342  ASN342     -0.2718
    136  CB        15.3780   62.7980   54.2650 C.3   342  ASN342      0.1169
    137  CG        15.2100   63.0090   55.7540 C.2   342  ASN342      0.2627
    138  OD1       16.1920   63.0320   56.4970 O.2   342  ASN342     -0.2716
    139  ND2       13.9630   63.1700   56.2030 N.am  342  ASN342     -0.0877
    140  N         15.1120   59.8910   51.9490 N.am  343  ASN343     -0.1974
    141  CA        15.5000   59.4660   50.6080 C.3   343  ASN343      0.1688
    142  C         14.4140   59.6890   49.5450 C.2   343  ASN343      0.2292
    143  O         14.5380   59.1510   48.4370 O.2   343  ASN343     -0.2864
    144  CB        15.9260   57.9930   50.6350 C.3   343  ASN343      0.1181
    145  CG        14.7990   57.0520   51.0580 C.2   343  ASN343      0.2629
    146  OD1       13.7800   57.4780   51.6110 O.2   343  ASN343     -0.2716
    147  ND2       14.9910   55.7640   50.8140 N.am  343  ASN343     -0.0877
    148  N         12.6770   62.8000   47.4450 N.3   345  LYS345     -0.1245
    149  CA        12.7580   64.2160   47.1190 C.3   345  LYS345      0.1561
    150  C         11.6050   64.6470   46.2180 C.2   345  LYS345      0.2260
    151  O         11.3070   63.9930   45.2100 O.2   345  LYS345     -0.2867
    152  CB        14.0730   64.5320   46.4170 C.3   345  LYS345      0.0271
    153  CG        14.1780   65.9730   45.9690 C.3   345  LYS345      0.0035
    154  CD        14.6080   66.8440   47.1320 C.3   345  LYS345      0.0206
    155  CE        15.0880   68.2020   46.6680 C.3   345  LYS345      0.1093
    156  NZ        16.0790   68.7770   47.6230 N.3   345  LYS345     -0.1314
    157  N         10.1460   67.7360   43.8380 N.3   347  ALA347     -0.1245
    158  CA        10.4180   68.9630   43.1040 C.3   347  ALA347      0.1562
    159  C          9.1520   69.4080   42.3870 C.2   347  ALA347      0.2260
    160  O          8.3120   68.5830   42.0270 O.2   347  ALA347     -0.2867
    161  CB        11.5640   68.7800   42.0900 C.3   347  ALA347      0.0290
    162  N         10.7490   59.0160   39.5400 N.3   363  ILE363     -0.1245
    163  CA        12.0250   58.3470   39.2890 C.3   363  ILE363      0.1561
    164  C         12.4290   57.5770   40.5380 C.2   363  ILE363      0.2260
    165  O         12.7950   58.1850   41.5580 O.2   363  ILE363     -0.2867
    166  CB        13.1200   59.3350   38.8810 C.3   363  ILE363      0.0252
    167  CG1       12.6310   60.1740   37.7120 C.3   363  ILE363      0.0019
    168  CG2       14.3970   58.5930   38.4950 C.3   363  ILE363      0.0019
    169  CD1       13.2090   61.5450   37.6700 C.3   363  ILE363      0.0001
@<TRIPOS>BOND
     1    13    12    2
     2    12    11    1
     3    14    11    1
     4    14    15    1
     5    28    26    1
     6    10    11    1
     7    17    15   ar
     8    17    19   ar
     9     4     3    2
    10    15    16   ar
    11    22    23    1
    12    19    20   ar
    13    26    27    1
    14    26    23    1
    15    24    23    1
    16    24    25    2
    17     3     2    1
    18    16    18   ar
    19    20    18   ar
    20    20    21    1
    21     1     2    1
    22     2     5    1
    23     5     6    1
    24    29    30    1
    25    92    91    2
    26    31    30    1
    27    31    32    2
    28     8     7   ar
    29    30    33    1
    30     6     7    1
    31    91    90    1
    32     7     9   ar
    33    89    90    1
    34    71    70    1
    35    54    53    2
    36    93    90    1
    37    93    94    1
    38    34    33    1
    39    96    94   ar
    40    96    98   ar
    41   169   167    1
    42   167   166    1
    43    94    95   ar
    44    98    99   ar
    45   130   128    1
    46    53    52    1
    47    70    69    1
    48    70    72    1
    49   168   166    1
    50   128   129    1
    51   128   125    1
    52   131   129    1
    53   127   126    2
    54   166   163    1
    55    69    66    1
    56    95    97   ar
    57    99    97   ar
    58   163   162    1
    59   163   164    1
    60   126   125    1
    61    52    55    1
    62    52    51    1
    63   125   124    1
    64    51    45   am
    65    66    65    1
    66    66    67    1
    67    56    57    1
    68    65    58   am
    69    49    48    2
    70   164   165    2
    71   124   121   am
    72    67    68    2
    73    45    44    1
    74    45    46    2
    75    44    43    1
    76    44    47    1
    77    58    57    1
    78    58    59    2
    79    57    60    1
    80    48    47    1
    81    48    50   am
    82    42    40    1
    83   117   116    2
    84    88    87    1
    85    60    61    1
    86    86    85    1
    87    86    87    1
    88   121   120    1
    89   121   122    2
    90    85    82    1
    91    43    37   am
    92   118   115    1
    93   160   159    2
    94   161   158    1
    95   120   119    1
    96   120   123    1
    97   116   119   am
    98   116   115    1
    99   159   158    1
   100    62    61    1
   101    62    63    1
   102   115   114    1
   103   158   157    1
   104    40    41    1
   105    40    39    1
   106    37    38    2
   107    37    36    1
   108   114   109   am
   109    82    83    1
   110    82    81    1
   111    84    83    2
   112    35    36    1
   113    63    64    1
   114    81    75   am
   115    39    36    1
   116    73    74    1
   117   109   108    1
   118   109   110    2
   119   112   111    1
   120   105   104    1
   121   103   102    2
   122   108   111    1
   123   108   107    1
   124    75    74    1
   125    75    76    2
   126    77    74    1
   127    77    78    1
   128   151   150    2
   129    80    78   am
   130   111   113    1
   131   102   107   am
   132   102   101    1
   133    78    79    2
   134   153   152    1
   135   153   154    1
   136   104   101    1
   137   104   106    1
   138   150   149    1
   139   152   149    1
   140   101   100    1
   141   155   154    1
   142   155   156    1
   143   149   148    1
   144   143   142    2
   145   142   141    1
   146   141   144    1
   147   141   140    1
   148   144   145    1
   149   147   145   am
   150   145   146    2
   151   135   134    2
   152   140   134   am
   153   134   133    1
   154   133   136    1
   155   133   132    1
   156   136   137    1
   157   137   139   am
   158   137   138    2
