@<TRIPOS>MOLECULE
tmp/5m8gB00.pdb
 169 156 0 0 0
SMALL
GASTEIGER

@<TRIPOS>ATOM
      1  N         23.7320   57.0020   35.4890 N.3   197  GLU197     -0.1245
      2  CA        22.2970   56.8130   35.6640 C.3   197  GLU197      0.1567
      3  C         21.7470   56.1860   34.4000 C.2   197  GLU197      0.2260
      4  O         22.0470   56.6520   33.2950 O.2   197  GLU197     -0.2867
      5  CB        21.5770   58.1400   35.9460 C.3   197  GLU197      0.0388
      6  CG        21.8690   58.7160   37.3180 C.3   197  GLU197      0.1160
      7  CD        21.1740   60.0680   37.5580 C.2   197  GLU197      0.3649
      8  OE1       21.4290   61.0270   36.7900 O.co2 197  GLU197     -0.2457
      9  OE2       20.3760   60.1650   38.5160 O.co2 197  GLU197     -0.2457
     10  N         17.9680   55.1180   33.0180 N.3   199  TYR199     -0.1241
     11  CA        16.5120   55.0300   33.0950 C.3   199  TYR199      0.1605
     12  C         16.0890   53.7830   32.3290 C.2   199  TYR199      0.2264
     13  O         16.2740   53.7040   31.1070 O.2   199  TYR199     -0.2867
     14  CB        15.8670   56.3050   32.5440 C.3   199  TYR199      0.0534
     15  CG        16.1940   57.5110   33.4040 C.ar  199  TYR199     -0.0201
     16  CD1       17.3750   58.2220   33.2100 C.ar  199  TYR199     -0.0009
     17  CD2       15.3580   57.9040   34.4490 C.ar  199  TYR199     -0.0009
     18  CE1       17.7040   59.3010   34.0060 C.ar  199  TYR199      0.0417
     19  CE2       15.6820   58.9990   35.2560 C.ar  199  TYR199      0.0417
     20  CZ        16.8630   59.6890   35.0250 C.ar  199  TYR199      0.1957
     21  OH        17.2110   60.7710   35.8050 O.3   199  TYR199     -0.2866
     22  N         11.5680   63.8410   33.7230 N.3   235  VAL235     -0.1245
     23  CA        12.7950   63.6290   34.4760 C.3   235  VAL235      0.1561
     24  C         13.7770   64.7770   34.2680 C.2   235  VAL235      0.2260
     25  O         14.6420   65.0010   35.1160 O.2   235  VAL235     -0.2867
     26  CB        13.4730   62.2720   34.1360 C.3   235  VAL235      0.0252
     27  CG1       12.5070   61.0980   34.3140 C.3   235  VAL235      0.0019
     28  CG2       14.0460   62.2670   32.7620 C.3   235  VAL235      0.0019
     29  N         13.8580   69.4230   35.9650 N.3   238  CYS238     -0.1235
     30  CA        14.6880   70.1210   36.9470 C.3   238  CYS238      0.1677
     31  C         15.9520   70.7010   36.3250 C.2   238  CYS238      0.2270
     32  O         16.5570   71.6050   36.9070 O.2   238  CYS238     -0.2867
     33  CB        15.0510   69.1840   38.0940 C.3   238  CYS238      0.0956
     34  SG        16.1080   67.8200   37.5610 S.3   238  CYS238     -0.0801
     35  N         15.6610   74.6040   42.6900 N.3   245  LEU245     -0.1245
     36  CA        16.3760   73.3740   43.0120 C.3   245  LEU245      0.1561
     37  C         17.8820   73.5260   42.8380 C.2   245  LEU245      0.2260
     38  O         18.6590   73.1050   43.7060 O.2   245  LEU245     -0.2867
     39  CB        15.8440   72.2330   42.1550 C.3   245  LEU245      0.0270
     40  CG        14.6640   71.5230   42.8040 C.3   245  LEU245      0.0019
     41  CD1       14.0970   70.5010   41.8530 C.3   245  LEU245      0.0001
     42  CD2       15.1230   70.8610   44.0840 C.3   245  LEU245      0.0001
     43  N         19.7690   72.0610   40.3080 N.3   247  ALA247     -0.1245
     44  CA        20.2080   70.7010   40.0100 C.3   247  ALA247      0.1562
     45  C         20.9580   70.6350   38.6840 C.2   247  ALA247      0.2260
     46  O         20.5150   71.1980   37.6790 O.2   247  ALA247     -0.2867
     47  CB        19.0200   69.7400   39.9520 C.3   247  ALA247      0.0290
     48  N         24.8030   66.3470   40.5640 N.3   251  LYS251     -0.1231
     49  CA        23.9370   66.3910   41.7350 C.3   251  LYS251      0.1693
     50  C         22.8480   65.3300   41.6680 C.2   251  LYS251      0.2591
     51  O         22.5730   64.6530   42.6680 O.2   251  LYS251     -0.2718
     52  CB        23.3240   67.7830   41.8760 C.3   251  LYS251      0.0285
     53  CG        24.0680   68.6670   42.8430 C.3   251  LYS251      0.0035
     54  CD        23.4790   70.0820   42.9420 C.3   251  LYS251      0.0206
     55  CE        24.4140   71.0030   43.7300 C.3   251  LYS251      0.1093
     56  NZ        23.7990   72.3430   44.0060 N.3   251  LYS251     -0.1314
     57  N         22.2270   65.1500   40.4970 N.am  252  LEU252     -0.1980
     58  CA        21.2140   64.1030   40.3770 C.3   252  LEU252      0.1596
     59  C         21.8100   62.7350   40.6910 C.2   252  LEU252      0.2287
     60  O         21.2550   61.9660   41.4880 O.2   252  LEU252     -0.2864
     61  CB        20.5810   64.1160   38.9790 C.3   252  LEU252      0.0297
     62  CG        19.8140   65.3820   38.5650 C.3   252  LEU252      0.0022
     63  CD1       18.9630   65.1080   37.3270 C.3   252  LEU252      0.0001
     64  CD2       18.9580   65.9730   39.6880 C.3   252  LEU252      0.0001
     65  N         22.6830   62.1220   44.4190 N.3   255  ASN255     -0.1225
     66  CA        21.5610   61.9760   45.3350 C.3   255  ASN255      0.1785
     67  C         20.7470   60.7190   45.0880 C.2   255  ASN255      0.2597
     68  O         19.9700   60.3350   45.9660 O.2   255  ASN255     -0.2718
     69  CB        20.6580   63.2170   45.2590 C.3   255  ASN255      0.1169
     70  CG        21.1930   64.3650   46.0980 C.2   255  ASN255      0.2627
     71  OD1       21.0060   64.3850   47.3130 O.2   255  ASN255     -0.2716
     72  ND2       21.8770   65.3160   45.4590 N.am  255  ASN255     -0.0877
     73  N         20.9160   60.0650   43.9290 N.am  256  MET256     -0.1979
     74  CA        20.1340   58.8850   43.5920 C.3   256  MET256      0.1605
     75  C         20.9180   57.5870   43.6510 C.2   256  MET256      0.2287
     76  O         20.2990   56.5250   43.6410 O.2   256  MET256     -0.2864
     77  CB        19.5280   59.0150   42.1810 C.3   256  MET256      0.0413
     78  CG        18.4640   60.1190   42.0540 C.3   256  MET256      0.0598
     79  SD        16.9360   59.7440   42.9560 S.3   256  MET256     -0.1393
     80  CE        16.2310   58.4110   41.9870 C.3   256  MET256      0.0692
     81  N         17.1520   52.8130   37.2230 N.3   265  PHE265     -0.1241
     82  CA        15.9580   53.4350   37.7910 C.3   265  PHE265      0.1605
     83  C         14.6910   52.9630   37.0900 C.2   265  PHE265      0.2264
     84  O         14.6630   52.8240   35.8610 O.2   265  PHE265     -0.2867
     85  CB        16.0450   54.9630   37.6870 C.3   265  PHE265      0.0534
     86  CG        17.2690   55.5450   38.3450 C.ar  265  PHE265     -0.0203
     87  CD1       17.8840   54.8890   39.4010 C.ar  265  PHE265     -0.0042
     88  CD2       17.8140   56.7340   37.8980 C.ar  265  PHE265     -0.0042
     89  CE1       19.0220   55.4140   39.9980 C.ar  265  PHE265     -0.0003
     90  CE2       18.9510   57.2540   38.4990 C.ar  265  PHE265     -0.0003
     91  CZ        19.5550   56.5760   39.5440 C.ar  265  PHE265     -0.0000
     92  N         16.2550   55.1270   46.9200 N.3   307  THR307     -0.1203
     93  CA        16.0750   56.5590   46.7200 C.3   307  THR307      0.1994
     94  C         14.9040   56.7360   45.7680 C.2   307  THR307      0.2618
     95  O         14.6510   55.8800   44.9190 O.2   307  THR307     -0.2717
     96  CB        17.3250   57.2500   46.1200 C.3   307  THR307      0.1784
     97  OG1       17.6940   56.5970   44.8950 O.3   307  THR307     -0.2211
     98  CG2       18.5390   57.2430   47.0870 C.3   307  THR307      0.0376
     99  N         14.1960   57.8500   45.9110 N.am  308  VAL308     -0.1965
    100  CA        13.0340   58.1560   45.0800 C.3   308  VAL308      0.1727
    101  C         13.0510   59.6490   44.8040 C.2   308  VAL308      0.2616
    102  O         13.2690   60.4490   45.7200 O.2   308  VAL308     -0.2715
    103  CB        11.6980   57.7540   45.7540 C.3   308  VAL308      0.0290
    104  CG1       10.4810   58.3570   45.0050 C.3   308  VAL308      0.0023
    105  CG2       11.5580   56.2530   45.8160 C.3   308  VAL308      0.0023
    106  N         12.8480   60.0230   43.5480 N.am  309  ALA309     -0.1963
    107  CA        12.5160   61.3920   43.1780 C.3   309  ALA309      0.1728
    108  C         11.0770   61.4040   42.6830 C.2   309  ALA309      0.2616
    109  O         10.6810   60.5210   41.9170 O.2   309  ALA309     -0.2715
    110  CB        13.4660   61.9290   42.1060 C.3   309  ALA309      0.0334
    111  N         10.2930   62.3750   43.1520 N.am  310  ALA310     -0.1963
    112  CA         8.9040   62.5770   42.7360 C.3   310  ALA310      0.1728
    113  C          8.7660   64.0160   42.2560 C.2   310  ALA310      0.2616
    114  O          8.8860   64.9480   43.0570 O.2   310  ALA310     -0.2715
    115  CB         7.9370   62.2880   43.8880 C.3   310  ALA310      0.0334
    116  N          8.5220   64.2030   40.9600 N.am  311  ILE311     -0.1977
    117  CA         8.5280   65.5270   40.3340 C.3   311  ILE311      0.1596
    118  C          7.1060   65.8710   39.8970 C.2   311  ILE311      0.2287
    119  O          6.5610   65.2610   38.9670 O.2   311  ILE311     -0.2864
    120  CB         9.5020   65.5970   39.1470 C.3   311  ILE311      0.0276
    121  CG1       10.9150   65.2190   39.5900 C.3   311  ILE311      0.0022
    122  CG2        9.5100   66.9970   38.5310 C.3   311  ILE311      0.0022
    123  CD1       11.3510   63.8400   39.1450 C.3   311  ILE311      0.0001
    124  N         18.8070   54.9790   54.7990 N.3   340  ILE340     -0.1245
    125  CA        19.0850   56.2270   54.0940 C.3   340  ILE340      0.1561
    126  C         18.0240   57.2350   54.5210 C.2   340  ILE340      0.2260
    127  O         16.9190   57.2410   53.9590 O.2   340  ILE340     -0.2867
    128  CB        19.1130   56.0340   52.5670 C.3   340  ILE340      0.0252
    129  CG1       20.1950   55.0180   52.1760 C.3   340  ILE340      0.0019
    130  CG2       19.3910   57.3590   51.8830 C.3   340  ILE340      0.0019
    131  CD1       20.2650   54.7180   50.6850 C.3   340  ILE340      0.0001
    132  N         15.5440   60.2630   54.8370 N.3   342  ASN342     -0.1225
    133  CA        14.9900   61.2670   53.9220 C.3   342  ASN342      0.1785
    134  C         15.3330   60.9520   52.4640 C.2   342  ASN342      0.2597
    135  O         15.7730   61.8110   51.7000 O.2   342  ASN342     -0.2718
    136  CB        15.4680   62.6640   54.3070 C.3   342  ASN342      0.1169
    137  CG        15.2650   62.9450   55.7720 C.2   342  ASN342      0.2627
    138  OD1       16.2190   62.9970   56.5430 O.2   342  ASN342     -0.2716
    139  ND2       14.0060   63.1050   56.1720 N.am  342  ASN342     -0.0877
    140  N         15.1280   59.6970   52.0840 N.am  343  ASN343     -0.1974
    141  CA        15.5060   59.2030   50.7680 C.3   343  ASN343      0.1688
    142  C         14.3800   59.3410   49.7300 C.2   343  ASN343      0.2292
    143  O         14.4430   58.7010   48.6650 O.2   343  ASN343     -0.2864
    144  CB        15.9650   57.7460   50.8860 C.3   343  ASN343      0.1181
    145  CG        14.8980   56.8510   51.4770 C.2   343  ASN343      0.2629
    146  OD1       13.9480   57.3230   52.0990 O.2   343  ASN343     -0.2716
    147  ND2       15.0480   55.5560   51.2860 N.am  343  ASN343     -0.0877
    148  N         12.7040   62.4200   47.6210 N.3   345  LYS345     -0.1245
    149  CA        12.7350   63.8370   47.2830 C.3   345  LYS345      0.1561
    150  C         11.4490   64.2390   46.5700 C.2   345  LYS345      0.2260
    151  O         11.0200   63.5720   45.6160 O.2   345  LYS345     -0.2867
    152  CB        13.9310   64.1750   46.3830 C.3   345  LYS345      0.0271
    153  CG        14.1180   65.6750   46.2160 C.3   345  LYS345      0.0035
    154  CD        14.7000   66.2550   47.4960 C.3   345  LYS345      0.0206
    155  CE        14.8400   67.7600   47.4350 C.3   345  LYS345      0.1093
    156  NZ        15.3200   68.1860   46.0980 N.3   345  LYS345     -0.1314
    157  N          9.7810   67.3390   44.3830 N.3   347  ALA347     -0.1245
    158  CA        10.1310   68.5080   43.5900 C.3   347  ALA347      0.1562
    159  C          8.8920   68.9770   42.8530 C.2   347  ALA347      0.2260
    160  O          8.1060   68.1600   42.3770 O.2   347  ALA347     -0.2867
    161  CB        11.2580   68.1960   42.5810 C.3   347  ALA347      0.0290
    162  N         10.6910   58.6530   39.7970 N.3   363  ILE363     -0.1245
    163  CA        12.0030   58.0330   39.5290 C.3   363  ILE363      0.1561
    164  C         12.4160   57.2460   40.7610 C.2   363  ILE363      0.2260
    165  O         12.8070   57.8400   41.7720 O.2   363  ILE363     -0.2867
    166  CB        13.0820   59.0510   39.1720 C.3   363  ILE363      0.0252
    167  CG1       12.5980   59.9620   38.0570 C.3   363  ILE363      0.0019
    168  CG2       14.3870   58.3340   38.7600 C.3   363  ILE363      0.0019
    169  CD1       13.4630   61.1750   37.8890 C.3   363  ILE363      0.0001
@<TRIPOS>BOND
     1    13    12    2
     2    12    11    1
     3    14    11    1
     4    14    15    1
     5    28    26    1
     6    10    11    1
     7    16    15   ar
     8    16    18   ar
     9     4     3    2
    10    15    17   ar
    11    22    23    1
    12    18    20   ar
    13    26    27    1
    14    26    23    1
    15    24    23    1
    16    24    25    2
    17     3     2    1
    18    17    19   ar
    19    20    19   ar
    20    20    21    1
    21     1     2    1
    22     2     5    1
    23    84    83    2
    24     5     6    1
    25    29    30    1
    26    31    32    2
    27    31    30    1
    28     8     7   ar
    29    30    33    1
    30    83    82    1
    31    81    82    1
    32     6     7    1
    33    63    62    1
    34     7     9   ar
    35    34    33    1
    36    46    45    2
    37    85    82    1
    38    85    86    1
    39   169   167    1
    40    88    86   ar
    41    88    90   ar
    42   167   166    1
    43    86    87   ar
    44    90    91   ar
    45   122   120    1
    46    62    61    1
    47    62    64    1
    48    45    44    1
    49   168   166    1
    50   119   118    2
    51    61    58    1
    52   123   121    1
    53   120   121    1
    54   120   117    1
    55   166   163    1
    56    87    89   ar
    57   163   162    1
    58   163   164    1
    59    91    89   ar
    60   118   117    1
    61    47    44    1
    62    44    43    1
    63   117   116    1
    64    58    57    1
    65    58    59    1
    66    57    50   am
    67    48    49    1
    68    59    60    2
    69   164   165    2
    70   116   113   am
    71    50    49    1
    72    50    51    2
    73    49    52    1
    74    41    40    1
    75    52    53    1
    76   109   108    2
    77    80    79    1
    78    78    77    1
    79    78    79    1
    80   110   107    1
    81    39    40    1
    82    39    36    1
    83    77    74    1
    84   113   112    1
    85   113   114    2
    86   160   159    2
    87   161   158    1
    88   108   111   am
    89   108   107    1
    90    35    36    1
    91   112   111    1
    92   112   115    1
    93    40    42    1
    94    37    36    1
    95    37    38    2
    96    53    54    1
    97   159   158    1
    98    54    55    1
    99   107   106    1
   100   106   101   am
   101   158   157    1
   102    74    75    1
   103    74    73    1
   104    76    75    2
   105    55    56    1
   106    73    67   am
   107    65    66    1
   108   101   100    1
   109   101   102    2
   110    97    96    1
   111    95    94    2
   112   104   103    1
   113   100   103    1
   114   100    99    1
   115    67    66    1
   116    67    68    2
   117    69    66    1
   118    69    70    1
   119    72    70   am
   120   151   150    2
   121   103   105    1
   122    94    99   am
   123    94    93    1
   124   156   155    1
   125    70    71    2
   126    96    93    1
   127    96    98    1
   128   153   152    1
   129   153   154    1
   130   152   149    1
   131   150   149    1
   132    93    92    1
   133   149   148    1
   134   155   154    1
   135   143   142    2
   136   142   141    1
   137   131   129    1
   138   141   144    1
   139   141   140    1
   140   144   145    1
   141   147   145   am
   142   145   146    2
   143   135   134    2
   144   130   128    1
   145   140   134   am
   146   129   128    1
   147   134   133    1
   148   128   125    1
   149   133   136    1
   150   133   132    1
   151   127   126    2
   152   125   126    1
   153   125   124    1
   154   136   137    1
   155   137   139   am
   156   137   138    2
