@<TRIPOS>MOLECULE
tmp/5m8hD00.pdb
 111 104 0 0 0
SMALL
GASTEIGER

@<TRIPOS>ATOM
      1  N         76.4130   24.8380   32.3760 N.3    76  ALA76      -0.1231
      2  CA        76.9070   24.9030   33.7300 C.3    76  ALA76       0.1694
      3  C         76.0020   25.7960   34.5920 C.2    76  ALA76       0.2592
      4  O         76.1120   25.7740   35.8070 O.2    76  ALA76      -0.2718
      5  CB        78.3240   25.4510   33.7010 C.3    76  ALA76       0.0304
      6  N         75.1310   26.5760   33.9440 N.am   77  ASP77      -0.1974
      7  CA        74.2060   27.4490   34.6440 C.3    77  ASP77       0.1709
      8  C         72.9630   27.6810   33.8020 C.2    77  ASP77       0.2293
      9  O         73.0630   27.7900   32.5780 O.2    77  ASP77      -0.2864
     10  CB        74.8840   28.7990   34.9150 C.3    77  ASP77       0.1436
     11  CG        74.1380   29.6320   35.9380 C.2    77  ASP77       0.3671
     12  OD1       73.9470   29.1290   37.0570 O.co2  77  ASP77      -0.2456
     13  OD2       73.7590   30.7890   35.6650 O.co2  77  ASP77      -0.2456
     14  N         72.7920   20.7240   35.9320 N.3   103  VAL103     -0.1245
     15  CA        73.8570   21.4430   35.2760 C.3   103  VAL103      0.1561
     16  C         75.1470   20.6960   35.5750 C.2   103  VAL103      0.2260
     17  O         75.2280   19.9610   36.5540 O.2   103  VAL103     -0.2867
     18  CB        73.9500   22.9170   35.7370 C.3   103  VAL103      0.0252
     19  CG1       72.6490   23.6730   35.4550 C.3   103  VAL103      0.0019
     20  CG2       74.2690   23.0310   37.2170 C.3   103  VAL103      0.0019
     21  N         79.5370   20.9490   35.7100 N.3   105  HIS105     -0.1241
     22  CA        80.6940   21.8230   35.7990 C.3   105  HIS105      0.1621
     23  C         81.9240   21.0020   35.5000 C.2   105  HIS105      0.2264
     24  O         82.0170   19.8470   35.9260 O.2   105  HIS105     -0.2867
     25  CB        80.8180   22.4140   37.1930 C.3   105  HIS105      0.0745
     26  CG        79.6950   23.3210   37.5760 C.ar  105  HIS105      0.0817
     27  ND1       79.4210   23.6530   38.8870 N.ar  105  HIS105     -0.2268
     28  CD2       78.7610   23.9460   36.8240 C.ar  105  HIS105      0.1154
     29  CE1       78.3700   24.4490   38.9230 C.ar  105  HIS105      0.1986
     30  NE2       77.9530   24.6460   37.6850 N.ar  105  HIS105     -0.2212
     31  N         83.4580   23.6530   42.4850 N.3   109  SER109     -0.1217
     32  CA        83.4560   25.1100   42.6370 C.3   109  SER109      0.1889
     33  C         84.0890   25.5140   43.9540 C.2   109  SER109      0.2288
     34  O         84.6120   26.6230   44.0910 O.2   109  SER109     -0.2866
     35  CB        82.0260   25.6740   42.6280 C.3   109  SER109      0.2089
     36  OG        81.2950   25.1490   41.5550 O.3   109  SER109     -0.2183
     37  N         75.3210   19.4090   40.0870 N.3   117  PRO117     -0.2116
     38  CA        74.2490   19.8560   40.9680 C.3   117  PRO117      0.1372
     39  C         72.8950   19.8240   40.2610 C.2   117  PRO117      0.2244
     40  O         72.8400   19.9190   39.0180 O.2   117  PRO117     -0.2868
     41  CB        74.6540   21.2880   41.2940 C.3   117  PRO117      0.0268
     42  CG        75.4430   21.7270   40.1420 C.3   117  PRO117      0.0207
     43  CD        76.1860   20.5200   39.6680 C.3   117  PRO117      0.0892
     44  N         70.2020   22.1230   39.8550 N.3   119  GLN119     -0.1196
     45  CA        70.0500   23.5720   40.0670 C.3   119  GLN119      0.1782
     46  C         68.5780   23.9920   40.0090 C.2   119  GLN119      0.2306
     47  O         67.9310   23.8720   38.9600 O.2   119  GLN119     -0.2863
     48  CB        70.8500   24.3700   39.0170 C.2   119  GLN119      0.0051
     49  CG        70.6940   25.8890   39.0980 C.2   119  GLN119      0.0584
     50  CD        71.5800   26.6790   38.1450 C.2   119  GLN119      0.2840
     51  OE1       71.3700   26.7150   36.9590 O.2   119  GLN119     -0.2667
     52  NE2       72.5380   27.3410   38.6680 N.am  119  GLN119     -0.0837
     53  N         78.1990   28.4010   49.7460 N.3   282  PRO282     -0.2102
     54  CA        76.7990   28.8250   49.9120 C.3   282  PRO282      0.1504
     55  C         75.8050   27.8190   49.3340 C.2   282  PRO282      0.2575
     56  O         76.0440   27.2700   48.2690 O.2   282  PRO282     -0.2718
     57  CB        76.6900   30.1090   49.0770 C.3   282  PRO282      0.0282
     58  CG        78.0820   30.5770   48.8950 C.3   282  PRO282      0.0208
     59  CD        79.0290   29.4460   49.1350 C.3   282  PRO282      0.0893
     60  N         74.7200   27.5790   50.0650 N.am  283  LEU283     -0.1980
     61  CA        73.5810   26.8280   49.5600 C.3   283  LEU283      0.1596
     62  C         72.8420   27.6350   48.5040 C.2   283  LEU283      0.2287
     63  O         72.4470   27.1130   47.4850 O.2   283  LEU283     -0.2864
     64  CB        72.6450   26.4940   50.6980 C.3   283  LEU283      0.0297
     65  CG        71.3440   25.7690   50.3710 C.3   283  LEU283      0.0022
     66  CD1       71.6430   24.4220   49.7870 C.3   283  LEU283      0.0001
     67  CD2       70.4790   25.6300   51.5970 C.3   283  LEU283      0.0001
     68  N         72.7550   31.1960   46.1170 N.3   285  ARG285     -0.1245
     69  CA        73.4530   32.3330   45.5460 C.3   285  ARG285      0.1563
     70  C         72.4460   33.1260   44.7830 C.2   285  ARG285      0.2260
     71  O         71.6750   32.5740   44.0400 O.2   285  ARG285     -0.2867
     72  CB        74.5630   31.8930   44.5850 C.3   285  ARG285      0.0307
     73  CG        75.7220   31.1450   45.2430 C.3   285  ARG285      0.0489
     74  CD        77.0610   31.3620   44.5400 C.3   285  ARG285      0.2205
     75  NE        77.8640   32.3510   45.2720 N.pl3 285  ARG285     -0.0865
     76  CZ        79.0270   32.8760   44.8870 C.cat 285  ARG285      0.5346
     77  NH1       79.6380   33.7720   45.6840 N.pl3 285  ARG285      0.1354
     78  NH2       79.5930   32.5380   43.7270 N.pl3 285  ARG285      0.1354
     79  N         69.5120   30.8600   42.9150 N.3   299  SER299     -0.1202
     80  CA        69.5170   29.4550   42.6080 C.3   299  SER299      0.2020
     81  C         70.1760   28.6580   43.7080 C.2   299  SER299      0.2619
     82  O         70.8550   29.2130   44.5270 O.2   299  SER299     -0.2717
     83  CB        70.1810   29.2100   41.2570 C.3   299  SER299      0.2103
     84  OG        71.5090   29.6320   41.2620 O.3   299  SER299     -0.2182
     85  N         69.9490   27.3480   43.7200 N.am  300  MET300     -0.1965
     86  CA        70.5020   26.4600   44.7330 C.3   300  MET300      0.1736
     87  C         70.6270   25.0520   44.1860 C.2   300  MET300      0.2616
     88  O         69.8680   24.6750   43.2940 O.2   300  MET300     -0.2715
     89  CB        69.6260   26.4290   45.9770 C.3   300  MET300      0.0427
     90  CG        68.2810   25.7140   45.8050 C.3   300  MET300      0.0599
     91  SD        67.1870   25.8600   47.2280 S.3   300  MET300     -0.1393
     92  CE        66.5840   27.5430   46.9240 C.3   300  MET300      0.0692
     93  N         71.5510   24.2840   44.7630 N.am  301  ASP301     -0.1971
     94  CA        71.6690   22.8750   44.4980 C.3   301  ASP301      0.1709
     95  C         70.7220   22.1140   45.4420 C.2   301  ASP301      0.2293
     96  O         70.9800   21.9690   46.6420 O.2   301  ASP301     -0.2864
     97  CB        73.1100   22.3790   44.6920 C.3   301  ASP301      0.1436
     98  CG        73.2910   20.8890   44.3140 C.2   301  ASP301      0.3671
     99  OD1       72.3150   20.2030   43.9070 O.co2 301  ASP301     -0.2456
    100  OD2       74.4430   20.4240   44.3990 O.co2 301  ASP301     -0.2456
    101  N         72.0550   19.4670   47.9150 N.3   304  ARG304     -0.1245
    102  CA        72.6220   19.8730   49.2050 C.3   304  ARG304      0.1563
    103  C         71.6240   19.9960   50.3330 C.2   304  ARG304      0.2260
    104  O         72.0220   20.0510   51.4910 O.2   304  ARG304     -0.2867
    105  CB        73.4170   21.1510   49.0460 C.3   304  ARG304      0.0307
    106  CG        74.6650   20.8740   48.1860 C.3   304  ARG304      0.0489
    107  CD        75.6020   22.0300   48.1460 C.3   304  ARG304      0.2205
    108  NE        76.0020   22.4070   49.5010 N.pl3 304  ARG304     -0.0865
    109  CZ        76.4940   23.5980   49.8350 C.cat 304  ARG304      0.5346
    110  NH1       76.6450   24.5530   48.9010 N.pl3 304  ARG304      0.1354
    111  NH2       76.8030   23.8330   51.1060 N.pl3 304  ARG304      0.1354
@<TRIPOS>BOND
     1     1     2    1
     2     9     8    2
     3     5     2    1
     4     2     3    1
     5     8     7    1
     6     6     3   am
     7     6     7    1
     8     3     4    2
     9     7    10    1
    10    10    11    1
    11    15    16    1
    12    15    18    1
    13    15    14    1
    14    19    18    1
    15    23    22    1
    16    23    24    2
    17    16    17    2
    18    13    11   ar
    19    21    22    1
    20    18    20    1
    21    22    25    1
    22    11    12   ar
    23    28    26   ar
    24    28    30   ar
    25    51    50    2
    26    25    26    1
    27    26    27   ar
    28    30    29   ar
    29    50    52   am
    30    50    49    1
    31    27    29   ar
    32    47    46    2
    33    48    49    2
    34    48    45    1
    35    40    39    2
    36    43    37    1
    37    43    42    1
    38    44    45    1
    39    46    45    1
    40    37    38    1
    41    42    41    1
    42    39    38    1
    43    38    41    1
    44    83    84    1
    45    83    80    1
    46    36    35    1
    47    31    32    1
    48    80    79    1
    49    80    81    1
    50    35    32    1
    51    32    33    1
    52    88    87    2
    53    81    85   am
    54    81    82    2
    55    85    86    1
    56    78    76    1
    57    99    98   ar
    58    33    34    2
    59    71    70    2
    60    87    86    1
    61    87    93   am
    62    98   100   ar
    63    98    97    1
    64    94    97    1
    65    94    93    1
    66    94    95    1
    67    74    73    1
    68    74    75    1
    69    72    73    1
    70    72    69    1
    71    86    89    1
    72    70    69    1
    73    76    75    2
    74    76    77    1
    75    95    96    2
    76    69    68    1
    77    90    89    1
    78    90    91    1
    79    92    91    1
    80    63    62    2
    81   101   102    1
    82   107   106    1
    83   107   108    1
    84   106   105    1
    85    56    55    2
    86    62    61    1
    87    58    57    1
    88    58    59    1
    89   110   109    1
    90   105   102    1
    91    57    54    1
    92    59    53    1
    93   102   103    1
    94    55    54    1
    95    55    60   am
    96   108   109    2
    97    61    60    1
    98    61    64    1
    99    53    54    1
   100    66    65    1
   101   109   111    1
   102   103   104    2
   103    65    64    1
   104    65    67    1
