@<TRIPOS>MOLECULE
tmp/5m8hA01.pdb
 115 109 0 0 0
SMALL
GASTEIGER

@<TRIPOS>ATOM
      1  N        113.4150   43.1500    7.9800 N.3   133  ASP133     -0.1239
      2  CA       112.4560   42.5060    7.0830 C.3   133  ASP133      0.1674
      3  C        113.0760   42.1710    5.7330 C.2   133  ASP133      0.2266
      4  O        112.7530   41.1760    5.1340 O.2   133  ASP133     -0.2867
      5  CB       111.2190   43.4000    6.8890 C.3   133  ASP133      0.1410
      6  CG       110.5340   43.7300    8.2000 C.2   133  ASP133      0.3668
      7  OD1      109.7500   42.8900    8.7000 O.co2 133  ASP133     -0.2456
      8  OD2      110.8190   44.8260    8.7430 O.co2 133  ASP133     -0.2456
      9  N        115.3990   39.0140    6.1500 N.3   136  LEU136     -0.1231
     10  CA       114.5440   37.8330    6.1850 C.3   136  LEU136      0.1693
     11  C        114.0690   37.3970    4.7970 C.2   136  LEU136      0.2591
     12  O        114.0660   36.1920    4.4940 O.2   136  LEU136     -0.2718
     13  CB       113.3390   38.0440    7.0780 C.3   136  LEU136      0.0284
     14  CG       113.5770   37.8330    8.5580 C.3   136  LEU136      0.0019
     15  CD1      112.4150   38.4060    9.3760 C.3   136  LEU136      0.0001
     16  CD2      113.7490   36.3590    8.8970 C.3   136  LEU136      0.0001
     17  N        113.6690   38.3650    3.9770 N.am  137  ILE137     -0.1980
     18  CA       113.2770   38.0890    2.6100 C.3   137  ILE137      0.1595
     19  C        114.4500   37.4740    1.8620 C.2   137  ILE137      0.2287
     20  O        114.2780   36.5380    1.0790 O.2   137  ILE137     -0.2864
     21  CB       112.8350   39.3880    1.8650 C.3   137  ILE137      0.0276
     22  CG1      111.5520   39.9720    2.4440 C.3   137  ILE137      0.0022
     23  CG2      112.6590   39.1580    0.3560 C.3   137  ILE137      0.0022
     24  CD1      110.3280   39.0970    2.3260 C.3   137  ILE137      0.0001
     25  N        115.0100   33.8780    3.1680 N.3   140  LEU140     -0.1245
     26  CA       113.9340   33.0400    2.6340 C.3   140  LEU140      0.1561
     27  C        114.1480   32.6990    1.1700 C.2   140  LEU140      0.2260
     28  O        114.0740   31.5400    0.7990 O.2   140  LEU140     -0.2867
     29  CB       112.5920   33.7370    2.7960 C.3   140  LEU140      0.0270
     30  CG       111.3500   33.0960    2.1820 C.3   140  LEU140      0.0019
     31  CD1      111.1420   31.6780    2.6950 C.3   140  LEU140      0.0001
     32  CD2      110.1520   33.9750    2.5040 C.3   140  LEU140      0.0001
     33  N        101.9590   41.0730   -0.2500 N.3   157  LEU157     -0.1245
     34  CA       102.3030   41.9300    0.8850 C.3   157  LEU157      0.1561
     35  C        101.0820   42.6450    1.3860 C.2   157  LEU157      0.2260
     36  O        100.2410   43.0440    0.6070 O.2   157  LEU157     -0.2867
     37  CB       103.3570   42.9700    0.5110 C.3   157  LEU157      0.0270
     38  CG       104.6600   42.4890   -0.1280 C.3   157  LEU157      0.0019
     39  CD1      105.5660   43.6900   -0.4140 C.3   157  LEU157      0.0001
     40  CD2      105.3380   41.5170    0.8300 C.3   157  LEU157      0.0001
     41  N        109.7150   47.1680    0.1760 N.3   242  LEU242     -0.1245
     42  CA       109.7270   45.7120    0.0480 C.3   242  LEU242      0.1561
     43  C        109.3900   45.2270   -1.3500 C.2   242  LEU242      0.2260
     44  O        110.0210   44.2860   -1.8630 O.2   242  LEU242     -0.2867
     45  CB       108.7840   45.0580    1.0350 C.3   242  LEU242      0.0270
     46  CG       109.1380   45.1680    2.5220 C.3   242  LEU242      0.0019
     47  CD1      108.4260   44.0570    3.2860 C.3   242  LEU242      0.0001
     48  CD2      110.6460   45.0500    2.7710 C.3   242  LEU242      0.0001
     49  N        103.9650   45.3260    8.7160 N.3   270  ILE270     -0.1231
     50  CA       104.0540   44.6620    7.4250 C.3   270  ILE270      0.1692
     51  C        103.7890   43.1340    7.5470 C.2   270  ILE270      0.2592
     52  O        104.1020   42.5110    8.5660 O.2   270  ILE270     -0.2718
     53  CB       105.3910   45.0220    6.7270 C.3   270  ILE270      0.0266
     54  CG1      105.3300   44.7030    5.2480 C.3   270  ILE270      0.0019
     55  CG2      106.5960   44.2860    7.3520 C.3   270  ILE270      0.0020
     56  CD1      105.9280   45.8510    4.4420 C.3   270  ILE270      0.0001
     57  N        103.1260   42.5570    6.5470 N.am  271  VAL271     -0.1966
     58  CA       102.8870   41.1100    6.4970 C.3   271  VAL271      0.1727
     59  C        103.1880   40.5470    5.1240 C.2   271  VAL271      0.2616
     60  O        103.0670   41.2450    4.1160 O.2   271  VAL271     -0.2715
     61  CB       101.4460   40.7000    6.9570 C.3   271  VAL271      0.0290
     62  CG1      101.2240   41.1040    8.4360 C.3   271  VAL271      0.0023
     63  CG2      100.3760   41.2340    6.0260 C.3   271  VAL271      0.0023
     64  N        103.5920   39.2720    5.1000 N.am  272  PHE272     -0.1974
     65  CA       104.0330   38.5680    3.9050 C.3   272  PHE272      0.1639
     66  C        103.2940   37.2170    3.8460 C.2   272  PHE272      0.2290
     67  O        103.1010   36.5400    4.8530 O.2   272  PHE272     -0.2864
     68  CB       105.5840   38.4320    3.9910 C.3   272  PHE272      0.0560
     69  CG       106.2530   37.6030    2.9360 C.ar  272  PHE272     -0.0200
     70  CD1      106.1730   36.2150    2.9740 C.ar  272  PHE272     -0.0042
     71  CD2      107.0940   38.1940    1.9940 C.ar  272  PHE272     -0.0042
     72  CE1      106.8200   35.4370    2.0180 C.ar  272  PHE272     -0.0003
     73  CE2      107.7540   37.4220    1.0250 C.ar  272  PHE272     -0.0003
     74  CZ       107.6140   36.0410    1.0350 C.ar  272  PHE272     -0.0000
     75  N        104.5340   35.3440    7.0640 N.3   286  GLY286     -0.1209
     76  CA       105.4750   36.1570    7.8180 C.3   286  GLY286      0.1959
     77  C        104.9510   37.5480    8.0960 C.2   286  GLY286      0.2652
     78  O        103.9860   37.9770    7.4940 O.2   286  GLY286     -0.2714
     79  N        105.6030   38.2200    9.0220 N.am  287  GLY287     -0.1718
     80  CA       105.2240   39.5710    9.3690 C.2   287  GLY287      0.1480
     81  C        105.9110   40.1390   10.5760 C.2   287  GLY287      0.2820
     82  O        106.4310   39.4220   11.3680 O.2   287  GLY287     -0.2669
     83  N        105.7960   41.4470   10.7400 N.am  288  ARG288     -0.1943
     84  CA       106.1450   42.1300   11.9780 C.3   288  ARG288      0.1600
     85  C        105.2150   41.7560   13.0990 C.2   288  ARG288      0.2287
     86  O        104.0400   41.5890   12.8820 O.2   288  ARG288     -0.2864
     87  CB       106.0590   43.6450   11.8020 C.3   288  ARG288      0.0334
     88  CG       107.2510   44.2430   11.1050 C.3   288  ARG288      0.0492
     89  CD       108.3590   44.4990   12.0960 C.3   288  ARG288      0.2205
     90  NE       109.6100   44.7690   11.4030 N.pl3 288  ARG288     -0.0865
     91  CZ       110.7540   45.0430   12.0180 C.cat 288  ARG288      0.5346
     92  NH1      111.8410   45.2710   11.3010 N.pl3 288  ARG288      0.1354
     93  NH2      110.8030   45.0450   13.3650 N.pl3 288  ARG288      0.1354
     94  N        110.3140   40.4710   13.9370 N.3   295  THR295     -0.1203
     95  CA       109.7570   40.0760   12.6480 C.3   295  THR295      0.1997
     96  C        110.2350   38.6550   12.2970 C.2   295  THR295      0.2657
     97  O        111.2850   38.2110   12.7800 O.2   295  THR295     -0.2713
     98  CB       110.1080   41.1160   11.5780 C.3   295  THR295      0.1784
     99  OG1      109.5410   40.7370   10.3330 O.3   295  THR295     -0.2211
    100  CG2      111.6010   41.3110   11.4180 C.3   295  THR295      0.0376
    101  N        109.4620   37.9410   11.5010 N.am  296  GLY296     -0.1718
    102  CA       109.8030   36.5730   11.1610 C.2   296  GLY296      0.1480
    103  C        108.8890   35.9100   10.1540 C.2   296  GLY296      0.2820
    104  O        107.9090   36.5190    9.7220 O.2   296  GLY296     -0.2669
    105  N        109.2210   34.6640    9.7830 N.am  297  PHE297     -0.1939
    106  CA       108.3640   33.8410    8.9280 C.3   297  PHE297      0.1642
    107  C        108.3530   32.3940    9.3710 C.2   297  PHE297      0.2290
    108  O        109.2080   31.9740   10.1240 O.2   297  PHE297     -0.2864
    109  CB       108.7930   33.9190    7.4600 C.3   297  PHE297      0.0560
    110  CG       110.1540   33.3330    7.1840 C.ar  297  PHE297     -0.0200
    111  CD1      110.3180   31.9670    6.9200 C.ar  297  PHE297     -0.0042
    112  CD2      111.2800   34.1390    7.1700 C.ar  297  PHE297     -0.0042
    113  CE1      111.5700   31.4400    6.6760 C.ar  297  PHE297     -0.0003
    114  CE2      112.5410   33.6310    6.9050 C.ar  297  PHE297     -0.0003
    115  CZ       112.6890   32.2690    6.6740 C.ar  297  PHE297     -0.0000
@<TRIPOS>BOND
     1    44    43    2
     2    43    42    1
     3    39    38    1
     4    33    34    1
     5    38    37    1
     6    38    40    1
     7    42    41    1
     8    42    45    1
     9    23    21    1
    10    37    34    1
    11    36    35    2
    12    28    27    2
    13    34    35    1
    14    73    74   ar
    15    73    71   ar
    16    45    46    1
    17    74    72   ar
    18    20    19    2
    19    27    26    1
    20    19    18    1
    21    21    22    1
    22    21    18    1
    23    71    69   ar
    24    72    70   ar
    25    30    32    1
    26    30    31    1
    27    30    29    1
    28    24    22    1
    29    46    48    1
    30    46    47    1
    31    18    17    1
    32    26    29    1
    33    26    25    1
    34    69    70   ar
    35    69    68    1
    36    66    65    1
    37    66    67    2
    38    65    68    1
    39    65    64    1
    40    17    11   am
    41    60    59    2
    42    56    54    1
    43    12    11    2
    44    11    10    1
    45    64    59   am
    46    59    58    1
    47     4     3    2
    48    54    53    1
    49     3     2    1
    50    63    61    1
    51     9    10    1
    52    10    13    1
    53    58    57    1
    54    58    61    1
    55    57    51   am
    56   115   113   ar
    57   115   114   ar
    58   113   111   ar
    59    53    55    1
    60    53    50    1
    61     5     2    1
    62     5     6    1
    63   114   112   ar
    64   111   110   ar
    65    61    62    1
    66    75    76    1
    67    13    14    1
    68     2     1    1
    69   112   110   ar
    70   110   109    1
    71    50    51    1
    72    50    49    1
    73   109   106    1
    74    78    77    2
    75    51    52    2
    76    76    77    1
    77    77    79    1
    78     6     7   ar
    79     6     8   ar
    80    14    16    1
    81    14    15    1
    82   106   107    1
    83   106   105    1
    84    79    80    2
    85    80    81    1
    86   107   108    2
    87   104   103    2
    88   105   103   am
    89   103   102    1
    90    99    98    1
    91    81    83   am
    92    81    82    2
    93    83    84    1
    94    88    87    1
    95    88    89    1
    96   102   101    2
    97    92    91    1
    98    90    91    2
    99    90    89    1
   100   100    98    1
   101   101    96    1
   102    98    95    1
   103    87    84    1
   104    84    85    1
   105    91    93    1
   106    96    95    1
   107    96    97    2
   108    95    94    1
   109    86    85    2
