@<TRIPOS>MOLECULE
tmp/5m8hB02.pdb
 87 82 0 0 0
SMALL
GASTEIGER

@<TRIPOS>ATOM
      1  N         53.3690   20.5220   32.5370 N.3    17  LYS17      -0.1245
      2  CA        52.8640   19.2020   32.2600 C.3    17  LYS17       0.1561
      3  C         53.9470   18.1290   32.3290 C.2    17  LYS17       0.2260
      4  O         53.7310   17.0690   32.9070 O.2    17  LYS17      -0.2867
      5  CB        52.1640   19.1620   30.8990 C.3    17  LYS17       0.0271
      6  CG        51.4160   17.8620   30.6530 C.3    17  LYS17       0.0035
      7  CD        50.4470   18.0150   29.5170 C.3    17  LYS17       0.0206
      8  CE        51.0820   18.4970   28.2480 C.3    17  LYS17       0.1093
      9  NZ        49.9620   18.6440   27.2620 N.3    17  LYS17      -0.1314
     10  N         54.6060   17.4220   36.0060 N.3    20  VAL20      -0.1231
     11  CA        53.5480   16.5610   36.5390 C.3    20  VAL20       0.1692
     12  C         53.7260   15.1070   36.0790 C.2    20  VAL20       0.2591
     13  O         53.6450   14.1990   36.8850 O.2    20  VAL20      -0.2718
     14  CB        52.1460   17.0870   36.1470 C.3    20  VAL20       0.0266
     15  CG1       51.0740   16.0730   36.4600 C.3    20  VAL20       0.0020
     16  CG2       51.8520   18.3820   36.8930 C.3    20  VAL20       0.0020
     17  N         53.9710   14.8870   34.7940 N.am   21  LEU21      -0.1980
     18  CA        54.1430   13.5350   34.2750 C.3    21  LEU21       0.1596
     19  C         55.3300   12.8590   34.9190 C.2    21  LEU21       0.2287
     20  O         55.2100   11.7430   35.4090 O.2    21  LEU21      -0.2864
     21  CB        54.3140   13.5440   32.7660 C.3    21  LEU21       0.0297
     22  CG        53.0880   13.9280   31.9360 C.3    21  LEU21       0.0022
     23  CD1       53.4970   14.1990   30.5030 C.3    21  LEU21       0.0001
     24  CD2       52.0720   12.8130   31.9580 C.3    21  LEU21       0.0001
     25  N         54.4010   12.1140   38.6780 N.3    24  GLN24      -0.1245
     26  CA        53.3680   11.0980   38.8620 C.3    24  GLN24       0.1566
     27  C         53.8510    9.7270   38.4680 C.2    24  GLN24       0.2260
     28  O         53.6520    8.7740   39.2030 O.2    24  GLN24      -0.2867
     29  CB        52.1190   11.3910   38.0400 C.3    24  GLN24       0.0367
     30  CG        51.4430   12.7130   38.3480 C.3    24  GLN24       0.0905
     31  CD        50.5770   12.7240   39.5610 C.2    24  GLN24       0.2608
     32  OE1       51.0590   12.4540   40.6570 O.2    24  GLN24      -0.2717
     33  NE2       49.2800   13.0780   39.3840 N.am   24  GLN24      -0.0878
     34  N         46.8030    5.5040   33.6560 N.3   146  SER146     -0.1202
     35  CA        46.6990    6.6780   34.5120 C.3   146  SER146      0.2020
     36  C         46.7640    8.0020   33.7580 C.2   146  SER146      0.2619
     37  O         46.3360    9.0250   34.2860 O.2   146  SER146     -0.2717
     38  CB        47.8040    6.6860   35.5600 C.3   146  SER146      0.2103
     39  OG        49.0130    7.2350   35.0370 O.3   146  SER146     -0.2182
     40  N         47.3340    7.9970   32.5540 N.am  147  LEU147     -0.1965
     41  CA        47.4610    9.2060   31.7500 C.3   147  LEU147      0.1728
     42  C         46.1990    9.6740   31.0390 C.2   147  LEU147      0.2616
     43  O         46.1880   10.8090   30.5450 O.2   147  LEU147     -0.2715
     44  CB        48.5840    9.0400   30.7220 C.3   147  LEU147      0.0311
     45  CG        49.9730    8.7420   31.2900 C.3   147  LEU147      0.0022
     46  CD1       50.9470    8.5250   30.1540 C.3   147  LEU147      0.0001
     47  CD2       50.4370    9.8720   32.1980 C.3   147  LEU147      0.0001
     48  N         45.1500    8.8400   30.9620 N.am  148  ASP148     -0.1971
     49  CA        43.8820    9.2620   30.3420 C.3   148  ASP148      0.1709
     50  C         44.1120    9.9130   28.9640 C.2   148  ASP148      0.2293
     51  O         43.6730   11.0230   28.6740 O.2   148  ASP148     -0.2864
     52  CB        43.0770   10.2060   31.2700 C.3   148  ASP148      0.1436
     53  CG        42.7790    9.5950   32.6390 C.2   148  ASP148      0.3671
     54  OD1       42.6900    8.3570   32.7790 O.co2 148  ASP148     -0.2456
     55  OD2       42.6040   10.3350   33.6200 O.co2 148  ASP148     -0.2456
     56  N         48.7570   14.1130   26.2180 N.3   309  THR309     -0.1203
     57  CA        48.2760   14.2150   27.5900 C.3   309  THR309      0.1994
     58  C         47.7500   15.6100   27.8200 C.2   309  THR309      0.2618
     59  O         48.1830   16.5480   27.1460 O.2   309  THR309     -0.2717
     60  CB        49.4020   13.9430   28.5830 C.3   309  THR309      0.1784
     61  OG1       50.5600   14.7130   28.2180 O.3   309  THR309     -0.2211
     62  CG2       49.7440   12.4510   28.5920 C.3   309  THR309      0.0376
     63  N         46.8500   15.7630   28.7830 N.am  310  GLN310     -0.1965
     64  CA        46.1570   17.0340   29.0190 C.3   310  GLN310      0.1733
     65  C         46.0760   17.2940   30.4980 C.2   310  GLN310      0.2616
     66  O         45.7830   16.3840   31.2450 O.2   310  GLN310     -0.2715
     67  CB        44.7340   16.9680   28.4650 C.3   310  GLN310      0.0408
     68  CG        44.6240   17.2600   26.9800 C.3   310  GLN310      0.0908
     69  CD        43.2330   17.7170   26.5960 C.2   310  GLN310      0.2608
     70  OE1       42.2480   16.9920   26.8190 O.2   310  GLN310     -0.2717
     71  NE2       43.1330   18.9250   26.0170 N.am  310  GLN310     -0.0878
     72  N         46.3460   18.5220   30.9320 N.am  311  LEU311     -0.1963
     73  CA        45.9790   18.9100   32.2910 C.3   311  LEU311      0.1728
     74  C         44.8240   19.8630   32.2720 C.2   311  LEU311      0.2616
     75  O         44.5880   20.5260   31.2590 O.2   311  LEU311     -0.2715
     76  CB        47.1330   19.5640   33.0200 C.3   311  LEU311      0.0311
     77  CG        48.4000   18.7590   33.1450 C.3   311  LEU311      0.0022
     78  CD1       49.3920   19.6430   33.8750 C.3   311  LEU311      0.0001
     79  CD2       48.1330   17.4600   33.8920 C.3   311  LEU311      0.0001
     80  N         44.1240   19.9540   33.4070 N.am  312  ASP312     -0.1971
     81  CA        43.0610   20.9440   33.5520 C.3   312  ASP312      0.1709
     82  C         43.6650   22.3280   33.3620 C.2   312  ASP312      0.2293
     83  O         44.8540   22.5330   33.6350 O.2   312  ASP312     -0.2864
     84  CB        42.4100   20.8800   34.9310 C.3   312  ASP312      0.1436
     85  CG        41.7110   19.5680   35.2070 C.2   312  ASP312      0.3671
     86  OD1       41.0170   19.0460   34.3140 O.co2 312  ASP312     -0.2456
     87  OD2       41.8410   19.0810   36.3560 O.co2 312  ASP312     -0.2456
@<TRIPOS>BOND
     1    71    69   am
     2    56    57    1
     3    69    70    2
     4    69    68    1
     5    68    67    1
     6    59    58    2
     7     9     8    1
     8    57    58    1
     9    57    60    1
    10    58    63   am
    11    61    60    1
    12     8     7    1
    13    67    64    1
    14    60    62    1
    15    51    50    2
    16    63    64    1
    17    50    49    1
    18    64    65    1
    19     7     6    1
    20    46    45    1
    21    49    48    1
    22    49    52    1
    23    65    72   am
    24    65    66    2
    25    23    22    1
    26    43    42    2
    27     6     5    1
    28    44    45    1
    29    44    41    1
    30     5     2    1
    31    72    73    1
    32    48    42   am
    33    42    41    1
    34    75    74    2
    35    52    53    1
    36    45    47    1
    37    41    40    1
    38    22    24    1
    39    22    21    1
    40     2     3    1
    41     2     1    1
    42    74    73    1
    43    74    80   am
    44    73    76    1
    45     3     4    2
    46    40    36   am
    47    53    54   ar
    48    53    55   ar
    49    21    18    1
    50    76    77    1
    51    77    78    1
    52    77    79    1
    53    82    81    1
    54    82    83    2
    55    80    81    1
    56    81    84    1
    57    34    35    1
    58    36    37    2
    59    36    35    1
    60    18    17    1
    61    18    19    1
    62    86    85   ar
    63    35    38    1
    64    17    12   am
    65    19    20    2
    66    84    85    1
    67    39    38    1
    68    85    87   ar
    69    10    11    1
    70    12    11    1
    71    12    13    2
    72    14    15    1
    73    14    11    1
    74    14    16    1
    75    29    30    1
    76    29    26    1
    77    30    31    1
    78    27    26    1
    79    27    28    2
    80    25    26    1
    81    33    31   am
    82    31    32    2
