@<TRIPOS>MOLECULE
tmp/5m8oB08.pdb
 115 113 0 0 0
SMALL
GASTEIGER

@<TRIPOS>ATOM
      1  N        -14.9900  -29.6990   25.4380 N.3   168  HIS168     -0.1241
      2  CA       -15.7700  -30.9180   25.6090 C.3   168  HIS168      0.1621
      3  C        -17.1770  -30.5990   26.0860 C.2   168  HIS168      0.2264
      4  O        -18.1530  -31.1270   25.5500 O.2   168  HIS168     -0.2867
      5  CB       -15.0750  -31.8460   26.5980 C.3   168  HIS168      0.0745
      6  CG       -15.6780  -33.2140   26.6850 C.ar  168  HIS168      0.0817
      7  ND1      -16.6360  -33.5470   27.6100 N.ar  168  HIS168     -0.2268
      8  CD2      -15.4130  -34.3480   25.9990 C.ar  168  HIS168      0.1154
      9  CE1      -16.9640  -34.8160   27.4690 C.ar  168  HIS168      0.1986
     10  NE2      -16.2300  -35.3290   26.5020 N.ar  168  HIS168     -0.2212
     11  N        -19.9570  -37.1890   20.6640 N.3   191  HIS191     -0.1241
     12  CA       -20.2110  -38.5530   21.1010 C.3   191  HIS191      0.1621
     13  C        -21.3580  -39.1380   20.2860 C.2   191  HIS191      0.2264
     14  O        -22.0820  -38.4330   19.5830 O.2   191  HIS191     -0.2867
     15  CB       -20.5570  -38.6260   22.5940 C.3   191  HIS191      0.0745
     16  CG       -19.5410  -37.9960   23.4940 C.ar  191  HIS191      0.0817
     17  ND1      -19.2470  -36.6550   23.4670 N.ar  191  HIS191     -0.2268
     18  CD2      -18.7830  -38.5220   24.4790 C.ar  191  HIS191      0.1154
     19  CE1      -18.3210  -36.3870   24.3630 C.ar  191  HIS191      0.1986
     20  NE2      -18.0270  -37.5020   25.0010 N.ar  191  HIS191     -0.2212
     21  N        -20.5940  -48.6250   23.1580 N.3   338  TYR338     -0.1241
     22  CA       -22.0200  -48.8840   23.1970 C.3   338  TYR338      0.1605
     23  C        -22.3880  -50.2360   22.6170 C.2   338  TYR338      0.2264
     24  O        -23.5450  -50.6310   22.7160 O.2   338  TYR338     -0.2867
     25  CB       -22.7820  -47.7810   22.4570 C.3   338  TYR338      0.0534
     26  CG       -22.8890  -46.4580   23.1970 C.ar  338  TYR338     -0.0201
     27  CD1      -23.7440  -46.3060   24.2730 C.ar  338  TYR338     -0.0009
     28  CD2      -22.1390  -45.3590   22.8050 C.ar  338  TYR338     -0.0009
     29  CE1      -23.8470  -45.1150   24.9260 C.ar  338  TYR338      0.0417
     30  CE2      -22.2330  -44.1650   23.4590 C.ar  338  TYR338      0.0417
     31  CZ       -23.0850  -44.0450   24.5160 C.ar  338  TYR338      0.1957
     32  OH       -23.1720  -42.8400   25.1630 O.3   338  TYR338     -0.2866
     33  N        -14.2140  -47.6410   26.0180 N.3   353  HIS353     -0.1226
     34  CA       -14.0990  -46.2300   26.3880 C.3   353  HIS353      0.1752
     35  C        -15.1670  -45.8250   27.4020 C.2   353  HIS353      0.2596
     36  O        -14.8560  -45.2360   28.4400 O.2   353  HIS353     -0.2718
     37  CB       -14.1340  -45.3420   25.1360 C.3   353  HIS353      0.0759
     38  CG       -14.5380  -43.9200   25.3960 C.ar  353  HIS353      0.0818
     39  ND1      -15.8290  -43.4750   25.2530 N.ar  353  HIS353     -0.2268
     40  CD2      -13.8200  -42.8500   25.8100 C.ar  353  HIS353      0.1154
     41  CE1      -15.8920  -42.1980   25.5760 C.ar  353  HIS353      0.1986
     42  NE2      -14.6870  -41.7940   25.9220 N.ar  353  HIS353     -0.2212
     43  N        -16.4320  -46.1310   27.1230 N.am  354  ASN354     -0.1974
     44  CA       -17.5000  -45.8120   28.0680 C.3   354  ASN354      0.1688
     45  C        -17.2830  -46.4860   29.4140 C.2   354  ASN354      0.2292
     46  O        -17.5090  -45.8760   30.4620 O.2   354  ASN354     -0.2864
     47  CB       -18.8570  -46.2150   27.4920 C.3   354  ASN354      0.1181
     48  CG       -19.3460  -45.2550   26.4260 C.2   354  ASN354      0.2629
     49  OD1      -18.8830  -44.1220   26.3420 O.2   354  ASN354     -0.2716
     50  ND2      -20.2780  -45.7070   25.6070 N.am  354  ASN354     -0.0877
     51  N        -14.7190  -44.7870   31.5150 N.3   357  HIS357     -0.1226
     52  CA       -15.2900  -43.5780   32.1060 C.3   357  HIS357      0.1752
     53  C        -16.1270  -43.9160   33.3340 C.2   357  HIS357      0.2595
     54  O        -15.9140  -43.3690   34.4170 O.2   357  HIS357     -0.2718
     55  CB       -16.1510  -42.8170   31.0930 C.3   357  HIS357      0.0759
     56  CG       -15.4070  -41.8210   30.2510 C.ar  357  HIS357      0.0818
     57  ND1      -15.0620  -40.5680   30.7040 N.ar  357  HIS357     -0.2268
     58  CD2      -15.0430  -41.8580   28.9510 C.ar  357  HIS357      0.1154
     59  CE1      -14.4590  -39.9020   29.7410 C.ar  357  HIS357      0.1986
     60  NE2      -14.4500  -40.6560   28.6600 N.ar  357  HIS357     -0.2212
     61  N        -17.0970  -44.8090   33.1730 N.am  358  LEU358     -0.1980
     62  CA       -18.0530  -45.1010   34.2300 C.3   358  LEU358      0.1596
     63  C        -17.3990  -45.7760   35.4210 C.2   358  LEU358      0.2287
     64  O        -17.8890  -45.6570   36.5490 O.2   358  LEU358     -0.2864
     65  CB       -19.1540  -45.9870   33.6700 C.3   358  LEU358      0.0297
     66  CG       -19.9200  -45.2870   32.5710 C.3   358  LEU358      0.0022
     67  CD1      -20.7560  -46.2830   31.8160 C.3   358  LEU358      0.0001
     68  CD2      -20.7790  -44.2490   33.2370 C.3   358  LEU358      0.0001
     69  N        -16.8640  -39.6350   35.0940 N.3   365  GLY365     -0.1210
     70  CA       -17.8790  -40.4710   34.5030 C.3   365  GLY365      0.1956
     71  C        -19.1810  -39.7520   34.2650 C.2   365  GLY365      0.2612
     72  O        -20.2190  -40.3950   34.1590 O.2   365  GLY365     -0.2717
     73  N        -19.1340  -38.4250   34.1790 N.am  366  GLN366     -0.1965
     74  CA       -20.2680  -37.5770   33.8250 C.3   366  GLN366      0.1733
     75  C        -19.9560  -36.8050   32.5520 C.2   366  GLN366      0.2617
     76  O        -18.9180  -36.1440   32.4670 O.2   366  GLN366     -0.2715
     77  CB       -20.5850  -36.5900   34.9360 C.3   366  GLN366      0.0408
     78  CG       -20.9700  -37.1820   36.2340 C.3   366  GLN366      0.0908
     79  CD       -21.0070  -36.1360   37.3290 C.2   366  GLN366      0.2608
     80  OE1      -20.0140  -35.9050   37.9910 O.2   366  GLN366     -0.2717
     81  NE2      -22.1320  -35.4710   37.4880 N.am  366  GLN366     -0.0878
     82  N        -20.8900  -36.8160   31.5990 N.am  367  THR367     -0.1951
     83  CA       -20.5720  -36.3280   30.2610 C.3   367  THR367      0.1897
     84  C        -20.2200  -34.8420   30.2560 C.2   367  THR367      0.2313
     85  O        -19.2640  -34.4280   29.5920 O.2   367  THR367     -0.2863
     86  CB       -21.7300  -36.5930   29.2990 C.3   367  THR367      0.1794
     87  OG1      -22.1830  -37.9480   29.4260 O.3   367  THR367     -0.2208
     88  CG2      -21.2560  -36.3670   27.8820 C.3   367  THR367      0.0378
     89  N        -16.4570  -34.6460   32.3750 N.3   370  SER370     -0.1217
     90  CA       -15.4420  -35.6840   32.5100 C.3   370  SER370      0.1889
     91  C        -13.9960  -35.2550   32.2700 C.2   370  SER370      0.2288
     92  O        -13.1120  -35.8880   32.8620 O.2   370  SER370     -0.2866
     93  CB       -15.8120  -36.8650   31.6040 C.3   370  SER370      0.2089
     94  OG       -15.9020  -36.4990   30.2570 O.3   370  SER370     -0.2183
     95  N         -8.9660  -38.3800   32.2020 N.3   376  PHE376     -0.1241
     96  CA        -9.5560  -38.2220   30.8720 C.3   376  PHE376      0.1605
     97  C         -8.4870  -38.1550   29.7910 C.2   376  PHE376      0.2264
     98  O         -8.6240  -38.7740   28.7340 O.2   376  PHE376     -0.2867
     99  CB       -10.4220  -36.9610   30.8620 C.3   376  PHE376      0.0534
    100  CG       -11.1100  -36.6870   29.5610 C.ar  376  PHE376     -0.0203
    101  CD1      -10.4280  -36.1150   28.5040 C.ar  376  PHE376     -0.0042
    102  CD2      -12.4390  -36.9620   29.4110 C.ar  376  PHE376     -0.0042
    103  CE1      -11.0450  -35.8700   27.3270 C.ar  376  PHE376     -0.0003
    104  CE2      -13.0630  -36.7150   28.2290 C.ar  376  PHE376     -0.0003
    105  CZ       -12.3590  -36.1620   27.1840 C.ar  376  PHE376     -0.0000
    106  N         -8.0790  -41.0480   26.9370 N.3   380  HIS380     -0.1241
    107  CA        -8.3310  -40.7770   25.5340 C.3   380  HIS380      0.1621
    108  C         -7.0920  -40.9080   24.6560 C.2   380  HIS380      0.2264
    109  O         -7.2400  -41.2070   23.4710 O.2   380  HIS380     -0.2867
    110  CB        -8.9890  -39.4080   25.3500 C.3   380  HIS380      0.0745
    111  CG       -10.4810  -39.4850   25.3540 C.ar  380  HIS380      0.0817
    112  ND1      -11.1990  -39.9120   24.2630 N.ar  380  HIS380     -0.2268
    113  CD2      -11.3880  -39.2280   26.3250 C.ar  380  HIS380      0.1154
    114  CE1      -12.4840  -39.9310   24.5630 C.ar  380  HIS380      0.1986
    115  NE2      -12.6280  -39.5170   25.8090 N.ar  380  HIS380     -0.2212
@<TRIPOS>BOND
     1    14    13    2
     2    13    12    1
     3    11    12    1
     4    12    15    1
     5    25    26    1
     6    25    22    1
     7    15    16    1
     8    23    24    2
     9    23    22    1
    10    28    26   ar
    11    28    30   ar
    12    21    22    1
    13    26    27   ar
    14    30    31   ar
    15    17    16   ar
    16    17    19   ar
    17   109   108    2
    18    16    18   ar
    19   112   114   ar
    20   112   111   ar
    21    27    29   ar
    22    19    20   ar
    23    18    20   ar
    24    31    29   ar
    25    31    32    1
    26   114   115   ar
    27   108   107    1
    28    37    38    1
    29    37    34    1
    30    39    38   ar
    31    39    41   ar
    32   110   111    1
    33   110   107    1
    34   111   113   ar
    35    38    40   ar
    36     1     2    1
    37   107   106    1
    38     4     3    2
    39    41    42   ar
    40    50    48   am
    41     2     3    1
    42     2     5    1
    43   115   113   ar
    44    40    42   ar
    45     8    10   ar
    46     8     6   ar
    47    33    34    1
    48    49    48    2
    49    34    35    1
    50    48    47    1
    51    10     9   ar
    52     5     6    1
    53     6     7   ar
    54    43    35   am
    55    43    44    1
    56   105   103   ar
    57   105   104   ar
    58   103   101   ar
    59    35    36    2
    60     9     7   ar
    61    47    44    1
    62    88    86    1
    63    44    45    1
    64   104   102   ar
    65   101   100   ar
    66    60    58   ar
    67    60    59   ar
    68    98    97    2
    69    58    56   ar
    70    86    87    1
    71    86    83    1
    72   102   100   ar
    73    45    46    2
    74   100    99    1
    75    85    84    2
    76    59    57   ar
    77    97    96    1
    78    56    57   ar
    79    56    55    1
    80    84    83    1
    81    94    93    1
    82    83    82    1
    83    99    96    1
    84    96    95    1
    85    55    52    1
    86    51    52    1
    87    82    75   am
    88    93    90    1
    89    67    66    1
    90    52    53    1
    91    91    90    1
    92    91    92    2
    93    89    90    1
    94    76    75    2
    95    75    74    1
    96    66    68    1
    97    66    65    1
    98    61    53   am
    99    61    62    1
   100    53    54    2
   101    65    62    1
   102    74    73    1
   103    74    77    1
   104    72    71    2
   105    73    71   am
   106    62    63    1
   107    71    70    1
   108    70    69    1
   109    77    78    1
   110    63    64    2
   111    78    79    1
   112    79    81   am
   113    79    80    2
