@<TRIPOS>MOLECULE
tmp/5m8pB08.pdb
 120 116 0 0 0
SMALL
GASTEIGER

@<TRIPOS>ATOM
      1  N         29.8890  169.3580  166.1160 N.3   168  HIS168     -0.1241
      2  CA        29.1260  170.5960  165.9840 C.3   168  HIS168      0.1621
      3  C         27.7050  170.2960  165.5620 C.2   168  HIS168      0.2264
      4  O         26.7470  170.7730  166.1710 O.2   168  HIS168     -0.2867
      5  CB        29.7910  171.5230  164.9740 C.3   168  HIS168      0.0745
      6  CG        29.4470  172.9730  165.1400 C.ar  168  HIS168      0.0817
      7  ND1       28.5640  173.6270  164.3140 N.ar  168  HIS168     -0.2268
      8  CD2       29.9010  173.9070  166.0110 C.ar  168  HIS168      0.1154
      9  CE1       28.4620  174.8900  164.6910 C.ar  168  HIS168      0.1986
     10  NE2       29.2670  175.0890  165.7150 N.ar  168  HIS168     -0.2212
     11  N         25.1080  177.0150  171.0930 N.3   191  HIS191     -0.1241
     12  CA        24.9310  178.3620  170.5880 C.3   191  HIS191      0.1621
     13  C         23.7490  178.9770  171.3050 C.2   191  HIS191      0.2264
     14  O         22.9700  178.2920  171.9560 O.2   191  HIS191     -0.2867
     15  CB        24.7040  178.3930  169.0680 C.3   191  HIS191      0.0745
     16  CG        25.7950  177.7590  168.2690 C.ar  191  HIS191      0.0817
     17  ND1       25.8400  176.4130  168.0190 N.ar  191  HIS191     -0.2268
     18  CD2       26.8730  178.2890  167.6550 C.ar  191  HIS191      0.1154
     19  CE1       26.9050  176.1360  167.2930 C.ar  191  HIS191      0.1986
     20  NE2       27.5520  177.2580  167.0580 N.ar  191  HIS191     -0.2212
     21  N         20.7850  190.8210  151.8210 N.3   297  ARG297     -0.1245
     22  CA        20.9890  191.3540  153.1630 C.3   297  ARG297      0.1563
     23  C         22.2900  192.1370  153.1590 C.2   297  ARG297      0.2260
     24  O         23.3530  191.6090  153.5040 O.2   297  ARG297     -0.2867
     25  CB        21.0020  190.2500  154.2160 C.3   297  ARG297      0.0307
     26  CG        21.0350  190.8170  155.6240 C.3   297  ARG297      0.0489
     27  CD        20.1540  190.0610  156.5880 C.3   297  ARG297      0.2205
     28  NE        20.7340  188.7730  156.9270 N.pl3 297  ARG297     -0.0865
     29  CZ        20.5860  188.1980  158.1060 C.cat 297  ARG297      0.5346
     30  NH1       19.8870  188.8090  159.0500 N.pl3 297  ARG297      0.1354
     31  NH2       21.1430  187.0270  158.3400 N.pl3 297  ARG297      0.1354
     32  N         24.6620  188.4520  168.6020 N.3   338  TYR338     -0.1241
     33  CA        23.2330  188.7000  168.6080 C.3   338  TYR338      0.1605
     34  C         22.8600  190.0340  169.2440 C.2   338  TYR338      0.2264
     35  O         21.6830  190.4000  169.2270 O.2   338  TYR338     -0.2867
     36  CB        22.4950  187.5520  169.3110 C.3   338  TYR338      0.0534
     37  CG        22.4520  186.2330  168.5460 C.ar  338  TYR338     -0.0201
     38  CD1       21.6910  186.0920  167.3950 C.ar  338  TYR338     -0.0009
     39  CD2       23.1430  185.1260  168.9950 C.ar  338  TYR338     -0.0009
     40  CE1       21.6370  184.9070  166.7210 C.ar  338  TYR338      0.0417
     41  CE2       23.0960  183.9340  168.3200 C.ar  338  TYR338      0.0417
     42  CZ        22.3420  183.8230  167.1810 C.ar  338  TYR338      0.1957
     43  OH        22.2940  182.6210  166.4890 O.3   338  TYR338     -0.2866
     44  N         23.3150  191.6040  163.5590 N.3   350  ARG350     -0.1241
     45  CA        24.2110  190.5030  163.6060 C.3   350  ARG350      0.1606
     46  C         25.5940  191.0650  163.5850 C.2   350  ARG350      0.2264
     47  O         25.9080  191.8630  162.7640 O.2   350  ARG350     -0.2867
     48  CB        23.8960  189.5120  162.4990 C.3   350  ARG350      0.0562
     49  CG        22.6820  188.6090  162.7720 C.2   350  ARG350      0.0159
     50  CD        21.9220  188.8890  164.0770 C.2   350  ARG350      0.1886
     51  NE        20.5690  188.3770  164.1260 N.pl3 350  ARG350     -0.0578
     52  CZ        20.2370  187.1800  163.7160 C.cat 350  ARG350      0.5393
     53  NH1       21.1570  186.3950  163.2330 N.pl3 350  ARG350      0.1358
     54  NH2       19.0010  186.7760  163.7880 N.pl3 350  ARG350      0.1358
     55  N         30.8490  187.4730  165.7530 N.3   353  HIS353     -0.1226
     56  CA        30.9980  186.0750  165.3530 C.3   353  HIS353      0.1752
     57  C         29.9820  185.6970  164.2950 C.2   353  HIS353      0.2596
     58  O         30.3290  185.0810  163.2900 O.2   353  HIS353     -0.2718
     59  CB        30.8800  185.1520  166.5680 C.3   353  HIS353      0.0759
     60  CG        30.4330  183.7620  166.2420 C.ar  353  HIS353      0.0818
     61  ND1       29.1130  183.3860  166.2580 N.ar  353  HIS353     -0.2268
     62  CD2       31.1320  182.6580  165.8980 C.ar  353  HIS353      0.1154
     63  CE1       29.0180  182.1140  165.9230 C.ar  353  HIS353      0.1986
     64  NE2       30.2290  181.6490  165.6930 N.ar  353  HIS353     -0.2212
     65  N         28.7210  186.0470  164.5050 N.am  354  ASN354     -0.1974
     66  CA        27.6830  185.6360  163.5690 C.3   354  ASN354      0.1688
     67  C         27.8560  186.3120  162.2310 C.2   354  ASN354      0.2292
     68  O         27.6990  185.6840  161.1840 O.2   354  ASN354     -0.2864
     69  CB        26.3130  185.9770  164.1270 C.3   354  ASN354      0.1181
     70  CG        25.8890  185.0620  165.2300 C.2   354  ASN354      0.2629
     71  OD1       26.2750  183.9000  165.2750 O.2   354  ASN354     -0.2716
     72  ND2       25.0680  185.5730  166.1130 N.am  354  ASN354     -0.0877
     73  N         30.2550  184.6240  160.2050 N.3   357  HIS357     -0.1226
     74  CA        29.6440  183.3820  159.7590 C.3   357  HIS357      0.1752
     75  C         28.6910  183.7320  158.5490 C.2   357  HIS357      0.2595
     76  O         28.7450  183.0600  157.5730 O.2   357  HIS357     -0.2718
     77  CB        28.8830  182.6170  160.9280 C.3   357  HIS357      0.0759
     78  CG        29.6850  181.6890  161.8590 C.ar  357  HIS357      0.0818
     79  ND1       30.3370  180.5520  161.4540 N.ar  357  HIS357     -0.2268
     80  CD2       29.7400  181.6520  163.2220 C.ar  357  HIS357      0.1154
     81  CE1       30.8270  179.9110  162.5080 C.ar  357  HIS357      0.1986
     82  NE2       30.4720  180.5500  163.6030 N.ar  357  HIS357     -0.2212
     83  N         27.8560  184.7870  158.5850 N.am  358  LEU358     -0.1980
     84  CA        26.9020  185.1270  157.5330 C.3   358  LEU358      0.1596
     85  C         27.5940  185.7350  156.3180 C.2   358  LEU358      0.2287
     86  O         27.1980  185.4820  155.1770 O.2   358  LEU358     -0.2864
     87  CB        25.8560  186.0860  158.0810 C.3   358  LEU358      0.0297
     88  CG        24.9820  185.5190  159.1850 C.3   358  LEU358      0.0022
     89  CD1       24.1560  186.5960  159.8450 C.3   358  LEU358      0.0001
     90  CD2       24.1030  184.4360  158.6190 C.3   358  LEU358      0.0001
     91  N         29.5150  178.1710  155.3530 N.3   364  GLY364     -0.1210
     92  CA        29.9160  178.6370  156.6560 C.3   364  GLY364      0.1956
     93  C         28.8570  179.4360  157.3730 C.2   364  GLY364      0.2612
     94  O         29.1010  179.9540  158.4620 O.2   364  GLY364     -0.2717
     95  N         27.6710  179.5490  156.7940 N.am  365  GLY365     -0.1942
     96  CA        26.6200  180.3250  157.4030 C.3   365  GLY365      0.2014
     97  C         25.4570  179.5140  157.9110 C.2   365  GLY365      0.2639
     98  O         24.4480  180.1020  158.3200 O.2   365  GLY365     -0.2714
     99  N         25.5510  178.1950  157.9000 N.am  366  GLN366     -0.1963
    100  CA        24.4550  177.3050  158.2580 C.3   366  GLN366      0.1733
    101  C         24.8820  176.5070  159.4770 C.2   366  GLN366      0.2617
    102  O         25.8110  175.7030  159.3890 O.2   366  GLN366     -0.2715
    103  CB        24.1190  176.3880  157.0920 C.3   366  GLN366      0.0408
    104  CG        23.5670  177.1110  155.9070 C.3   366  GLN366      0.0908
    105  CD        23.4930  176.2380  154.6910 C.2   366  GLN366      0.2608
    106  OE1       23.9730  176.6040  153.6420 O.2   366  GLN366     -0.2717
    107  NE2       22.8840  175.0780  154.8240 N.am  366  GLN366     -0.0878
    108  N         24.1860  176.7040  160.6010 N.am  367  THR367     -0.1951
    109  CA        24.7340  176.2610  161.8790 C.3   367  THR367      0.1897
    110  C         25.0870  174.7880  161.8340 C.2   367  THR367      0.2313
    111  O         26.1340  174.3770  162.3300 O.2   367  THR367     -0.2863
    112  CB        23.7640  176.5350  163.0270 C.3   367  THR367      0.1794
    113  OG1       23.2860  177.8770  162.9700 O.3   367  THR367     -0.2208
    114  CG2       24.4800  176.3940  164.3090 C.3   367  THR367      0.0378
    115  N         28.4600  174.6130  159.3040 N.3   370  SER370     -0.1217
    116  CA        29.5120  175.5970  159.1210 C.3   370  SER370      0.1889
    117  C         30.9350  175.0940  159.2900 C.2   370  SER370      0.2288
    118  O         31.8190  175.6690  158.6400 O.2   370  SER370     -0.2866
    119  CB        29.2770  176.7730  160.0610 C.3   370  SER370      0.2089
    120  OG        29.1030  176.3330  161.3980 O.3   370  SER370     -0.2183
@<TRIPOS>BOND
     1    21    22    1
     2    23    22    1
     3    23    24    2
     4    22    25    1
     5   106   105    2
     6    25    26    1
     7   105   107   am
     8   105   104    1
     9    86    85    2
    10    91    92    1
    11    26    27    1
    12   104   103    1
    13    85    84    1
    14    27    28    1
    15    92    93    1
    16    95    93   am
    17    95    96    1
    18    28    29    2
    19   103   100    1
    20    93    94    2
    21    96    97    1
    22    84    87    1
    23    84    83    1
    24    76    75    2
    25    99    97   am
    26    99   100    1
    27    97    98    2
    28    87    88    1
    29    29    31    1
    30    29    30    1
    31   100   101    1
    32    75    83   am
    33    75    74    1
    34    90    88    1
    35   118   117    2
    36   116   117    1
    37   116   115    1
    38   116   119    1
    39    88    89    1
    40   102   101    2
    41   101   108   am
    42    74    73    1
    43    74    77    1
    44   119   120    1
    45   108   109    1
    46    77    78    1
    47    68    67    2
    48    79    78   ar
    49    79    81   ar
    50   110   109    1
    51   110   111    2
    52    78    80   ar
    53   109   112    1
    54    67    66    1
    55    48    49    1
    56    48    45    1
    57    81    82   ar
    58    47    46    2
    59    49    50    2
    60   113   112    1
    61   112   114    1
    62    80    82   ar
    63    53    52    1
    64    58    57    2
    65    44    45    1
    66    66    69    1
    67    66    65    1
    68    46    45    1
    69    52    54    1
    70    52    51    2
    71    50    51    1
    72    69    70    1
    73    57    65   am
    74    57    56    1
    75     7     9   ar
    76     7     6   ar
    77     9    10   ar
    78     5     6    1
    79     5     2    1
    80     6     8   ar
    81    70    71    2
    82    70    72   am
    83    56    55    1
    84    56    59    1
    85     3     2    1
    86     3     4    2
    87    64    62   ar
    88    64    63   ar
    89    10     8   ar
    90    62    60   ar
    91    63    61   ar
    92     2     1    1
    93    60    61   ar
    94    60    59    1
    95    43    42    1
    96    40    42   ar
    97    40    38   ar
    98    20    19   ar
    99    20    18   ar
   100    42    41   ar
   101    19    17   ar
   102    38    37   ar
   103    18    16   ar
   104    17    16   ar
   105    16    15    1
   106    41    39   ar
   107    37    39   ar
   108    37    36    1
   109    32    33    1
   110    33    34    1
   111    33    36    1
   112    15    12    1
   113    35    34    2
   114    12    11    1
   115    12    13    1
   116    13    14    2
