@<TRIPOS>MOLECULE
tmp/5m8qD06.pdb
 118 116 0 0 0
SMALL
GASTEIGER

@<TRIPOS>ATOM
      1  N         31.2650    8.4640   21.2530 N.3   168  HIS168     -0.1241
      2  CA        31.1210    7.0130   21.1930 C.3   168  HIS168      0.1621
      3  C         29.6790    6.5850   21.4660 C.2   168  HIS168      0.2264
      4  O         29.1840    5.6380   20.8430 O.2   168  HIS168     -0.2867
      5  CB        32.0940    6.3710   22.1740 C.3   168  HIS168      0.0745
      6  CG        32.0810    4.8820   22.1660 C.ar  168  HIS168      0.0817
      7  ND1       31.1920    4.1420   22.9220 N.ar  168  HIS168     -0.2268
      8  CD2       32.8940    3.9850   21.5570 C.ar  168  HIS168      0.1154
      9  CE1       31.4350    2.8520   22.7510 C.ar  168  HIS168      0.1986
     10  NE2       32.4660    2.7300   21.9310 N.ar  168  HIS168     -0.2212
     11  N         30.8610   -0.1190   15.5490 N.3   191  HIS191     -0.1241
     12  CA        31.1210   -1.5050   15.9300 C.3   191  HIS191      0.1621
     13  C         30.4320   -2.4300   14.9510 C.2   191  HIS191      0.2264
     14  O         29.5720   -2.0080   14.1650 O.2   191  HIS191     -0.2867
     15  CB        30.5840   -1.8580   17.3070 C.3   191  HIS191      0.0745
     16  CG        30.9870   -0.8980   18.3600 C.ar  191  HIS191      0.0817
     17  ND1       30.3450    0.3070   18.5510 N.ar  191  HIS191     -0.2268
     18  CD2       31.9830   -0.9520   19.2730 C.ar  191  HIS191      0.1154
     19  CE1       30.9350    0.9550   19.5390 C.ar  191  HIS191      0.1986
     20  NE2       31.9190    0.2050   20.0060 N.ar  191  HIS191     -0.2212
     21  N         34.5390  -10.8440   17.7580 N.3   338  PHE338     -0.1241
     22  CA        33.4020  -11.7500   17.5960 C.3   338  PHE338      0.1605
     23  C         33.8030  -13.1040   17.0220 C.2   338  PHE338      0.2264
     24  O         33.0340  -14.0630   17.1560 O.2   338  PHE338     -0.2867
     25  CB        32.3460  -11.1180   16.6950 C.3   338  PHE338      0.0534
     26  CG        31.8380   -9.8130   17.2030 C.ar  338  PHE338     -0.0203
     27  CD1       30.8560   -9.7770   18.1830 C.ar  338  PHE338     -0.0042
     28  CD2       32.3310   -8.6160   16.7020 C.ar  338  PHE338     -0.0042
     29  CE1       30.3630   -8.5770   18.6690 C.ar  338  PHE338     -0.0003
     30  CE2       31.8460   -7.4080   17.1910 C.ar  338  PHE338     -0.0003
     31  CZ        30.8570   -7.3960   18.1890 C.ar  338  PHE338     -0.0000
     32  N         39.4820   -7.6260   21.6420 N.3   353  HIS353     -0.1226
     33  CA        38.9240   -6.3630   22.1230 C.3   353  HIS353      0.1752
     34  C         37.6220   -6.5710   22.8880 C.2   353  HIS353      0.2596
     35  O         37.4260   -5.9870   23.9600 O.2   353  HIS353     -0.2718
     36  CB        38.7240   -5.4040   20.9570 C.3   353  HIS353      0.0759
     37  CG        37.6080   -4.4170   21.1460 C.ar  353  HIS353      0.0818
     38  ND1       36.3120   -4.6680   20.7370 N.ar  353  HIS353     -0.2268
     39  CD2       37.6020   -3.1580   21.6520 C.ar  353  HIS353      0.1154
     40  CE1       35.5520   -3.6220   21.0080 C.ar  353  HIS353      0.1986
     41  NE2       36.3110   -2.6900   21.5560 N.ar  353  HIS353     -0.2212
     42  N         36.7260   -7.4120   22.3760 N.am  354  ASN354     -0.1974
     43  CA        35.4980   -7.6950   23.1140 C.3   354  ASN354      0.1688
     44  C         35.8040   -8.3510   24.4540 C.2   354  ASN354      0.2292
     45  O         35.2610   -7.9600   25.4900 O.2   354  ASN354     -0.2864
     46  CB        34.5850   -8.5830   22.2750 C.3   354  ASN354      0.1181
     47  CG        33.8900   -7.8210   21.1810 C.2   354  ASN354      0.2629
     48  OD1       34.0580   -6.6000   21.0480 O.2   354  ASN354     -0.2716
     49  ND2       33.0930   -8.5300   20.3890 N.am  354  ASN354     -0.0877
     50  N         36.8050   -5.9280   27.1000 N.3   357  HIS357     -0.1226
     51  CA        35.6920   -5.1050   27.5690 C.3   357  HIS357      0.1752
     52  C         34.8610   -5.8440   28.6110 C.2   357  HIS357      0.2595
     53  O         34.6170   -5.3370   29.7110 O.2   357  HIS357     -0.2718
     54  CB        34.8160   -4.7140   26.3860 C.3   357  HIS357      0.0759
     55  CG        35.1810   -3.4130   25.7510 C.ar  357  HIS357      0.0818
     56  ND1       34.9150   -2.1960   26.3460 N.ar  357  HIS357     -0.2268
     57  CD2       35.7560   -3.1330   24.5550 C.ar  357  HIS357      0.1154
     58  CE1       35.3220   -1.2240   25.5470 C.ar  357  HIS357      0.1986
     59  NE2       35.8410   -1.7660   24.4570 N.ar  357  HIS357     -0.2212
     60  N         34.4050   -7.0490   28.2700 N.am  358  LEU358     -0.1980
     61  CA        33.5590   -7.8180   29.1770 C.3   358  LEU358      0.1596
     62  C         34.2850   -8.1940   30.4640 C.2   358  LEU358      0.2287
     63  O         33.6480   -8.3060   31.5250 O.2   358  LEU358     -0.2864
     64  CB        33.0680   -9.0790   28.4670 C.3   358  LEU358      0.0297
     65  CG        32.1300   -8.7950   27.3080 C.3   358  LEU358      0.0022
     66  CD1       31.6460  -10.0910   26.7550 C.3   358  LEU358      0.0001
     67  CD2       30.9870   -7.9860   27.8270 C.3   358  LEU358      0.0001
     68  N         32.8250   -0.3990   31.8930 N.3   364  GLY364     -0.1210
     69  CA        33.5550   -0.6590   30.6640 C.3   364  GLY364      0.1956
     70  C         33.0220   -1.8110   29.8380 C.2   364  GLY364      0.2612
     71  O         33.4480   -1.9620   28.6890 O.2   364  GLY364     -0.2717
     72  N         32.1230   -2.6300   30.3780 N.am  365  GLY365     -0.1942
     73  CA        31.5410   -3.6650   29.5460 C.3   365  GLY365      0.2014
     74  C         30.3000   -3.2730   28.7610 C.2   365  GLY365      0.2639
     75  O         29.7780   -4.0740   27.9790 O.2   365  GLY365     -0.2714
     76  N         29.8110   -2.0560   28.9370 N.am  366  GLN366     -0.1963
     77  CA        28.5010   -1.6540   28.4490 C.3   366  GLN366      0.1733
     78  C         28.6780   -0.7150   27.2640 C.2   366  GLN366      0.2616
     79  O         29.2460    0.3780   27.4100 O.2   366  GLN366     -0.2715
     80  CB        27.6920   -0.9820   29.5590 C.3   366  GLN366      0.0408
     81  CG        27.3170   -1.9000   30.6910 C.3   366  GLN366      0.0908
     82  CD        26.6220   -1.1560   31.7940 C.2   366  GLN366      0.2608
     83  OE1       27.2780   -0.5570   32.6340 O.2   366  GLN366     -0.2717
     84  NE2       25.2960   -1.1770   31.8010 N.am  366  GLN366     -0.0878
     85  N         28.1570   -1.1370   26.1080 N.am  367  VAL367     -0.1977
     86  CA        28.4300   -0.4710   24.8390 C.3   367  VAL367      0.1596
     87  C         28.1790    1.0350   24.9220 C.2   367  VAL367      0.2287
     88  O         28.9810    1.8380   24.4310 O.2   367  VAL367     -0.2864
     89  CB        27.6010   -1.1470   23.7360 C.3   367  VAL367      0.0276
     90  CG1       27.6960   -2.6490   23.9350 C.3   367  VAL367      0.0022
     91  CG2       26.1400   -0.7500   23.8320 C.3   367  VAL367      0.0022
     92  N         30.9020    2.6460   27.9140 N.3   370  SER370     -0.1217
     93  CA        32.2130    2.1400   28.3130 C.3   370  SER370      0.1889
     94  C         33.3280    3.1860   28.3410 C.2   370  SER370      0.2288
     95  O         34.1650    3.1160   29.2590 O.2   370  SER370     -0.2866
     96  CB        32.6010    0.9420   27.4350 C.3   370  SER370      0.2089
     97  OG        32.7600    1.2840   26.0820 O.3   370  SER370     -0.2183
     98  N         39.3840    2.3560   29.0690 N.3   376  PHE376     -0.1241
     99  CA        39.0040    2.3270   27.6570 C.3   376  PHE376      0.1605
    100  C         40.1160    2.9060   26.7830 C.2   376  PHE376      0.2264
    101  O         40.5480    2.2840   25.8040 O.2   376  PHE376     -0.2867
    102  CB        37.6990    3.0960   27.4640 C.3   376  PHE376      0.0534
    103  CG        37.2180    3.1500   26.0510 C.ar  376  PHE376     -0.0203
    104  CD1       37.7030    4.1030   25.1670 C.ar  376  PHE376     -0.0042
    105  CD2       36.2400    2.2720   25.6100 C.ar  376  PHE376     -0.0042
    106  CE1       37.2330    4.1620   23.8560 C.ar  376  PHE376     -0.0003
    107  CE2       35.7740    2.3280   24.3160 C.ar  376  PHE376     -0.0003
    108  CZ        36.2640    3.2820   23.4400 C.ar  376  PHE376     -0.0000
    109  N         41.9180    0.7670   23.8320 N.3   380  HIS380     -0.1241
    110  CA        41.8020    0.9950   22.4100 C.3   380  HIS380      0.1621
    111  C         43.0790    1.4940   21.7650 C.2   380  HIS380      0.2264
    112  O         43.2250    1.3420   20.5420 O.2   380  HIS380     -0.2867
    113  CB        40.6440    1.9440   22.1320 C.3   380  HIS380      0.0745
    114  CG        39.3670    1.2100   21.9130 C.ar  380  HIS380      0.0817
    115  ND1       38.9930    0.7280   20.6720 N.ar  380  HIS380     -0.2268
    116  CD2       38.4220    0.7900   22.7850 C.ar  380  HIS380      0.1154
    117  CE1       37.8550    0.0680   20.7930 C.ar  380  HIS380      0.1986
    118  NE2       37.4860    0.0960   22.0610 N.ar  380  HIS380     -0.2212
@<TRIPOS>BOND
     1    14    13    2
     2    13    12    1
     3    11    12    1
     4    12    15    1
     5    25    26    1
     6    25    22    1
     7    28    30   ar
     8    28    26   ar
     9    23    24    2
    10    23    22    1
    11    30    31   ar
    12    26    27   ar
    13    15    16    1
    14    22    21    1
    15    27    29   ar
    16    31    29   ar
    17    16    17   ar
    18    16    18   ar
    19    17    19   ar
    20    18    20   ar
    21    19    20   ar
    22    49    47   am
    23   112   111    2
    24   115   117   ar
    25   115   114   ar
    26    38    40   ar
    27    38    37   ar
    28   117   118   ar
    29     4     3    2
    30    36    37    1
    31    36    33    1
    32    40    41   ar
    33    48    47    2
    34    37    39   ar
    35    47    46    1
    36     2     1    1
    37     2     3    1
    38     2     5    1
    39    41    39   ar
    40     8    10   ar
    41     8     6   ar
    42    32    33    1
    43   111   110    1
    44   114   113    1
    45   114   116   ar
    46    10     9   ar
    47   118   116   ar
    48    33    34    1
    49   113   110    1
    50     6     5    1
    51     6     7   ar
    52    46    43    1
    53    42    34   am
    54    42    43    1
    55   110   109    1
    56     9     7   ar
    57    34    35    2
    58    43    44    1
    59   108   106   ar
    60   108   107   ar
    61    89    91    1
    62    89    90    1
    63    89    86    1
    64   106   104   ar
    65   107   105   ar
    66    88    87    2
    67    44    45    2
    68    59    57   ar
    69    59    58   ar
    70    57    55   ar
    71    86    87    1
    72    86    85    1
    73   104   103   ar
    74    58    56   ar
    75   105   103   ar
    76    55    56   ar
    77    55    54    1
    78   101   100    2
    79   103   102    1
    80    97    96    1
    81    85    78   am
    82    54    51    1
    83    66    65    1
    84   100    99    1
    85    50    51    1
    86    78    79    2
    87    78    77    1
    88    65    67    1
    89    65    64    1
    90    96    93    1
    91   102    99    1
    92    51    52    1
    93    99    98    1
    94    92    93    1
    95    75    74    2
    96    60    52   am
    97    60    61    1
    98    93    94    1
    99    94    95    2
   100    77    76    1
   101    77    80    1
   102    64    61    1
   103    52    53    2
   104    71    70    2
   105    74    76   am
   106    74    73    1
   107    61    62    1
   108    73    72    1
   109    80    81    1
   110    70    72   am
   111    70    69    1
   112    62    63    2
   113    69    68    1
   114    81    82    1
   115    82    84   am
   116    82    83    2
