@<TRIPOS>MOLECULE
tmp/5m8rB07.pdb
 144 140 0 0 0
SMALL
GASTEIGER

@<TRIPOS>ATOM
      1  N        -29.7980   29.0230   25.2950 N.3   168  HIS168     -0.1241
      2  CA       -29.0680   30.2810   25.4180 C.3   168  HIS168      0.1621
      3  C        -27.6400   30.0390   25.8980 C.2   168  HIS168      0.2264
      4  O        -26.6870   30.5720   25.3100 O.2   168  HIS168     -0.2867
      5  CB       -29.8190   31.2160   26.3610 C.3   168  HIS168      0.0745
      6  CG       -29.3970   32.6580   26.2670 C.ar  168  HIS168      0.0817
      7  ND1      -28.5270   33.2420   27.1650 N.ar  168  HIS168     -0.2268
      8  CD2      -29.7630   33.6410   25.4030 C.ar  168  HIS168      0.1154
      9  CE1      -28.3640   34.5160   26.8470 C.ar  168  HIS168      0.1986
     10  NE2      -29.1050   34.7840   25.7850 N.ar  168  HIS168     -0.2212
     11  N        -24.9160   36.7150   20.2870 N.3   191  HIS191     -0.1226
     12  CA       -24.7120   38.0860   20.7280 C.3   191  HIS191      0.1752
     13  C        -23.5480   38.6940   19.9710 C.2   191  HIS191      0.2595
     14  O        -22.7380   37.9920   19.3680 O.2   191  HIS191     -0.2718
     15  CB       -24.4410   38.1830   22.2470 C.3   191  HIS191      0.0759
     16  CG       -25.4950   37.5250   23.0740 C.ar  191  HIS191      0.0818
     17  ND1      -25.5390   36.1630   23.2720 N.ar  191  HIS191     -0.2268
     18  CD2      -26.5770   38.0340   23.7050 C.ar  191  HIS191      0.1154
     19  CE1      -26.5960   35.8610   24.0000 C.ar  191  HIS191      0.1986
     20  NE2      -27.2410   36.9800   24.2770 N.ar  191  HIS191     -0.2212
     21  N        -23.4670   40.0150   20.0340 N.am  192  GLU192     -0.1979
     22  CA       -22.3190   40.7410   19.5240 C.3   192  GLU192      0.1602
     23  C        -22.1730   40.5220   18.0210 C.2   192  GLU192      0.2287
     24  O        -21.0720   40.3600   17.4930 O.2   192  GLU192     -0.2864
     25  CB       -21.0500   40.3580   20.2840 C.3   192  GLU192      0.0415
     26  CG       -21.1860   40.4960   21.7890 C.3   192  GLU192      0.1163
     27  CD       -19.8470   40.4180   22.5150 C.2   192  GLU192      0.3649
     28  OE1      -18.8900   41.1200   22.1080 O.co2 192  GLU192     -0.2457
     29  OE2      -19.7440   39.6620   23.5000 O.co2 192  GLU192     -0.2457
     30  N        -20.8410   50.9480   39.8990 N.3   297  ARG297     -0.1245
     31  CA       -21.0060   51.3070   38.4920 C.3   297  ARG297      0.1563
     32  C        -22.2950   52.0860   38.3380 C.2   297  ARG297      0.2260
     33  O        -23.3080   51.5670   37.8450 O.2   297  ARG297     -0.2867
     34  CB       -21.0030   50.0660   37.6110 C.3   297  ARG297      0.0307
     35  CG       -20.8290   50.3600   36.1630 C.3   297  ARG297      0.0489
     36  CD       -20.5150   49.0850   35.4700 C.3   297  ARG297      0.2205
     37  NE       -20.6910   49.2410   34.0420 N.pl3 297  ARG297     -0.0865
     38  CZ       -20.7350   48.2220   33.1970 C.cat 297  ARG297      0.5346
     39  NH1      -20.6180   46.9720   33.6490 N.pl3 297  ARG297      0.1354
     40  NH2      -20.9100   48.4640   31.9080 N.pl3 297  ARG297      0.1354
     41  N        -24.5350   48.0950   22.7520 N.3   338  PHE338     -0.1241
     42  CA       -23.1020   48.3660   22.8030 C.3   338  PHE338      0.1605
     43  C        -22.7360   49.7570   22.2920 C.2   338  PHE338      0.2264
     44  O        -21.6720   50.2790   22.6550 O.2   338  PHE338     -0.2867
     45  CB       -22.3240   47.2970   22.0140 C.3   338  PHE338      0.0534
     46  CG       -22.2890   45.9280   22.6800 C.ar  338  PHE338     -0.0203
     47  CD1      -21.5040   45.7000   23.8120 C.ar  338  PHE338     -0.0042
     48  CD2      -23.0180   44.8610   22.1540 C.ar  338  PHE338     -0.0042
     49  CE1      -21.4570   44.4410   24.4090 C.ar  338  PHE338     -0.0003
     50  CE2      -22.9810   43.5970   22.7490 C.ar  338  PHE338     -0.0003
     51  CZ       -22.2050   43.3910   23.8680 C.ar  338  PHE338     -0.0000
     52  N        -23.1050   51.5350   28.2200 N.3   350  SER350     -0.1217
     53  CA       -23.9810   50.3770   28.1180 C.3   350  SER350      0.1889
     54  C        -25.4010   50.9170   28.0250 C.2   350  SER350      0.2288
     55  O        -25.8420   51.6220   28.9350 O.2   350  SER350     -0.2866
     56  CB       -23.8100   49.4730   29.3490 C.3   350  SER350      0.2089
     57  OG       -24.3610   48.1840   29.1500 O.3   350  SER350     -0.2183
     58  N        -30.9190   47.2640   25.6420 N.3   353  HIS353     -0.1226
     59  CA       -31.0410   45.8700   26.0760 C.3   353  HIS353      0.1752
     60  C        -29.9180   45.4500   27.0290 C.2   353  HIS353      0.2596
     61  O        -30.1790   44.7490   28.0140 O.2   353  HIS353     -0.2718
     62  CB       -31.0840   44.9260   24.8680 C.3   353  HIS353      0.0759
     63  CG       -30.5100   43.5670   25.1410 C.ar  353  HIS353      0.0818
     64  ND1      -29.1570   43.2890   25.0350 N.ar  353  HIS353     -0.2268
     65  CD2      -31.1020   42.4050   25.5130 C.ar  353  HIS353      0.1154
     66  CE1      -28.9450   42.0190   25.3410 C.ar  353  HIS353      0.1986
     67  NE2      -30.1060   41.4610   25.6370 N.ar  353  HIS353     -0.2212
     68  N        -28.6620   45.8260   26.7400 N.am  354  ASN354     -0.1974
     69  CA       -27.5710   45.4870   27.6560 C.3   354  ASN354      0.1688
     70  C        -27.7550   46.1920   28.9960 C.2   354  ASN354      0.2292
     71  O        -27.5670   45.5890   30.0620 O.2   354  ASN354     -0.2864
     72  CB       -26.2070   45.8600   27.0470 C.3   354  ASN354      0.1181
     73  CG       -25.6940   44.8370   25.9940 C.2   354  ASN354      0.2629
     74  OD1      -26.1730   43.7030   25.9030 O.2   354  ASN354     -0.2716
     75  ND2      -24.6920   45.2430   25.2280 N.am  354  ASN354     -0.0877
     76  N        -30.2580   44.4900   31.2190 N.3   357  HIS357     -0.1226
     77  CA       -29.6400   43.3190   31.8460 C.3   357  HIS357      0.1752
     78  C        -28.8110   43.7070   33.0620 C.2   357  HIS357      0.2595
     79  O        -28.9580   43.1150   34.1360 O.2   357  HIS357     -0.2718
     80  CB       -28.7450   42.5870   30.8470 C.3   357  HIS357      0.0759
     81  CG       -29.4580   41.5650   30.0170 C.ar  357  HIS357      0.0818
     82  ND1      -29.8300   40.3330   30.5090 N.ar  357  HIS357     -0.2268
     83  CD2      -29.8450   41.5840   28.7210 C.ar  357  HIS357      0.1154
     84  CE1      -30.4080   39.6350   29.5510 C.ar  357  HIS357      0.1986
     85  NE2      -30.4300   40.3730   28.4590 N.ar  357  HIS357     -0.2212
     86  N        -27.8990   44.6760   32.8980 N.am  358  LEU358     -0.1980
     87  CA       -26.9210   44.9840   33.9450 C.3   358  LEU358      0.1596
     88  C        -27.5770   45.6560   35.1480 C.2   358  LEU358      0.2287
     89  O        -27.0770   45.5470   36.2740 O.2   358  LEU358     -0.2864
     90  CB       -25.8160   45.8800   33.3740 C.3   358  LEU358      0.0297
     91  CG       -24.9100   45.2320   32.3170 C.3   358  LEU358      0.0022
     92  CD1      -24.1100   46.2900   31.5660 C.3   358  LEU358      0.0001
     93  CD2      -23.9690   44.1790   32.9350 C.3   358  LEU358      0.0001
     94  N        -29.5420   37.9150   36.1120 N.3   364  GLY364     -0.1210
     95  CA       -29.9730   38.4900   34.8500 C.3   364  GLY364      0.1956
     96  C        -28.8940   39.2610   34.1140 C.2   364  GLY364      0.2612
     97  O        -29.0570   39.5240   32.9190 O.2   364  GLY364     -0.2717
     98  N        -27.7980   39.6100   34.7770 N.am  365  GLY365     -0.1942
     99  CA       -26.7320   40.3790   34.1680 C.3   365  GLY365      0.2014
    100  C        -25.5700   39.5970   33.5840 C.2   365  GLY365      0.2639
    101  O        -24.6010   40.2140   33.1310 O.2   365  GLY365     -0.2714
    102  N        -25.6330   38.2690   33.5560 N.am  366  GLN366     -0.1963
    103  CA       -24.5420   37.4360   33.0630 C.3   366  GLN366      0.1733
    104  C        -25.0220   36.6260   31.8730 C.2   366  GLN366      0.2616
    105  O        -25.9680   35.8360   32.0030 O.2   366  GLN366     -0.2715
    106  CB       -24.0400   36.5160   34.1670 C.3   366  GLN366      0.0408
    107  CG       -23.5470   37.2810   35.3850 C.3   366  GLN366      0.0908
    108  CD       -23.3960   36.3810   36.5780 C.2   366  GLN366      0.2608
    109  OE1      -24.2410   36.3860   37.4660 O.2   366  GLN366     -0.2717
    110  NE2      -22.3310   35.5780   36.5960 N.am  366  GLN366     -0.0878
    111  N        -24.3380   36.7780   30.7300 N.am  367  VAL367     -0.1977
    112  CA       -24.9280   36.3120   29.4770 C.3   367  VAL367      0.1596
    113  C        -25.1550   34.8000   29.4930 C.2   367  VAL367      0.2287
    114  O        -26.1330   34.3070   28.9110 O.2   367  VAL367     -0.2864
    115  CB       -24.0920   36.7760   28.2610 C.3   367  VAL367      0.0276
    116  CG1      -22.7750   35.9950   28.1210 C.3   367  VAL367      0.0022
    117  CG2      -24.9380   36.6630   26.9750 C.3   367  VAL367      0.0022
    118  N        -28.3760   34.4790   32.1980 N.3   370  SER370     -0.1217
    119  CA       -29.4370   35.4600   32.3850 C.3   370  SER370      0.1889
    120  C        -30.8490   34.9150   32.1590 C.2   370  SER370      0.2288
    121  O        -31.7550   35.3760   32.8690 O.2   370  SER370     -0.2866
    122  CB       -29.1610   36.7010   31.5190 C.3   370  SER370      0.2089
    123  OG       -28.9230   36.3930   30.1470 O.3   370  SER370     -0.2183
    124  N        -35.8790   37.9610   32.0580 N.3   376  PHE376     -0.1241
    125  CA       -35.2830   37.7990   30.7330 C.3   376  PHE376      0.1605
    126  C        -36.3500   37.7170   29.6400 C.2   376  PHE376      0.2264
    127  O        -36.2870   38.4480   28.6480 O.2   376  PHE376     -0.2867
    128  CB       -34.3930   36.5410   30.7370 C.3   376  PHE376      0.0534
    129  CG       -33.6800   36.2680   29.4150 C.ar  376  PHE376     -0.0203
    130  CD1      -34.3570   35.6630   28.3550 C.ar  376  PHE376     -0.0042
    131  CD2      -32.3320   36.5970   29.2530 C.ar  376  PHE376     -0.0042
    132  CE1      -33.7100   35.4070   27.1350 C.ar  376  PHE376     -0.0003
    133  CE2      -31.6720   36.3380   28.0490 C.ar  376  PHE376     -0.0003
    134  CZ       -32.3620   35.7440   26.9850 C.ar  376  PHE376     -0.0000
    135  N        -36.7970   40.5340   26.7370 N.3   380  HIS380     -0.1241
    136  CA       -36.5460   40.2320   25.3310 C.3   380  HIS380      0.1621
    137  C        -37.7670   40.3480   24.4330 C.2   380  HIS380      0.2264
    138  O        -37.6040   40.6850   23.2620 O.2   380  HIS380     -0.2867
    139  CB       -35.9190   38.8450   25.1920 C.3   380  HIS380      0.0745
    140  CG       -34.4310   38.9120   25.2490 C.ar  380  HIS380      0.0817
    141  ND1      -33.6710   39.2810   24.1620 N.ar  380  HIS380     -0.2268
    142  CD2      -33.5750   38.8190   26.2960 C.ar  380  HIS380      0.1154
    143  CE1      -32.4040   39.3620   24.5240 C.ar  380  HIS380      0.1986
    144  NE2      -32.3190   39.0860   25.8140 N.ar  380  HIS380     -0.2212
@<TRIPOS>BOND
     1    24    23    2
     2    23    22    1
     3    14    13    2
     4    22    21    1
     5    22    25    1
     6    13    21   am
     7    13    12    1
     8    25    26    1
     9    11    12    1
    10    12    15    1
    11    26    27    1
    12    45    46    1
    13    45    42    1
    14    28    27   ar
    15    48    46   ar
    16    48    50   ar
    17    15    16    1
    18    43    44    2
    19    43    42    1
    20    27    29   ar
    21    46    47   ar
    22    50    51   ar
    23    41    42    1
    24    16    17   ar
    25    16    18   ar
    26   138   137    2
    27    17    19   ar
    28    18    20   ar
    29    47    49   ar
    30    51    49   ar
    31    19    20   ar
    32   141   143   ar
    33   141   140   ar
    34   137   136    1
    35   143   144   ar
    36    62    63    1
    37    62    59    1
    38    64    63   ar
    39    64    66   ar
    40    63    65   ar
    41   139   140    1
    42   139   136    1
    43    75    73   am
    44   140   142   ar
    45     1     2    1
    46     4     3    2
    47   136   135    1
    48    66    67   ar
    49     8    10   ar
    50     8     6   ar
    51     2     3    1
    52     2     5    1
    53    65    67   ar
    54    58    59    1
    55    10     9   ar
    56   144   142   ar
    57    74    73    2
    58    73    72    1
    59    59    60    1
    60     6     5    1
    61     6     7   ar
    62    68    60   am
    63    68    69    1
    64     9     7   ar
    65   117   115    1
    66   134   132   ar
    67   134   133   ar
    68    60    61    2
    69    72    69    1
    70   132   130   ar
    71    69    70    1
    72    54    53    1
    73    54    55    2
    74   133   131   ar
    75    53    52    1
    76    53    56    1
    77   116   115    1
    78   115   112    1
    79   130   129   ar
    80    85    83   ar
    81    85    84   ar
    82   127   126    2
    83    83    81   ar
    84   114   113    2
    85    70    71    2
    86    57    56    1
    87   131   129   ar
    88   129   128    1
    89   112   113    1
    90   112   111    1
    91    84    82   ar
    92   126   125    1
    93    81    82   ar
    94    81    80    1
    95   123   122    1
    96   111   104   am
    97   125   128    1
    98   125   124    1
    99    80    77    1
   100    76    77    1
   101   122   119    1
   102    92    91    1
   103    77    78    1
   104   104   105    2
   105   104   103    1
   106    40    38    1
   107   120   119    1
   108   120   121    2
   109   118   119    1
   110    91    93    1
   111    91    90    1
   112    86    78   am
   113    86    87    1
   114    97    96    2
   115    78    79    2
   116   103   102    1
   117   103   106    1
   118   101   100    2
   119    38    39    1
   120    38    37    2
   121    90    87    1
   122   102   100   am
   123   100    99    1
   124    87    88    1
   125    37    36    1
   126    96    98   am
   127    96    95    1
   128   106   107    1
   129    99    98    1
   130    95    94    1
   131    88    89    2
   132   107   108    1
   133    36    35    1
   134    35    34    1
   135   108   110   am
   136   108   109    2
   137    34    31    1
   138    33    32    2
   139    32    31    1
   140    31    30    1
