@<TRIPOS>MOLECULE
tmp/5m8rB01.pdb
 84 83 0 0 0
SMALL
GASTEIGER

@<TRIPOS>ATOM
      1  N        -27.9470    8.8170   15.9660 N.3    12  LEU12      -0.1231
      2  CA       -26.6650    9.5000   15.8700 C.3    12  LEU12       0.1693
      3  C        -25.7380    8.7920   14.8960 C.2    12  LEU12       0.2592
      4  O        -24.9620    9.4540   14.1960 O.2    12  LEU12      -0.2718
      5  CB       -26.0220    9.6360   17.2470 C.3    12  LEU12       0.0284
      6  CG       -26.5740   10.8480   17.9990 C.3    12  LEU12       0.0019
      7  CD1      -26.6420   10.6170   19.5050 C.3    12  LEU12       0.0001
      8  CD2      -25.7380   12.0740   17.6560 C.3    12  LEU12       0.0001
      9  N        -25.8080    7.4510   14.8120 N.am   13  ARG13      -0.1966
     10  CA       -24.9700    6.7760   13.8190 C.3    13  ARG13       0.1729
     11  C        -25.4590    7.0390   12.4080 C.2    13  ARG13       0.2617
     12  O        -24.6460    7.2070   11.4960 O.2    13  ARG13      -0.2715
     13  CB       -24.8580    5.2610   14.0190 C.3    13  ARG13       0.0348
     14  CG       -23.8050    4.7230   12.9560 C.3    13  ARG13       0.0492
     15  CD       -23.4870    3.2230   12.8760 C.3    13  ARG13       0.2205
     16  NE       -23.9480    2.5220   14.0560 N.pl3  13  ARG13      -0.0865
     17  CZ       -25.2080    1.9800   14.1710 C.cat  13  ARG13       0.5346
     18  NH1      -26.1350    2.0920   13.2070 N.pl3  13  ARG13       0.1354
     19  NH2      -25.5410    1.3680   15.3070 N.pl3  13  ARG13       0.1354
     20  N        -26.7770    7.0710   12.1970 N.am   14  SER14      -0.1936
     21  CA       -27.2850    7.3170   10.8500 C.3    14  SER14       0.2055
     22  C        -27.0600    8.7560   10.3910 C.2    14  SER14       0.2643
     23  O        -27.0080    9.0040    9.1760 O.2    14  SER14      -0.2714
     24  CB       -28.7760    6.9860   10.7720 C.3    14  SER14       0.2130
     25  OG       -29.5580    7.9630   11.4230 O.3    14  SER14      -0.2179
     26  N        -26.9150    9.6960   11.3330 N.am   15  GLY15      -0.1954
     27  CA       -26.8560   11.1040   11.0050 C.3    15  GLY15       0.1869
     28  C        -28.1900   11.6700   10.6100 C.2    15  GLY15       0.2309
     29  O        -28.2530   12.7300    9.9850 O.2    15  GLY15      -0.2863
     30  N        -24.5730   20.1940   11.2310 N.3    68  LEU68      -0.1231
     31  CA       -23.9660   19.0450   10.5550 C.3    68  LEU68       0.1693
     32  C        -23.0100   18.2240   11.4230 C.2    68  LEU68       0.2592
     33  O        -22.6750   17.1060   11.0210 O.2    68  LEU68      -0.2718
     34  CB       -23.2130   19.4940    9.2950 C.3    68  LEU68       0.0284
     35  CG       -24.0410   20.1090    8.1720 C.3    68  LEU68       0.0019
     36  CD1      -23.1300   20.5600    7.0100 C.3    68  LEU68       0.0001
     37  CD2      -25.0930   19.1380    7.7130 C.3    68  LEU68       0.0001
     38  N        -22.5390   18.7250   12.5720 N.am   69  ARG69      -0.1966
     39  CA       -21.7600   17.8250   13.4290 C.3    69  ARG69       0.1729
     40  C        -22.6140   16.7460   14.0830 C.2    69  ARG69       0.2616
     41  O        -22.0520   15.8030   14.6390 O.2    69  ARG69      -0.2715
     42  CB       -21.0070   18.5780   14.5280 C.3    69  ARG69       0.0348
     43  CG       -19.9450   19.5410   14.0190 C.3    69  ARG69       0.0492
     44  CD       -18.8440   18.8540   13.1850 C.3    69  ARG69       0.2205
     45  NE       -18.2860   19.7890   12.2110 N.pl3  69  ARG69      -0.0865
     46  CZ       -17.3530   20.6990   12.4880 C.cat  69  ARG69       0.5346
     47  NH1      -16.8450   20.8020   13.7230 N.pl3  69  ARG69       0.1354
     48  NH2      -16.9190   21.5100   11.5220 N.pl3  69  ARG69       0.1354
     49  N        -23.9380   16.8410   14.0210 N.am   70  PHE70      -0.1960
     50  CA       -24.7910   15.8400   14.6570 C.3    70  PHE70       0.1771
     51  C        -25.7330   15.1320   13.7040 C.2    70  PHE70       0.2620
     52  O        -25.9630   13.9310   13.8560 O.2    70  PHE70      -0.2715
     53  CB       -25.6200   16.4770   15.7660 C.3    70  PHE70       0.0574
     54  CG       -24.8070   16.9910   16.8940 C.ar   70  PHE70      -0.0200
     55  CD1      -24.3730   16.1310   17.8920 C.ar   70  PHE70      -0.0042
     56  CD2      -24.4700   18.3310   16.9600 C.ar   70  PHE70      -0.0042
     57  CE1      -23.6210   16.5990   18.9450 C.ar   70  PHE70      -0.0003
     58  CE2      -23.7180   18.8120   18.0140 C.ar   70  PHE70      -0.0003
     59  CZ       -23.2940   17.9390   19.0140 C.ar   70  PHE70      -0.0000
     60  N        -26.3220   15.8450   12.7540 N.am   71  PHE71      -0.1960
     61  CA       -27.2030   15.2390   11.7710 C.3    71  PHE71       0.1771
     62  C        -27.0150   15.9350   10.4260 C.2    71  PHE71       0.2619
     63  O        -26.8130   17.1570   10.3680 O.2    71  PHE71      -0.2715
     64  CB       -28.6590   15.3220   12.2240 C.3    71  PHE71       0.0574
     65  CG       -28.9210   14.7030   13.5830 C.ar   71  PHE71      -0.0200
     66  CD1      -29.0150   13.3200   13.7300 C.ar   71  PHE71      -0.0042
     67  CD2      -29.1010   15.5030   14.7080 C.ar   71  PHE71      -0.0042
     68  CE1      -29.2760   12.7410   14.9650 C.ar   71  PHE71      -0.0003
     69  CE2      -29.3580   14.9260   15.9610 C.ar   71  PHE71      -0.0003
     70  CZ       -29.4450   13.5410   16.0880 C.ar   71  PHE71      -0.0000
     71  N        -27.0630   15.1560    9.3430 N.am   72  ASN72      -0.1972
     72  CA       -27.0840   15.7240    8.0020 C.3    72  ASN72       0.1688
     73  C        -28.4020   15.4890    7.2720 C.2    72  ASN72       0.2292
     74  O        -28.5310   15.9100    6.1130 O.2    72  ASN72      -0.2864
     75  CB       -25.8950   15.2100    7.1610 C.3    72  ASN72       0.1181
     76  CG       -25.8330   13.6900    7.0380 C.2    72  ASN72       0.2629
     77  OD1      -26.8330   12.9840    7.1690 O.2    72  ASN72      -0.2716
     78  ND2      -24.6320   13.1870    6.7690 N.am   72  ASN72      -0.0877
     79  N        -19.6900   16.1620   21.3320 N.3   142  SER142     -0.1217
     80  CA       -19.9440   15.0650   20.3920 C.3   142  SER142      0.1889
     81  C        -18.9980   13.8880   20.6280 C.2   142  SER142      0.2288
     82  O        -19.4390   12.7330   20.6940 O.2   142  SER142     -0.2866
     83  CB       -19.8590   15.5590   18.9400 C.3   142  SER142      0.2089
     84  OG       -18.6010   16.1300   18.6290 O.3   142  SER142     -0.2183
@<TRIPOS>BOND
     1    74    73    2
     2    78    76   am
     3    36    35    1
     4    76    75    1
     5    76    77    2
     6    75    72    1
     7    73    72    1
     8    37    35    1
     9    72    71    1
    10    35    34    1
    11    23    22    2
    12    34    31    1
    13    71    62   am
    14    29    28    2
    15    63    62    2
    16    22    21    1
    17    22    26   am
    18    62    61    1
    19    31    30    1
    20    31    32    1
    21    28    27    1
    22    24    21    1
    23    24    25    1
    24    21    20    1
    25    27    26    1
    26    33    32    2
    27    32    38   am
    28    12    11    2
    29    48    46    1
    30    61    64    1
    31    61    60    1
    32    20    11   am
    33    45    46    2
    34    45    44    1
    35    64    65    1
    36    11    10    1
    37    46    47    1
    38    38    39    1
    39    60    51   am
    40    15    14    1
    41    15    16    1
    42    14    13    1
    43    44    43    1
    44    18    17    1
    45    39    40    1
    46    39    42    1
    47    65    66   ar
    48    65    67   ar
    49    51    52    2
    50    51    50    1
    51    66    68   ar
    52    10    13    1
    53    10     9    1
    54    43    42    1
    55    49    40   am
    56    49    50    1
    57    16    17    2
    58    40    41    2
    59    17    19    1
    60     4     3    2
    61    50    53    1
    62    67    69   ar
    63     9     3   am
    64     3     2    1
    65    68    70   ar
    66    53    54    1
    67     2     1    1
    68     2     5    1
    69    69    70   ar
    70    54    56   ar
    71    54    55   ar
    72    56    58   ar
    73     5     6    1
    74     8     6    1
    75    55    57   ar
    76     6     7    1
    77    58    59   ar
    78    84    83    1
    79    83    80    1
    80    57    59   ar
    81    80    81    1
    82    80    79    1
    83    81    82    2
