@<TRIPOS>MOLECULE
tmp/5m8rB06.pdb
 68 63 0 0 0
SMALL
GASTEIGER

@<TRIPOS>ATOM
      1  N        -30.2480   35.3750   41.8290 N.3   288  ARG288     -0.1245
      2  CA       -29.7540   36.5880   42.4600 C.3   288  ARG288      0.1563
      3  C        -30.2630   37.7950   41.6730 C.2   288  ARG288      0.2260
      4  O        -30.0470   37.8870   40.4640 O.2   288  ARG288     -0.2867
      5  CB       -28.2250   36.5820   42.5170 C.3   288  ARG288      0.0307
      6  CG       -27.6440   35.5060   43.4120 C.3   288  ARG288      0.0489
      7  CD       -27.7900   35.8900   44.8690 C.3   288  ARG288      0.2205
      8  NE       -27.5430   34.7680   45.7710 N.pl3 288  ARG288     -0.0865
      9  CZ       -27.5890   34.8680   47.1020 C.cat 288  ARG288      0.5346
     10  NH1      -27.8670   36.0340   47.6810 N.pl3 288  ARG288      0.1354
     11  NH2      -27.3730   33.8070   47.8580 N.pl3 288  ARG288      0.1354
     12  N        -28.6650   47.8440   42.3000 N.3   293  GLY293     -0.1210
     13  CA       -27.6710   47.6040   43.3230 C.3   293  GLY293      0.1956
     14  C        -26.2010   47.6880   42.9350 C.2   293  GLY293      0.2612
     15  O        -25.3610   47.5310   43.8220 O.2   293  GLY293     -0.2717
     16  N        -25.8410   47.9420   41.6750 N.am  294  ASN294     -0.1960
     17  CA       -24.4290   47.9800   41.2740 C.3   294  ASN294      0.1819
     18  C        -23.8410   49.3420   41.6350 C.2   294  ASN294      0.2621
     19  O        -23.6610   50.2280   40.7910 O.2   294  ASN294     -0.2715
     20  CB       -24.2620   47.6840   39.7880 C.3   294  ASN294      0.1195
     21  CG       -22.8080   47.3870   39.4090 C.2   294  ASN294      0.2630
     22  OD1      -21.8860   47.5720   40.2100 O.2   294  ASN294     -0.2716
     23  ND2      -22.6020   46.9290   38.1800 N.am  294  ASN294     -0.0877
     24  N        -23.4990   49.4890   42.9210 N.am  295  VAL295     -0.1963
     25  CA       -23.0320   50.7780   43.4290 C.3   295  VAL295      0.1727
     26  C        -21.6870   51.1510   42.8160 C.2   295  VAL295      0.2616
     27  O        -21.4050   52.3390   42.5910 O.2   295  VAL295     -0.2715
     28  CB       -22.9700   50.7520   44.9660 C.3   295  VAL295      0.0290
     29  CG1      -24.3590   50.5490   45.5620 C.3   295  VAL295      0.0023
     30  CG2      -22.0480   49.6520   45.4470 C.3   295  VAL295      0.0023
     31  N        -20.8540   50.1500   42.5000 N.am  296  ALA296     -0.1977
     32  CA       -19.5470   50.3810   41.8970 C.3   296  ALA296      0.1597
     33  C        -19.6430   50.8790   40.4670 C.2   296  ALA296      0.2287
     34  O        -18.6150   51.2130   39.8720 O.2   296  ALA296     -0.2864
     35  CB       -18.7200   49.0980   41.9370 C.3   296  ALA296      0.0319
     36  N        -27.8990   44.6760   32.8980 N.3   358  LEU358     -0.1245
     37  CA       -26.9210   44.9840   33.9450 C.3   358  LEU358      0.1561
     38  C        -27.5770   45.6560   35.1480 C.2   358  LEU358      0.2260
     39  O        -27.0770   45.5470   36.2740 O.2   358  LEU358     -0.2867
     40  CB       -25.8160   45.8800   33.3740 C.3   358  LEU358      0.0270
     41  CG       -24.9100   45.2320   32.3170 C.3   358  LEU358      0.0019
     42  CD1      -24.1100   46.2900   31.5660 C.3   358  LEU358      0.0001
     43  CD2      -23.9690   44.1790   32.9350 C.3   358  LEU358      0.0001
     44  N        -28.2410   43.6470   38.2490 N.3   361  ASN361     -0.1225
     45  CA       -27.0890   43.4000   39.1340 C.3   361  ASN361      0.1785
     46  C        -27.2380   42.0590   39.8680 C.2   361  ASN361      0.2597
     47  O        -27.2770   41.9750   41.0980 O.2   361  ASN361     -0.2718
     48  CB       -26.8900   44.5990   40.0880 C.3   361  ASN361      0.1169
     49  CG       -25.8440   44.3630   41.1950 C.2   361  ASN361      0.2627
     50  OD1      -26.1830   44.4260   42.3770 O.2   361  ASN361     -0.2716
     51  ND2      -24.5830   44.0990   40.8140 N.am  361  ASN361     -0.0877
     52  N        -27.3610   40.9980   39.0640 N.am  362  GLY362     -0.1957
     53  CA       -27.4890   39.6360   39.5510 C.3   362  GLY362      0.1869
     54  C        -27.4760   38.6230   38.4240 C.2   362  GLY362      0.2309
     55  O        -26.8360   38.8420   37.3960 O.2   362  GLY362     -0.2863
     56  N        -27.7980   39.6100   34.7770 N.3   365  GLY365     -0.1210
     57  CA       -26.7320   40.3790   34.1680 C.3   365  GLY365      0.1956
     58  C        -25.5700   39.5970   33.5840 C.2   365  GLY365      0.2611
     59  O        -24.6010   40.2140   33.1310 O.2   365  GLY365     -0.2717
     60  N        -25.6330   38.2690   33.5560 N.am  366  GLN366     -0.1979
     61  CA       -24.5420   37.4360   33.0630 C.3   366  GLN366      0.1601
     62  C        -25.0220   36.6260   31.8730 C.2   366  GLN366      0.2287
     63  O        -25.9680   35.8360   32.0030 O.2   366  GLN366     -0.2864
     64  CB       -24.0400   36.5160   34.1670 C.3   366  GLN366      0.0394
     65  CG       -23.5470   37.2810   35.3850 C.3   366  GLN366      0.0908
     66  CD       -23.3960   36.3810   36.5780 C.2   366  GLN366      0.2608
     67  OE1      -24.2410   36.3860   37.4660 O.2   366  GLN366     -0.2717
     68  NE2      -22.3310   35.5780   36.5960 N.am  366  GLN366     -0.0878
@<TRIPOS>BOND
     1    42    41    1
     2    62    63    2
     3    62    61    1
     4    41    43    1
     5    41    40    1
     6    36    37    1
     7    61    60    1
     8    61    64    1
     9    59    58    2
    10    40    37    1
    11    60    58   am
    12    58    57    1
    13    37    38    1
    14    64    65    1
    15    57    56    1
    16    38    39    2
    17    65    66    1
    18    66    68   am
    19    66    67    2
    20    55    54    2
    21    23    21   am
    22    44    45    1
    23    54    53    1
    24    52    53    1
    25    52    46   am
    26    45    46    1
    27    45    48    1
    28    21    20    1
    29    21    22    2
    30    20    17    1
    31    46    47    2
    32    34    33    2
    33    48    49    1
    34     4     3    2
    35    33    32    1
    36    19    18    2
    37    51    49   am
    38    49    50    2
    39    17    18    1
    40    17    16    1
    41    18    24   am
    42     3     2    1
    43    16    14   am
    44     1     2    1
    45    32    35    1
    46    32    31    1
    47    12    13    1
    48     2     5    1
    49    31    26   am
    50     5     6    1
    51    27    26    2
    52    26    25    1
    53    24    25    1
    54    14    13    1
    55    14    15    2
    56     6     7    1
    57    25    28    1
    58     7     8    1
    59    28    30    1
    60    28    29    1
    61     8     9    2
    62     9    10    1
    63     9    11    1
