@<TRIPOS>MOLECULE
tmp/5m8sD08.pdb
 109 105 0 0 0
SMALL
GASTEIGER

@<TRIPOS>ATOM
      1  N         72.8910  139.6010  175.0330 N.3   191  HIS191     -0.1226
      2  CA        71.8370  139.5340  174.0270 C.3   191  HIS191      0.1752
      3  C         70.5400  139.1120  174.6940 C.2   191  HIS191      0.2595
      4  O         70.5300  138.6390  175.8360 O.2   191  HIS191     -0.2718
      5  CB        72.1790  138.5550  172.9070 C.3   191  HIS191      0.0759
      6  CG        73.5190  138.7890  172.2940 C.ar  191  HIS191      0.0818
      7  ND1       74.6920  138.3740  172.8910 N.ar  191  HIS191     -0.2268
      8  CD2       73.8750  139.3750  171.1270 C.ar  191  HIS191      0.1154
      9  CE1       75.7150  138.7090  172.1230 C.ar  191  HIS191      0.1986
     10  NE2       75.2470  139.3150  171.0460 N.ar  191  HIS191     -0.2212
     11  N         69.4350  139.2820  173.9560 N.am  192  GLU192     -0.1979
     12  CA        68.1100  138.8610  174.4010 C.3   192  GLU192      0.1602
     13  C         67.7420  139.4780  175.7500 C.2   192  GLU192      0.2287
     14  O         67.3400  138.7880  176.6890 O.2   192  GLU192     -0.2864
     15  CB        68.0230  137.3340  174.4460 C.3   192  GLU192      0.0415
     16  CG        68.4740  136.7070  173.1300 C.3   192  GLU192      0.1163
     17  CD        68.2050  135.2160  173.0510 C.2   192  GLU192      0.3649
     18  OE1       67.0850  134.8030  173.4290 O.co2 192  GLU192     -0.2457
     19  OE2       69.0870  134.4670  172.5700 O.co2 192  GLU192     -0.2457
     20  N         66.5880  128.4120  154.1810 N.3   297  ARG297     -0.1245
     21  CA        65.8930  129.3970  155.0070 C.3   297  ARG297      0.1563
     22  C         65.7300  130.6840  154.2130 C.2   297  ARG297      0.2260
     23  O         66.4020  131.6920  154.4760 O.2   297  ARG297     -0.2867
     24  CB        66.6670  129.6260  156.3000 C.3   297  ARG297      0.0307
     25  CG        65.8660  130.1060  157.4560 C.3   297  ARG297      0.0489
     26  CD        66.7200  129.9940  158.7050 C.3   297  ARG297      0.2205
     27  NE        66.2900  130.8990  159.7550 N.pl3 297  ARG297     -0.0865
     28  CZ        66.9460  131.0460  160.8960 C.cat 297  ARG297      0.5346
     29  NH1       68.0480  130.3410  161.1120 N.pl3 297  ARG297      0.1354
     30  NH2       66.5080  131.8980  161.8070 N.pl3 297  ARG297      0.1354
     31  N         64.2410  140.2500  167.0200 N.3   338  PHE338     -0.1241
     32  CA        63.3050  139.1780  167.3520 C.3   338  PHE338      0.1605
     33  C         61.8570  139.5620  167.0720 C.2   338  PHE338      0.2264
     34  O         61.0260  138.6700  166.8640 O.2   338  PHE338     -0.2867
     35  CB        63.4470  138.7460  168.8180 C.3   338  PHE338      0.0534
     36  CG        64.7520  138.0450  169.1240 C.ar  338  PHE338     -0.0203
     37  CD1       64.9610  136.7340  168.7180 C.ar  338  PHE338     -0.0042
     38  CD2       65.7610  138.6930  169.8470 C.ar  338  PHE338     -0.0042
     39  CE1       66.1670  136.0870  168.9990 C.ar  338  PHE338     -0.0003
     40  CE2       66.9730  138.0460  170.1360 C.ar  338  PHE338     -0.0003
     41  CZ        67.1750  136.7490  169.7170 C.ar  338  PHE338     -0.0000
     42  N         62.9740  137.0290  161.9130 N.3   350  SER350     -0.1217
     43  CA        64.3400  137.5090  162.0860 C.3   350  SER350      0.1889
     44  C         64.4210  138.8020  161.2920 C.2   350  SER350      0.2288
     45  O         64.2750  138.7730  160.0690 O.2   350  SER350     -0.2866
     46  CB        65.3630  136.4930  161.5760 C.3   350  SER350      0.2089
     47  OG        65.6140  135.4780  162.5290 O.3   350  SER350     -0.2183
     48  N         68.9410  143.6710  163.1180 N.3   353  HIS353     -0.1226
     49  CA        70.2720  143.2060  163.5430 C.3   353  HIS353      0.1752
     50  C         70.4180  141.7020  163.3710 C.2   353  HIS353      0.2596
     51  O         71.3940  141.2300  162.7820 O.2   353  HIS353     -0.2718
     52  CB        70.5400  143.5900  165.0060 C.3   353  HIS353      0.0759
     53  CG        71.5930  142.7550  165.6710 C.ar  353  HIS353      0.0818
     54  ND1       71.3040  141.5960  166.3650 N.ar  353  HIS353     -0.2268
     55  CD2       72.9320  142.9310  165.7760 C.ar  353  HIS353      0.1154
     56  CE1       72.4240  141.0810  166.8450 C.ar  353  HIS353      0.1986
     57  NE2       73.4260  141.8770  166.5080 N.ar  353  HIS353     -0.2212
     58  N         69.4470  140.9280  163.8710 N.am  354  ASN354     -0.1974
     59  CA        69.5440  139.4730  163.7620 C.3   354  ASN354      0.1688
     60  C         69.5780  139.0410  162.3040 C.2   354  ASN354      0.2292
     61  O         70.2830  138.0870  161.9460 O.2   354  ASN354     -0.2864
     62  CB        68.3650  138.7950  164.4710 C.3   354  ASN354      0.1181
     63  CG        68.5160  138.7440  165.9850 C.2   354  ASN354      0.2629
     64  OD1       69.5760  139.0370  166.5490 O.2   354  ASN354     -0.2716
     65  ND2       67.4480  138.3180  166.6520 N.am  354  ASN354     -0.0877
     66  N         72.9560  139.4860  160.5160 N.3   357  HIS357     -0.1226
     67  CA        73.8490  138.4040  160.9120 C.3   357  HIS357      0.1752
     68  C         73.5780  137.1430  160.1150 C.2   357  HIS357      0.2595
     69  O         74.5050  136.5170  159.5880 O.2   357  HIS357     -0.2718
     70  CB        73.6800  138.0990  162.4030 C.3   357  HIS357      0.0759
     71  CG        74.5370  138.9150  163.3220 C.ar  357  HIS357      0.0818
     72  ND1       75.8970  138.7350  163.4240 N.ar  357  HIS357     -0.2268
     73  CD2       74.2080  139.8410  164.2580 C.ar  357  HIS357      0.1154
     74  CE1       76.3770  139.5500  164.3510 C.ar  357  HIS357      0.1986
     75  NE2       75.3700  140.2250  164.8790 N.ar  357  HIS357     -0.2212
     76  N         72.3080  136.7220  160.0620 N.am  358  LEU358     -0.1980
     77  CA        71.9560  135.4640  159.4020 C.3   358  LEU358      0.1596
     78  C         72.1530  135.5380  157.8910 C.2   358  LEU358      0.2287
     79  O         72.4730  134.5240  157.2570 O.2   358  LEU358     -0.2864
     80  CB        70.5070  135.0920  159.7410 C.3   358  LEU358      0.0297
     81  CG        70.2350  134.7150  161.2060 C.3   358  LEU358      0.0022
     82  CD1       68.7250  134.5880  161.4670 C.3   358  LEU358      0.0001
     83  CD2       70.9710  133.4260  161.6100 C.3   358  LEU358      0.0001
     84  N         77.4810  134.7510  161.2990 N.3   365  GLY365     -0.1210
     85  CA        76.1190  134.4220  161.6700 C.3   365  GLY365      0.1956
     86  C         76.0290  133.2530  162.6320 C.2   365  GLY365      0.2612
     87  O         75.0030  132.5820  162.7060 O.2   365  GLY365     -0.2717
     88  N         77.0950  132.9740  163.3640 N.am  366  GLN366     -0.1965
     89  CA        77.0730  131.9470  164.3940 C.3   366  GLN366      0.1733
     90  C         77.3120  132.6160  165.7360 C.2   366  GLN366      0.2616
     91  O         78.2860  133.3620  165.8910 O.2   366  GLN366     -0.2715
     92  CB        78.1220  130.8770  164.1310 C.3   366  GLN366      0.0408
     93  CG        77.7810  130.0440  162.9110 C.3   366  GLN366      0.0908
     94  CD        78.8990  129.1050  162.5100 C.2   366  GLN366      0.2608
     95  OE1       79.7630  129.4670  161.7090 O.2   366  GLN366     -0.2717
     96  NE2       78.8640  127.8800  163.0200 N.am  366  GLN366     -0.0878
     97  N         76.4470  132.3130  166.7100 N.am  367  VAL367     -0.1977
     98  CA        76.3740  133.1060  167.9330 C.3   367  VAL367      0.1596
     99  C         77.6800  133.0420  168.7250 C.2   367  VAL367      0.2287
    100  O         78.0600  134.0200  169.3860 O.2   367  VAL367     -0.2864
    101  CB        75.1590  132.6480  168.7680 C.3   367  VAL367      0.0276
    102  CG1       73.8850  132.8440  167.9550 C.3   367  VAL367      0.0022
    103  CG2       75.2930  131.1920  169.1970 C.3   367  VAL367      0.0022
    104  N         80.4780  135.1530  165.9760 N.3   370  SER370     -0.1217
    105  CA        80.1640  136.2070  165.0080 C.3   370  SER370      0.1889
    106  C         81.2020  137.3330  164.9140 C.2   370  SER370      0.2288
    107  O         81.4460  137.7930  163.7910 O.2   370  SER370     -0.2866
    108  CB        78.7580  136.7920  165.2430 C.3   370  SER370      0.2089
    109  OG        78.6160  137.3300  166.5450 O.3   370  SER370     -0.2183
@<TRIPOS>BOND
     1    20    21    1
     2    22    23    2
     3    22    21    1
     4    21    24    1
     5    24    25    1
     6    79    78    2
     7    25    26    1
     8    78    77    1
     9    26    27    1
    10    77    80    1
    11    77    76    1
    12    69    68    2
    13    80    81    1
    14    27    28    2
    15    76    68   am
    16    45    44    2
    17    68    67    1
    18    66    67    1
    19    28    29    1
    20    28    30    1
    21    67    70    1
    22    81    82    1
    23    81    83    1
    24    44    43    1
    25    84    85    1
    26    46    43    1
    27    46    47    1
    28    85    86    1
    29    95    94    2
    30    42    43    1
    31    61    60    2
    32    60    59    1
    33    70    71    1
    34    94    93    1
    35    94    96   am
    36    86    87    2
    37    86    88   am
    38    51    50    2
    39    93    92    1
    40    48    49    1
    41    71    72   ar
    42    71    73   ar
    43    88    89    1
    44    50    49    1
    45    50    58   am
    46    72    74   ar
    47    49    52    1
    48    59    58    1
    49    59    62    1
    50   107   106    2
    51    92    89    1
    52    73    75   ar
    53    74    75   ar
    54    89    90    1
    55    62    63    1
    56   106   105    1
    57    52    53    1
    58   105   108    1
    59   105   104    1
    60   108   109    1
    61    53    55   ar
    62    53    54   ar
    63    90    91    2
    64    90    97   am
    65    55    57   ar
    66    63    64    2
    67    63    65   am
    68    54    56   ar
    69    57    56   ar
    70    97    98    1
    71    34    33    2
    72    31    32    1
    73    33    32    1
    74    32    35    1
    75    98    99    1
    76    98   101    1
    77   102   101    1
    78    37    39   ar
    79    37    36   ar
    80    99   100    2
    81   101   103    1
    82    35    36    1
    83    39    41   ar
    84    36    38   ar
    85    41    40   ar
    86    38    40   ar
    87    10     8   ar
    88    10     9   ar
    89     8     6   ar
    90     9     7   ar
    91     6     7   ar
    92     6     5    1
    93    19    17   ar
    94     5     2    1
    95    17    16    1
    96    17    18   ar
    97    16    15    1
    98    11    12    1
    99    11     3   am
   100     2     3    1
   101     2     1    1
   102    12    15    1
   103    12    13    1
   104     3     4    2
   105    13    14    2
