@<TRIPOS>MOLECULE
tmp/5m8wA00.pdb
 115 115 0 0 0
SMALL
GASTEIGER

@<TRIPOS>ATOM
      1  N        -10.6640   -9.9420  -17.5050 N.3    36  PHE36      -0.1241
      2  CA       -10.1880  -10.7710  -18.6120 C.3    36  PHE36       0.1605
      3  C        -11.1050  -10.6880  -19.8280 C.2    36  PHE36       0.2264
      4  O        -10.6340  -10.7580  -20.9690 O.2    36  PHE36      -0.2867
      5  CB       -10.0800  -12.2330  -18.1740 C.3    36  PHE36       0.0534
      6  CG        -8.9270  -12.5240  -17.2360 C.ar   36  PHE36      -0.0203
      7  CD1       -7.6840  -11.9550  -17.4420 C.ar   36  PHE36      -0.0042
      8  CD2       -9.0960  -13.3920  -16.1560 C.ar   36  PHE36      -0.0042
      9  CE1       -6.6280  -12.2390  -16.6030 C.ar   36  PHE36      -0.0003
     10  CE2       -8.0420  -13.6790  -15.2910 C.ar   36  PHE36      -0.0003
     11  CZ        -6.8110  -13.1010  -15.5150 C.ar   36  PHE36      -0.0000
     12  N         -5.4550   -8.1900  -24.4840 N.3    54  TRP54      -0.1241
     13  CA        -4.3950   -8.0590  -23.4880 C.3    54  TRP54       0.1605
     14  C         -3.3620   -9.1820  -23.5850 C.2    54  TRP54       0.2264
     15  O         -2.1500   -8.9300  -23.5130 O.2    54  TRP54      -0.2867
     16  CB        -5.0080   -8.0040  -22.0860 C.3    54  TRP54       0.0550
     17  CG        -5.6560   -9.2810  -21.6550 C.ar   54  TRP54       0.0003
     18  CD1       -6.9610   -9.6510  -21.8370 C.ar   54  TRP54       0.0946
     19  CD2       -5.0260  -10.3590  -20.9590 C.ar   54  TRP54       0.0152
     20  NE1       -7.1740  -10.8970  -21.2990 N.ar   54  TRP54      -0.2442
     21  CE2       -6.0010  -11.3510  -20.7540 C.ar   54  TRP54       0.0810
     22  CE3       -3.7250  -10.5800  -20.4850 C.ar   54  TRP54       0.0012
     23  CZ2       -5.7170  -12.5460  -20.0970 C.ar   54  TRP54       0.0191
     24  CZ3       -3.4430  -11.7730  -19.8380 C.ar   54  TRP54       0.0001
     25  CH2       -4.4330  -12.7340  -19.6460 C.ar   54  TRP54       0.0015
     26  N          0.5380  -24.6860  -19.0530 N.3    94  TRP94      -0.1241
     27  CA        -0.8530  -24.5470  -19.4440 C.3    94  TRP94       0.1605
     28  C         -1.3820  -25.7240  -20.2830 C.2    94  TRP94       0.2264
     29  O         -2.4840  -25.6180  -20.8310 O.2    94  TRP94      -0.2867
     30  CB        -1.0340  -23.2440  -20.2320 C.3    94  TRP94       0.0550
     31  CG        -0.8660  -21.9560  -19.4760 C.ar   94  TRP94       0.0003
     32  CD1        0.2040  -21.1090  -19.5320 C.ar   94  TRP94       0.0946
     33  CD2       -1.8300  -21.3270  -18.6030 C.ar   94  TRP94       0.0152
     34  NE1       -0.0240  -20.0110  -18.7410 N.ar   94  TRP94      -0.2442
     35  CE2       -1.2630  -20.1150  -18.1640 C.ar   94  TRP94       0.0810
     36  CE3       -3.1120  -21.6760  -18.1570 C.ar   94  TRP94       0.0012
     37  CZ2       -1.9260  -19.2480  -17.2820 C.ar   94  TRP94       0.0191
     38  CZ3       -3.7790  -20.8100  -17.2930 C.ar   94  TRP94       0.0001
     39  CH2       -3.1750  -19.6140  -16.8540 C.ar   94  TRP94       0.0015
     40  N         -6.7630  -20.0540  -20.9870 N.3   100  TYR100     -0.1241
     41  CA        -6.4470  -19.3960  -19.7280 C.3   100  TYR100      0.1605
     42  C         -7.6210  -19.4580  -18.7420 C.2   100  TYR100      0.2264
     43  O         -8.1940  -18.4400  -18.3430 O.2   100  TYR100     -0.2867
     44  CB        -5.9860  -17.9540  -19.9890 C.3   100  TYR100      0.0534
     45  CG        -4.7040  -17.9060  -20.8000 C.ar  100  TYR100     -0.0201
     46  CD1       -3.5430  -18.5140  -20.3220 C.ar  100  TYR100     -0.0009
     47  CD2       -4.6540  -17.2840  -22.0460 C.ar  100  TYR100     -0.0009
     48  CE1       -2.3670  -18.4960  -21.0460 C.ar  100  TYR100      0.0417
     49  CE2       -3.4700  -17.2550  -22.7910 C.ar  100  TYR100      0.0417
     50  CZ        -2.3250  -17.8620  -22.2780 C.ar  100  TYR100      0.1957
     51  OH        -1.1290  -17.8530  -22.9830 O.3   100  TYR100     -0.2866
     52  N          2.0980  -20.7040  -11.4980 N.3   240  THR240     -0.1218
     53  CA         0.7060  -20.4130  -11.8430 C.3   240  THR240      0.1862
     54  C          0.1910  -21.3630  -12.9260 C.2   240  THR240      0.2287
     55  O         -0.8350  -22.0400  -12.7480 O.2   240  THR240     -0.2866
     56  CB         0.5950  -18.9580  -12.3120 C.3   240  THR240      0.1770
     57  OG1        0.8790  -18.0820  -11.2140 O.3   240  THR240     -0.2211
     58  CG2       -0.8010  -18.6580  -12.8670 C.3   240  THR240      0.0375
     59  N         -2.8400  -24.5550  -12.9650 N.3   244  TYR244     -0.1241
     60  CA        -4.0900  -24.6060  -13.7140 C.3   244  TYR244      0.1605
     61  C         -4.3030  -25.9800  -14.3160 C.2   244  TYR244      0.2264
     62  O         -5.4330  -26.4820  -14.3440 O.2   244  TYR244     -0.2867
     63  CB        -4.1280  -23.5320  -14.8100 C.3   244  TYR244      0.0534
     64  CG        -4.7090  -22.2350  -14.2980 C.ar  244  TYR244     -0.0201
     65  CD1       -6.0670  -22.0970  -14.1040 C.ar  244  TYR244     -0.0009
     66  CD2       -3.8920  -21.1680  -13.9690 C.ar  244  TYR244     -0.0009
     67  CE1       -6.6030  -20.9220  -13.6120 C.ar  244  TYR244      0.0417
     68  CE2       -4.4150  -19.9760  -13.4780 C.ar  244  TYR244      0.0417
     69  CZ        -5.7720  -19.8640  -13.3040 C.ar  244  TYR244      0.1957
     70  OH        -6.2960  -18.6960  -12.8000 O.3   244  TYR244     -0.2866
     71  N        -11.8650  -22.1480  -13.5300 N.3   270  ASN270     -0.1240
     72  CA       -12.0850  -20.7220  -13.2830 C.3   270  ASN270      0.1653
     73  C        -13.4760  -20.2450  -13.6930 C.2   270  ASN270      0.2266
     74  O        -13.7640  -19.0510  -13.5640 O.2   270  ASN270     -0.2867
     75  CB       -11.0290  -19.8750  -14.0010 C.3   270  ASN270      0.1155
     76  CG        -9.8200  -19.5590  -13.1190 C.2   270  ASN270      0.2627
     77  OD1       -9.6900  -20.0510  -11.9870 O.2   270  ASN270     -0.2716
     78  ND2       -8.9310  -18.7310  -13.6390 N.am  270  ASN270     -0.0877
     79  N         -3.8890  -22.0850   -5.5130 N.3   303  ARG303     -0.1245
     80  CA        -4.9690  -21.9150   -6.4720 C.3   303  ARG303      0.1563
     81  C         -6.2070  -22.6720   -6.0000 C.2   303  ARG303      0.2260
     82  O         -6.1410  -23.5440   -5.1270 O.2   303  ARG303     -0.2867
     83  CB        -4.5690  -22.3810   -7.8800 C.3   303  ARG303      0.0307
     84  CG        -3.2650  -21.8150   -8.3680 C.3   303  ARG303      0.0489
     85  CD        -3.2810  -21.4560   -9.8680 C.3   303  ARG303      0.2205
     86  NE        -4.1370  -20.3050  -10.1760 N.pl3 303  ARG303     -0.0865
     87  CZ        -3.7080  -19.0440  -10.1550 C.cat 303  ARG303      0.5346
     88  NH1       -2.4530  -18.7860   -9.7870 N.pl3 303  ARG303      0.1354
     89  NH2       -4.5370  -18.0490  -10.4740 N.pl3 303  ARG303      0.1354
     90  N         -0.2720   -6.6260  -16.7080 N.3   374  TRP374     -0.1241
     91  CA         0.1700   -7.9150  -17.2480 C.3   374  TRP374      0.1605
     92  C          0.8220   -7.7710  -18.6180 C.2   374  TRP374      0.2264
     93  O          1.9280   -8.3060  -18.8030 O.2   374  TRP374     -0.2867
     94  CB        -0.9860   -8.9270  -17.2640 C.3   374  TRP374      0.0550
     95  CG        -1.5280   -9.3240  -15.9000 C.ar  374  TRP374      0.0003
     96  CD1       -1.4750   -8.5920  -14.7380 C.ar  374  TRP374      0.0946
     97  CD2       -2.2050  -10.5480  -15.5660 C.ar  374  TRP374      0.0152
     98  NE1       -2.0760   -9.2830  -13.7150 N.ar  374  TRP374     -0.2442
     99  CE2       -2.5290  -10.4870  -14.1960 C.ar  374  TRP374      0.0810
    100  CE3       -2.5660  -11.6880  -16.2960 C.ar  374  TRP374      0.0012
    101  CZ2       -3.1970  -11.5190  -13.5430 C.ar  374  TRP374      0.0191
    102  CZ3       -3.2220  -12.7180  -15.6460 C.ar  374  TRP374      0.0001
    103  CH2       -3.5310  -12.6290  -14.2800 C.ar  374  TRP374      0.0015
    104  N          1.8210  -12.7610  -15.2710 N.3   380  TYR380     -0.1241
    105  CA         0.6020  -12.7450  -14.4720 C.3   380  TYR380      0.1605
    106  C          0.8650  -12.0940  -13.1220 C.2   380  TYR380      0.2264
    107  O          0.1230  -12.3290  -12.1560 O.2   380  TYR380     -0.2867
    108  CB         0.0590  -14.1650  -14.2990 C.3   380  TYR380      0.0534
    109  CG         0.3010  -15.0380  -15.5250 C.ar  380  TYR380     -0.0201
    110  CD1       -0.0320  -14.5950  -16.8110 C.ar  380  TYR380     -0.0009
    111  CD2        0.8750  -16.2980  -15.3960 C.ar  380  TYR380     -0.0009
    112  CE1        0.2030  -15.3870  -17.9250 C.ar  380  TYR380      0.0417
    113  CE2        1.1000  -17.0920  -16.4950 C.ar  380  TYR380      0.0417
    114  CZ         0.7720  -16.6350  -17.7470 C.ar  380  TYR380      0.1957
    115  OH         1.0300  -17.4470  -18.8110 O.3   380  TYR380     -0.2866
@<TRIPOS>BOND
     1    12    13    1
     2    14    15    2
     3    14    13    1
     4    13    16    1
     5    51    50    1
     6    49    50   ar
     7    49    47   ar
     8    50    48   ar
     9    16    17    1
    10    47    45   ar
    11    18    17   ar
    12    18    20   ar
    13    17    19   ar
    14    20    21   ar
    15    48    46   ar
    16    40    41    1
    17     4     3    2
    18    19    21   ar
    19    19    22   ar
    20    29    28    2
    21    45    46   ar
    22    45    44    1
    23    21    23   ar
    24    22    24   ar
    25    28    27    1
    26    30    31    1
    27    30    27    1
    28    23    25   ar
    29    44    41    1
    30    24    25   ar
    31     3     2    1
    32    41    42    1
    33    32    31   ar
    34    32    34   ar
    35    31    33   ar
    36    27    26    1
    37   115   114    1
    38    93    92    2
    39    42    43    2
    40    34    35   ar
    41    92    91    1
    42     2     5    1
    43     2     1    1
    44    33    35   ar
    45    33    36   ar
    46     5     6    1
    47    35    37   ar
    48    36    38   ar
    49   112   114   ar
    50   112   110   ar
    51   114   113   ar
    52     7     6   ar
    53     7     9   ar
    54    38    39   ar
    55    37    39   ar
    56    94    91    1
    57    94    95    1
    58    91    90    1
    59     6     8   ar
    60   110   109   ar
    61     9    11   ar
    62   113   111   ar
    63   100   102   ar
    64   100    97   ar
    65     8    10   ar
    66    95    97   ar
    67    95    96   ar
    68   102   103   ar
    69    97    99   ar
    70   109   111   ar
    71   109   108    1
    72    11    10   ar
    73   104   105    1
    74    63    64    1
    75    63    60    1
    76    96    98   ar
    77   105   108    1
    78   105   106    1
    79    62    61    2
    80    61    60    1
    81    64    65   ar
    82    64    66   ar
    83   103   101   ar
    84    99    98   ar
    85    99   101   ar
    86    65    67   ar
    87    75    72    1
    88    75    76    1
    89    66    68   ar
    90    60    59    1
    91    73    74    2
    92    73    72    1
    93    78    76   am
    94    67    69   ar
    95    71    72    1
    96    68    69   ar
    97    69    70    1
    98   106   107    2
    99    76    77    2
   100    54    55    2
   101    54    53    1
   102    58    56    1
   103    56    53    1
   104    56    57    1
   105    53    52    1
   106    89    87    1
   107    86    87    2
   108    86    85    1
   109    87    88    1
   110    85    84    1
   111    84    83    1
   112    83    80    1
   113    80    81    1
   114    80    79    1
   115    81    82    2
