@<TRIPOS>MOLECULE
tmp/5m8xA00.pdb
 134 135 0 0 0
SMALL
GASTEIGER

@<TRIPOS>ATOM
      1  N        -10.8370   -9.9550  -17.4690 N.3    38  PHE38      -0.1241
      2  CA       -10.3550  -10.7670  -18.5900 C.3    38  PHE38       0.1605
      3  C        -11.2740  -10.6930  -19.7990 C.2    38  PHE38       0.2264
      4  O        -10.8140  -10.8230  -20.9420 O.2    38  PHE38      -0.2867
      5  CB       -10.2460  -12.2340  -18.1760 C.3    38  PHE38       0.0534
      6  CG        -9.1470  -12.5310  -17.1930 C.ar   38  PHE38      -0.0203
      7  CD1       -7.8910  -11.9590  -17.3290 C.ar   38  PHE38      -0.0042
      8  CD2       -9.3670  -13.4290  -16.1520 C.ar   38  PHE38      -0.0042
      9  CE1       -6.8710  -12.2620  -16.4370 C.ar   38  PHE38      -0.0003
     10  CE2       -8.3540  -13.7400  -15.2410 C.ar   38  PHE38      -0.0003
     11  CZ        -7.1020  -13.1490  -15.3800 C.ar   38  PHE38      -0.0000
     12  N         -5.6470   -8.2290  -24.5560 N.3    56  TRP56      -0.1227
     13  CA        -4.5710   -8.0430  -23.5860 C.3    56  TRP56       0.1737
     14  C         -3.5500   -9.1780  -23.6390 C.2    56  TRP56       0.2595
     15  O         -2.3380   -8.9370  -23.5530 O.2    56  TRP56      -0.2718
     16  CB        -5.1700   -7.8950  -22.1790 C.3    56  TRP56       0.0564
     17  CG        -5.7550   -9.1780  -21.6620 C.ar   56  TRP56       0.0003
     18  CD1       -7.0440   -9.6050  -21.7920 C.ar   56  TRP56       0.0946
     19  CD2       -5.0610  -10.2080  -20.9680 C.ar   56  TRP56       0.0152
     20  NE1       -7.1930  -10.8390  -21.2140 N.ar   56  TRP56      -0.2442
     21  CE2       -5.9880  -11.2320  -20.7020 C.ar   56  TRP56       0.0810
     22  CE3       -3.7390  -10.3660  -20.5400 C.ar   56  TRP56       0.0012
     23  CZ2       -5.6400  -12.3900  -20.0300 C.ar   56  TRP56       0.0191
     24  CZ3       -3.3970  -11.5220  -19.8770 C.ar   56  TRP56       0.0001
     25  CH2       -4.3410  -12.5150  -19.6270 C.ar   56  TRP56       0.0015
     26  N         -4.0100  -10.4260  -23.8120 N.am   57  PHE57      -0.1976
     27  CA        -3.0590  -11.5310  -23.7730 C.3    57  PHE57       0.1639
     28  C         -2.1540  -11.5450  -25.0030 C.2    57  PHE57       0.2290
     29  O         -1.0240  -12.0420  -24.9290 O.2    57  PHE57      -0.2864
     30  CB        -3.7910  -12.8700  -23.5960 C.3    57  PHE57       0.0560
     31  CG        -4.7980  -13.1690  -24.6770 C.ar   57  PHE57      -0.0200
     32  CD1       -4.4170  -13.7970  -25.8500 C.ar   57  PHE57      -0.0042
     33  CD2       -6.1260  -12.8160  -24.5170 C.ar   57  PHE57      -0.0042
     34  CE1       -5.3480  -14.0750  -26.8420 C.ar   57  PHE57      -0.0003
     35  CE2       -7.0560  -13.0870  -25.5070 C.ar   57  PHE57      -0.0003
     36  CZ        -6.6630  -13.7090  -26.6690 C.ar   57  PHE57      -0.0000
     37  N          0.3730  -24.9360  -19.0320 N.3    96  TRP96      -0.1241
     38  CA        -1.0250  -24.7750  -19.4240 C.3    96  TRP96       0.1605
     39  C         -1.5760  -25.9350  -20.2690 C.2    96  TRP96       0.2264
     40  O         -2.6860  -25.8050  -20.7930 O.2    96  TRP96      -0.2867
     41  CB        -1.1970  -23.4770  -20.2250 C.3    96  TRP96       0.0550
     42  CG        -1.0160  -22.1660  -19.4560 C.ar   96  TRP96       0.0003
     43  CD1        0.0630  -21.3170  -19.5230 C.ar   96  TRP96       0.0946
     44  CD2       -1.9680  -21.5350  -18.5790 C.ar   96  TRP96       0.0152
     45  NE1       -0.1510  -20.2100  -18.7210 N.ar   96  TRP96      -0.2442
     46  CE2       -1.3850  -20.3230  -18.1290 C.ar   96  TRP96       0.0810
     47  CE3       -3.2560  -21.8780  -18.1290 C.ar   96  TRP96       0.0012
     48  CZ2       -2.0420  -19.4530  -17.2460 C.ar   96  TRP96       0.0191
     49  CZ3       -3.9120  -21.0110  -17.2530 C.ar   96  TRP96       0.0001
     50  CH2       -3.2990  -19.8090  -16.8230 C.ar   96  TRP96       0.0015
     51  N         -7.8330  -22.0280  -23.0530 N.3   101  ASN101     -0.1225
     52  CA        -7.9950  -20.5750  -23.1490 C.3   101  ASN101      0.1785
     53  C         -7.9100  -19.8880  -21.7870 C.2   101  ASN101      0.2597
     54  O         -8.6910  -18.9910  -21.4670 O.2   101  ASN101     -0.2718
     55  CB        -9.3040  -20.2150  -23.8690 C.3   101  ASN101      0.1169
     56  CG        -9.2790  -20.6350  -25.3370 C.2   101  ASN101      0.2627
     57  OD1       -8.2280  -21.0090  -25.8520 O.2   101  ASN101     -0.2716
     58  ND2      -10.4190  -20.5610  -26.0110 N.am  101  ASN101     -0.0877
     59  N         -6.9360  -20.3070  -20.9830 N.am  102  TYR102     -0.1976
     60  CA        -6.6090  -19.6670  -19.7090 C.3   102  TYR102      0.1639
     61  C         -7.7960  -19.7120  -18.7370 C.2   102  TYR102      0.2290
     62  O         -8.3790  -18.6890  -18.3550 O.2   102  TYR102     -0.2864
     63  CB        -6.1240  -18.2300  -19.9230 C.3   102  TYR102      0.0560
     64  CG        -4.8640  -18.1510  -20.7540 C.ar  102  TYR102     -0.0198
     65  CD1       -3.6940  -18.7730  -20.3300 C.ar  102  TYR102     -0.0009
     66  CD2       -4.8480  -17.4780  -21.9680 C.ar  102  TYR102     -0.0009
     67  CE1       -2.5430  -18.7260  -21.0740 C.ar  102  TYR102      0.0417
     68  CE2       -3.6860  -17.4200  -22.7370 C.ar  102  TYR102      0.0417
     69  CZ        -2.5360  -18.0420  -22.2800 C.ar  102  TYR102      0.1957
     70  OH        -1.3680  -18.0060  -23.0200 O.3   102  TYR102     -0.2866
     71  N          1.9580  -20.8310  -11.5720 N.3   242  THR242     -0.1218
     72  CA         0.5520  -20.5630  -11.8770 C.3   242  THR242      0.1862
     73  C          0.0300  -21.5280  -12.9370 C.2   242  THR242      0.2287
     74  O         -0.9980  -22.1990  -12.7480 O.2   242  THR242     -0.2866
     75  CB         0.3990  -19.1070  -12.3560 C.3   242  THR242      0.1770
     76  OG1        0.7080  -18.2130  -11.2800 O.3   242  THR242     -0.2211
     77  CG2       -1.0400  -18.8210  -12.8280 C.3   242  THR242      0.0375
     78  N         -2.9750  -24.7030  -12.9640 N.3   246  TYR246     -0.1241
     79  CA        -4.2140  -24.7640  -13.7360 C.3   246  TYR246      0.1605
     80  C         -4.4170  -26.1440  -14.3400 C.2   246  TYR246      0.2264
     81  O         -5.5480  -26.6410  -14.4040 O.2   246  TYR246     -0.2867
     82  CB        -4.2310  -23.6980  -14.8400 C.3   246  TYR246      0.0534
     83  CG        -4.8040  -22.4170  -14.3340 C.ar  246  TYR246     -0.0201
     84  CD1       -6.1760  -22.2760  -14.1630 C.ar  246  TYR246     -0.0009
     85  CD2       -3.9810  -21.3550  -13.9960 C.ar  246  TYR246     -0.0009
     86  CE1       -6.7080  -21.1000  -13.6690 C.ar  246  TYR246      0.0417
     87  CE2       -4.5070  -20.1660  -13.5020 C.ar  246  TYR246      0.0417
     88  CZ        -5.8670  -20.0490  -13.3430 C.ar  246  TYR246      0.1957
     89  OH        -6.3990  -18.8780  -12.8540 O.3   246  TYR246     -0.2866
     90  N        -12.0100  -22.2820  -13.4840 N.3   272  ASN272     -0.1240
     91  CA       -12.2860  -20.8570  -13.2730 C.3   272  ASN272      0.1653
     92  C        -13.6800  -20.4250  -13.7150 C.2   272  ASN272      0.2266
     93  O        -14.0040  -19.2370  -13.5790 O.2   272  ASN272     -0.2867
     94  CB       -11.2540  -19.9780  -13.9930 C.3   272  ASN272      0.1155
     95  CG       -10.0030  -19.7270  -13.1580 C.2   272  ASN272      0.2627
     96  OD1       -9.8070  -20.3320  -12.1060 O.2   272  ASN272     -0.2716
     97  ND2       -9.1400  -18.8540  -13.6460 N.am  272  ASN272     -0.0877
     98  N         -4.0220  -22.2420   -5.5790 N.3   305  ARG305     -0.1245
     99  CA        -5.1270  -22.1200   -6.5180 C.3   305  ARG305      0.1563
    100  C         -6.3500  -22.8720   -6.0140 C.2   305  ARG305      0.2260
    101  O         -6.2630  -23.7590   -5.1570 O.2   305  ARG305     -0.2867
    102  CB        -4.7310  -22.6350   -7.9070 C.3   305  ARG305      0.0307
    103  CG        -3.4670  -21.9620   -8.4220 C.3   305  ARG305      0.0489
    104  CD        -3.5330  -21.7120   -9.9350 C.3   305  ARG305      0.2205
    105  NE        -4.3030  -20.5140  -10.3050 N.pl3 305  ARG305     -0.0865
    106  CZ        -3.8590  -19.2600  -10.1900 C.cat 305  ARG305      0.5346
    107  NH1       -2.6560  -19.0050   -9.6680 N.pl3 305  ARG305      0.1354
    108  NH2       -4.6260  -18.2470  -10.5880 N.pl3 305  ARG305      0.1354
    109  N         -0.4310   -6.6850  -16.6370 N.3   376  TRP376     -0.1241
    110  CA        -0.0010   -7.9770  -17.1730 C.3   376  TRP376      0.1605
    111  C          0.6730   -7.8370  -18.5340 C.2   376  TRP376      0.2264
    112  O          1.7710   -8.3970  -18.7070 O.2   376  TRP376     -0.2867
    113  CB        -1.1800   -8.9610  -17.2000 C.3   376  TRP376      0.0550
    114  CG        -1.6620   -9.3590  -15.8180 C.ar  376  TRP376      0.0003
    115  CD1       -1.5350   -8.6410  -14.6530 C.ar  376  TRP376      0.0946
    116  CD2       -2.3250  -10.5740  -15.4670 C.ar  376  TRP376      0.0152
    117  NE1       -2.0990   -9.3340  -13.6070 N.ar  376  TRP376     -0.2442
    118  CE2       -2.5970  -10.5210  -14.0860 C.ar  376  TRP376      0.0810
    119  CE3       -2.7420  -11.7000  -16.2000 C.ar  376  TRP376      0.0012
    120  CZ2       -3.2430  -11.5590  -13.4100 C.ar  376  TRP376      0.0191
    121  CZ3       -3.3940  -12.7250  -15.5270 C.ar  376  TRP376      0.0001
    122  CH2       -3.6430  -12.6440  -14.1470 C.ar  376  TRP376      0.0015
    123  N          1.6020  -12.9720  -15.3280 N.3   382  TYR382     -0.1241
    124  CA         0.3900  -12.9250  -14.5130 C.3   382  TYR382      0.1605
    125  C          0.6600  -12.2640  -13.1670 C.2   382  TYR382      0.2264
    126  O         -0.0790  -12.5000  -12.2020 O.2   382  TYR382     -0.2867
    127  CB        -0.1880  -14.3320  -14.3100 C.3   382  TYR382      0.0534
    128  CG         0.0440  -15.2150  -15.5210 C.ar  382  TYR382     -0.0201
    129  CD1       -0.2890  -14.7700  -16.7970 C.ar  382  TYR382     -0.0009
    130  CD2        0.6220  -16.4780  -15.3880 C.ar  382  TYR382     -0.0009
    131  CE1       -0.0410  -15.5570  -17.9170 C.ar  382  TYR382      0.0417
    132  CE2        0.8630  -17.2800  -16.5010 C.ar  382  TYR382      0.0417
    133  CZ         0.5280  -16.8050  -17.7560 C.ar  382  TYR382      0.1957
    134  OH         0.7700  -17.5750  -18.8730 O.3   382  TYR382     -0.2866
@<TRIPOS>BOND
     1    34    36   ar
     2    34    32   ar
     3    36    35   ar
     4    58    56   am
     5    57    56    2
     6    32    31   ar
     7    35    33   ar
     8    56    55    1
     9    28    29    2
    10    28    27    1
    11    31    33   ar
    12    31    30    1
    13    12    13    1
    14    55    52    1
    15    26    27    1
    16    26    14   am
    17    27    30    1
    18    14    13    1
    19    14    15    2
    20    13    16    1
    21    52    51    1
    22    52    53    1
    23    70    69    1
    24    68    69   ar
    25    68    66   ar
    26    69    67   ar
    27    16    17    1
    28    66    64   ar
    29    18    17   ar
    30    18    20   ar
    31    53    54    2
    32    53    59   am
    33    17    19   ar
    34    20    21   ar
    35    67    65   ar
    36    59    60    1
    37    19    21   ar
    38    19    22   ar
    39     4     3    2
    40    40    39    2
    41    64    65   ar
    42    64    63    1
    43    21    23   ar
    44    22    24   ar
    45    39    38    1
    46    41    42    1
    47    41    38    1
    48    23    25   ar
    49    63    60    1
    50    24    25   ar
    51     3     2    1
    52    60    61    1
    53    43    42   ar
    54    43    45   ar
    55    42    44   ar
    56    38    37    1
    57   134   133    1
    58    61    62    2
    59    45    46   ar
    60   112   111    2
    61     2     5    1
    62     2     1    1
    63    44    47   ar
    64    44    46   ar
    65   111   110    1
    66     5     6    1
    67    47    49   ar
    68    46    48   ar
    69   131   133   ar
    70   131   129   ar
    71   133   132   ar
    72     7     6   ar
    73     7     9   ar
    74    49    50   ar
    75    48    50   ar
    76   113   110    1
    77   113   114    1
    78     6     8   ar
    79   110   109    1
    80   129   128   ar
    81   132   130   ar
    82     9    11   ar
    83   119   121   ar
    84   119   116   ar
    85     8    10   ar
    86   114   116   ar
    87   114   115   ar
    88   121   122   ar
    89   128   130   ar
    90   128   127    1
    91   116   118   ar
    92    11    10   ar
    93   123   124    1
    94    82    83    1
    95    82    79    1
    96   115   117   ar
    97   124   127    1
    98   124   125    1
    99    81    80    2
   100    80    79    1
   101    83    84   ar
   102    83    85   ar
   103    84    86   ar
   104   122   120   ar
   105   118   117   ar
   106   118   120   ar
   107    85    87   ar
   108    94    91    1
   109    94    95    1
   110    79    78    1
   111    92    93    2
   112    92    91    1
   113    86    88   ar
   114    97    95   am
   115    87    88   ar
   116    90    91    1
   117    88    89    1
   118   125   126    2
   119    95    96    2
   120    73    74    2
   121    73    72    1
   122    77    75    1
   123    75    72    1
   124    75    76    1
   125    72    71    1
   126   108   106    1
   127   105   106    2
   128   105   104    1
   129   106   107    1
   130   104   103    1
   131   103   102    1
   132   102    99    1
   133    99   100    1
   134    99    98    1
   135   100   101    2
