@<TRIPOS>MOLECULE
tmp/5m8yA01.pdb
 115 115 0 0 0
SMALL
GASTEIGER

@<TRIPOS>ATOM
      1  N        -10.8610  -10.0050  -17.5210 N.3    36  PHE36      -0.1241
      2  CA       -10.3760  -10.8220  -18.6310 C.3    36  PHE36       0.1605
      3  C        -11.2950  -10.7480  -19.8420 C.2    36  PHE36       0.2264
      4  O        -10.8390  -10.9140  -20.9780 O.2    36  PHE36      -0.2867
      5  CB       -10.2740  -12.2830  -18.2060 C.3    36  PHE36       0.0534
      6  CG        -9.1480  -12.5910  -17.2530 C.ar   36  PHE36      -0.0203
      7  CD1       -7.8800  -12.0620  -17.4390 C.ar   36  PHE36      -0.0042
      8  CD2       -9.3610  -13.4650  -16.1910 C.ar   36  PHE36      -0.0042
      9  CE1       -6.8420  -12.3790  -16.5690 C.ar   36  PHE36      -0.0003
     10  CE2       -8.3270  -13.7970  -15.3140 C.ar   36  PHE36      -0.0003
     11  CZ        -7.0670  -13.2500  -15.5060 C.ar   36  PHE36      -0.0000
     12  N         -5.6090   -8.3470  -24.4740 N.3    54  TRP54      -0.1241
     13  CA        -4.5470   -8.1990  -23.4840 C.3    54  TRP54       0.1605
     14  C         -3.5090   -9.3140  -23.5840 C.2    54  TRP54       0.2264
     15  O         -2.3040   -9.0520  -23.4940 O.2    54  TRP54      -0.2867
     16  CB        -5.1510   -8.1340  -22.0770 C.3    54  TRP54       0.0550
     17  CG        -5.7180   -9.4450  -21.6170 C.ar   54  TRP54       0.0003
     18  CD1       -6.9960   -9.8880  -21.7810 C.ar   54  TRP54       0.0946
     19  CD2       -5.0140  -10.4890  -20.9410 C.ar   54  TRP54       0.0152
     20  NE1       -7.1360  -11.1400  -21.2350 N.ar   54  TRP54      -0.2442
     21  CE2       -5.9300  -11.5330  -20.7170 C.ar   54  TRP54       0.0810
     22  CE3       -3.6970  -10.6390  -20.4960 C.ar   54  TRP54       0.0012
     23  CZ2       -5.5710  -12.7110  -20.0780 C.ar   54  TRP54       0.0191
     24  CZ3       -3.3430  -11.8100  -19.8640 C.ar   54  TRP54       0.0001
     25  CH2       -4.2720  -12.8270  -19.6620 C.ar   54  TRP54       0.0015
     26  N          0.3310  -24.8960  -18.9940 N.3    94  TRP94      -0.1241
     27  CA        -1.0600  -24.7290  -19.4070 C.3    94  TRP94       0.1605
     28  C         -1.6020  -25.8790  -20.2640 C.2    94  TRP94       0.2264
     29  O         -2.6990  -25.7290  -20.8170 O.2    94  TRP94      -0.2867
     30  CB        -1.2180  -23.4280  -20.2050 C.3    94  TRP94       0.0550
     31  CG        -1.0230  -22.1220  -19.4440 C.ar   94  TRP94       0.0003
     32  CD1        0.0640  -21.2790  -19.5190 C.ar   94  TRP94       0.0946
     33  CD2       -1.9600  -21.4920  -18.5550 C.ar   94  TRP94       0.0152
     34  NE1       -0.1420  -20.1720  -18.7160 N.ar   94  TRP94      -0.2442
     35  CE2       -1.3700  -20.2830  -18.1100 C.ar   94  TRP94       0.0810
     36  CE3       -3.2420  -21.8360  -18.0880 C.ar   94  TRP94       0.0012
     37  CZ2       -2.0210  -19.4070  -17.2250 C.ar   94  TRP94       0.0191
     38  CZ3       -3.8850  -20.9670  -17.2050 C.ar   94  TRP94       0.0001
     39  CH2       -3.2700  -19.7690  -16.7820 C.ar   94  TRP94       0.0015
     40  N         -6.9380  -20.1340  -20.9410 N.3   100  TYR100     -0.1241
     41  CA        -6.6020  -19.4900  -19.6720 C.3   100  TYR100      0.1605
     42  C         -7.7780  -19.5270  -18.6880 C.2   100  TYR100      0.2264
     43  O         -8.3340  -18.4980  -18.2880 O.2   100  TYR100     -0.2867
     44  CB        -6.1120  -18.0550  -19.9090 C.3   100  TYR100      0.0534
     45  CG        -4.8470  -18.0060  -20.7230 C.ar  100  TYR100     -0.0201
     46  CD1       -3.6970  -18.6440  -20.2790 C.ar  100  TYR100     -0.0009
     47  CD2       -4.8010  -17.3360  -21.9370 C.ar  100  TYR100     -0.0009
     48  CE1       -2.5320  -18.6190  -21.0070 C.ar  100  TYR100      0.0417
     49  CE2       -3.6310  -17.2940  -22.6820 C.ar  100  TYR100      0.0417
     50  CZ        -2.4980  -17.9330  -22.2080 C.ar  100  TYR100      0.1957
     51  OH        -1.3280  -17.9100  -22.9440 O.3   100  TYR100     -0.2866
     52  N          1.9110  -20.8180  -11.5260 N.3   240  THR240     -0.1218
     53  CA         0.5110  -20.5440  -11.8510 C.3   240  THR240      0.1862
     54  C         -0.0010  -21.5160  -12.9110 C.2   240  THR240      0.2287
     55  O         -1.0220  -22.1940  -12.7240 O.2   240  THR240     -0.2866
     56  CB         0.3750  -19.1000  -12.3500 C.3   240  THR240      0.1770
     57  OG1        0.6840  -18.1980  -11.2870 O.3   240  THR240     -0.2211
     58  CG2       -1.0540  -18.7940  -12.8540 C.3   240  THR240      0.0375
     59  N         -2.9780  -24.6770  -12.9460 N.3   244  TYR244     -0.1241
     60  CA        -4.2190  -24.7200  -13.7190 C.3   244  TYR244      0.1605
     61  C         -4.4270  -26.0870  -14.3550 C.2   244  TYR244      0.2264
     62  O         -5.5570  -26.5870  -14.4140 O.2   244  TYR244     -0.2867
     63  CB        -4.2360  -23.6260  -14.7950 C.3   244  TYR244      0.0534
     64  CG        -4.8300  -22.3480  -14.2700 C.ar  244  TYR244     -0.0201
     65  CD1       -6.2050  -22.2200  -14.1120 C.ar  244  TYR244     -0.0009
     66  CD2       -4.0220  -21.2820  -13.9090 C.ar  244  TYR244     -0.0009
     67  CE1       -6.7550  -21.0630  -13.6180 C.ar  244  TYR244      0.0417
     68  CE2       -4.5700  -20.0970  -13.4050 C.ar  244  TYR244      0.0417
     69  CZ        -5.9380  -19.9990  -13.2670 C.ar  244  TYR244      0.1957
     70  OH        -6.5050  -18.8490  -12.7640 O.3   244  TYR244     -0.2866
     71  N        -12.0460  -22.2650  -13.4810 N.3   270  ASN270     -0.1240
     72  CA       -12.3180  -20.8410  -13.2640 C.3   270  ASN270      0.1653
     73  C        -13.7120  -20.4060  -13.7000 C.2   270  ASN270      0.2266
     74  O        -14.0340  -19.2150  -13.5730 O.2   270  ASN270     -0.2867
     75  CB       -11.2890  -19.9660  -13.9860 C.3   270  ASN270      0.1155
     76  CG       -10.0400  -19.7250  -13.1490 C.2   270  ASN270      0.2627
     77  OD1       -9.8470  -20.3370  -12.0950 O.2   270  ASN270     -0.2716
     78  ND2       -9.1870  -18.8390  -13.6240 N.am  270  ASN270     -0.0877
     79  N         -4.0610  -22.2080   -5.5620 N.3   303  ARG303     -0.1245
     80  CA        -5.1590  -22.0680   -6.5070 C.3   303  ARG303      0.1563
     81  C         -6.3890  -22.8290   -6.0200 C.2   303  ARG303      0.2260
     82  O         -6.3000  -23.7300   -5.1830 O.2   303  ARG303     -0.2867
     83  CB        -4.7500  -22.5580   -7.8970 C.3   303  ARG303      0.0307
     84  CG        -3.4620  -21.9040   -8.3980 C.3   303  ARG303      0.0489
     85  CD        -3.5210  -21.6510   -9.9060 C.3   303  ARG303      0.2205
     86  NE        -4.3200  -20.4780  -10.2760 N.pl3 303  ARG303     -0.0865
     87  CZ        -3.9030  -19.2180  -10.1500 C.cat 303  ARG303      0.5346
     88  NH1       -2.7070  -18.9480   -9.6290 N.pl3 303  ARG303      0.1354
     89  NH2       -4.6820  -18.2190  -10.5420 N.pl3 303  ARG303      0.1354
     90  N         -0.3970   -6.6920  -16.6530 N.3   374  TRP374     -0.1241
     91  CA         0.0480   -7.9840  -17.1770 C.3   374  TRP374      0.1605
     92  C          0.7440   -7.8530  -18.5280 C.2   374  TRP374      0.2264
     93  O          1.8570   -8.3890  -18.6740 O.2   374  TRP374     -0.2867
     94  CB        -1.1250   -8.9710  -17.2080 C.3   374  TRP374      0.0550
     95  CG        -1.6220   -9.3690  -15.8310 C.ar  374  TRP374      0.0003
     96  CD1       -1.4980   -8.6610  -14.6580 C.ar  374  TRP374      0.0946
     97  CD2       -2.2980  -10.5800  -15.4930 C.ar  374  TRP374      0.0152
     98  NE1       -2.0780   -9.3590  -13.6210 N.ar  374  TRP374     -0.2442
     99  CE2       -2.5810  -10.5360  -14.1130 C.ar  374  TRP374      0.0810
    100  CE3       -2.7180  -11.6900  -16.2340 C.ar  374  TRP374      0.0012
    101  CZ2       -3.2400  -11.5770  -13.4510 C.ar  374  TRP374      0.0191
    102  CZ3       -3.3750  -12.7180  -15.5760 C.ar  374  TRP374      0.0001
    103  CH2       -3.6400  -12.6470  -14.2030 C.ar  374  TRP374      0.0015
    104  N          1.6920  -12.9110  -15.2840 N.3   380  TYR380     -0.1241
    105  CA         0.4690  -12.8600  -14.4910 C.3   380  TYR380      0.1605
    106  C          0.7250  -12.2090  -13.1420 C.2   380  TYR380      0.2264
    107  O         -0.0110  -12.4590  -12.1800 O.2   380  TYR380     -0.2867
    108  CB        -0.1160  -14.2620  -14.3100 C.3   380  TYR380      0.0534
    109  CG         0.1410  -15.1430  -15.5090 C.ar  380  TYR380     -0.0201
    110  CD1       -0.1460  -14.6990  -16.7990 C.ar  380  TYR380     -0.0009
    111  CD2        0.6640  -16.4240  -15.3500 C.ar  380  TYR380     -0.0009
    112  CE1        0.1050  -15.5020  -17.9020 C.ar  380  TYR380      0.0417
    113  CE2        0.9100  -17.2350  -16.4410 C.ar  380  TYR380      0.0417
    114  CZ         0.6280  -16.7630  -17.7120 C.ar  380  TYR380      0.1957
    115  OH         0.8950  -17.5580  -18.7980 O.3   380  TYR380     -0.2866
@<TRIPOS>BOND
     1    12    13    1
     2    14    15    2
     3    14    13    1
     4    13    16    1
     5    51    50    1
     6    49    50   ar
     7    49    47   ar
     8    50    48   ar
     9    16    17    1
    10    47    45   ar
    11    18    17   ar
    12    18    20   ar
    13    17    19   ar
    14    20    21   ar
    15    48    46   ar
    16     4     3    2
    17    40    41    1
    18    19    21   ar
    19    19    22   ar
    20    29    28    2
    21    45    46   ar
    22    45    44    1
    23    21    23   ar
    24    22    24   ar
    25    28    27    1
    26    30    31    1
    27    30    27    1
    28    23    25   ar
    29    44    41    1
    30    24    25   ar
    31     3     2    1
    32    41    42    1
    33    32    31   ar
    34    32    34   ar
    35    31    33   ar
    36    27    26    1
    37   115   114    1
    38    34    35   ar
    39    42    43    2
    40    93    92    2
    41     2     5    1
    42     2     1    1
    43    33    35   ar
    44    33    36   ar
    45    92    91    1
    46     5     6    1
    47    35    37   ar
    48    36    38   ar
    49   112   114   ar
    50   112   110   ar
    51   114   113   ar
    52     7     6   ar
    53     7     9   ar
    54     6     8   ar
    55    37    39   ar
    56    94    91    1
    57    94    95    1
    58    38    39   ar
    59    91    90    1
    60   110   109   ar
    61     9    11   ar
    62   113   111   ar
    63   100   102   ar
    64   100    97   ar
    65     8    10   ar
    66    95    97   ar
    67    95    96   ar
    68   102   103   ar
    69   109   111   ar
    70   109   108    1
    71    11    10   ar
    72    97    99   ar
    73   104   105    1
    74    63    64    1
    75    63    60    1
    76    96    98   ar
    77   105   108    1
    78   105   106    1
    79    62    61    2
    80    61    60    1
    81    64    65   ar
    82    64    66   ar
    83   103   101   ar
    84    99    98   ar
    85    99   101   ar
    86    65    67   ar
    87    75    72    1
    88    75    76    1
    89    66    68   ar
    90    60    59    1
    91    73    74    2
    92    73    72    1
    93    78    76   am
    94    67    69   ar
    95    71    72    1
    96    68    69   ar
    97    69    70    1
    98    76    77    2
    99   106   107    2
   100    54    55    2
   101    54    53    1
   102    58    56    1
   103    56    53    1
   104    56    57    1
   105    53    52    1
   106    89    87    1
   107    86    87    2
   108    86    85    1
   109    87    88    1
   110    85    84    1
   111    84    83    1
   112    83    80    1
   113    80    81    1
   114    80    79    1
   115    81    82    2
