@<TRIPOS>MOLECULE
tmp/5m8zA01.pdb
 115 115 0 0 0
SMALL
GASTEIGER

@<TRIPOS>ATOM
      1  N        -10.8070  -10.0160  -17.5450 N.3    38  PHE38      -0.1241
      2  CA       -10.3090  -10.8350  -18.6440 C.3    38  PHE38       0.1605
      3  C        -11.2130  -10.7810  -19.8670 C.2    38  PHE38       0.2264
      4  O        -10.7470  -10.9940  -20.9940 O.2    38  PHE38      -0.2867
      5  CB       -10.1990  -12.2910  -18.2110 C.3    38  PHE38       0.0534
      6  CG        -9.0530  -12.5900  -17.2710 C.ar   38  PHE38      -0.0203
      7  CD1       -7.7880  -12.0750  -17.4890 C.ar   38  PHE38      -0.0042
      8  CD2       -9.2510  -13.4470  -16.1920 C.ar   38  PHE38      -0.0042
      9  CE1       -6.7250  -12.3980  -16.6330 C.ar   38  PHE38      -0.0003
     10  CE2       -8.2070  -13.7700  -15.3320 C.ar   38  PHE38      -0.0003
     11  CZ        -6.9440  -13.2440  -15.5550 C.ar   38  PHE38      -0.0000
     12  N         -5.5550   -8.5450  -24.4660 N.3    56  TRP56      -0.1241
     13  CA        -4.4990   -8.3520  -23.4810 C.3    56  TRP56       0.1605
     14  C         -3.4260   -9.4340  -23.5740 C.2    56  TRP56       0.2264
     15  O         -2.2300   -9.1370  -23.4520 O.2    56  TRP56      -0.2867
     16  CB        -5.0970   -8.2990  -22.0700 C.3    56  TRP56       0.0550
     17  CG        -5.6580   -9.6190  -21.6260 C.ar   56  TRP56       0.0003
     18  CD1       -6.9220  -10.0710  -21.8110 C.ar   56  TRP56       0.0946
     19  CD2       -4.9460  -10.6680  -20.9570 C.ar   56  TRP56       0.0152
     20  NE1       -7.0540  -11.3350  -21.2860 N.ar   56  TRP56      -0.2442
     21  CE2       -5.8510  -11.7250  -20.7620 C.ar   56  TRP56       0.0810
     22  CE3       -3.6280  -10.8110  -20.5000 C.ar   56  TRP56       0.0012
     23  CZ2       -5.4850  -12.9160  -20.1280 C.ar   56  TRP56       0.0191
     24  CZ3       -3.2650  -11.9970  -19.8750 C.ar   56  TRP56       0.0001
     25  CH2       -4.1890  -13.0260  -19.6990 C.ar   56  TRP56       0.0015
     26  N          0.4570  -24.9150  -19.0350 N.3    96  TRP96      -0.1241
     27  CA        -0.9290  -24.7300  -19.4480 C.3    96  TRP96       0.1605
     28  C         -1.4770  -25.8740  -20.3100 C.2    96  TRP96       0.2264
     29  O         -2.5850  -25.7390  -20.8350 O.2    96  TRP96      -0.2867
     30  CB        -1.0650  -23.4250  -20.2510 C.3    96  TRP96       0.0550
     31  CG        -0.8810  -22.1190  -19.4900 C.ar   96  TRP96       0.0003
     32  CD1        0.2070  -21.2820  -19.5430 C.ar   96  TRP96       0.0946
     33  CD2       -1.8300  -21.4930  -18.6150 C.ar   96  TRP96       0.0152
     34  NE1       -0.0110  -20.1650  -18.7410 N.ar   96  TRP96      -0.2442
     35  CE2       -1.2480  -20.2790  -18.1610 C.ar   96  TRP96       0.0810
     36  CE3       -3.1180  -21.8390  -18.1710 C.ar   96  TRP96       0.0012
     37  CZ2       -1.9080  -19.4120  -17.2940 C.ar   96  TRP96       0.0191
     38  CZ3       -3.7760  -20.9740  -17.3130 C.ar   96  TRP96       0.0001
     39  CH2       -3.1700  -19.7790  -16.8740 C.ar   96  TRP96       0.0015
     40  N         -6.8390  -20.1030  -21.0690 N.3   102  TYR102     -0.1241
     41  CA        -6.5210  -19.4410  -19.8030 C.3   102  TYR102      0.1605
     42  C         -7.6850  -19.5160  -18.8080 C.2   102  TYR102      0.2264
     43  O         -8.2500  -18.4980  -18.3840 O.2   102  TYR102     -0.2867
     44  CB        -6.0780  -17.9930  -20.0430 C.3   102  TYR102      0.0534
     45  CG        -4.7990  -17.9460  -20.8330 C.ar  102  TYR102     -0.0201
     46  CD1       -3.6580  -18.5620  -20.3400 C.ar  102  TYR102     -0.0009
     47  CD2       -4.7370  -17.3310  -22.0810 C.ar  102  TYR102     -0.0009
     48  CE1       -2.4780  -18.5620  -21.0390 C.ar  102  TYR102      0.0417
     49  CE2       -3.5440  -17.3120  -22.8100 C.ar  102  TYR102      0.0417
     50  CZ        -2.4160  -17.9280  -22.2760 C.ar  102  TYR102      0.1957
     51  OH        -1.2110  -17.9650  -22.9620 O.3   102  TYR102     -0.2866
     52  N          2.0330  -20.8050  -11.6050 N.3   242  THR242     -0.1218
     53  CA         0.6280  -20.5340  -11.9030 C.3   242  THR242      0.1862
     54  C          0.1010  -21.4910  -12.9590 C.2   242  THR242      0.2287
     55  O         -0.9440  -22.1460  -12.7770 O.2   242  THR242     -0.2866
     56  CB         0.4730  -19.0880  -12.3830 C.3   242  THR242      0.1770
     57  OG1        0.7750  -18.1960  -11.2940 O.3   242  THR242     -0.2211
     58  CG2       -0.9650  -18.8140  -12.8900 C.3   242  THR242      0.0375
     59  N         -2.8670  -24.6340  -13.0080 N.3   246  TYR246     -0.1241
     60  CA        -4.1140  -24.6870  -13.7660 C.3   246  TYR246      0.1605
     61  C         -4.3200  -26.0690  -14.3730 C.2   246  TYR246      0.2264
     62  O         -5.4490  -26.5610  -14.4240 O.2   246  TYR246     -0.2867
     63  CB        -4.1370  -23.6140  -14.8710 C.3   246  TYR246      0.0534
     64  CG        -4.7180  -22.3260  -14.3460 C.ar  246  TYR246     -0.0201
     65  CD1       -6.0880  -22.2020  -14.1550 C.ar  246  TYR246     -0.0009
     66  CD2       -3.9010  -21.2610  -14.0030 C.ar  246  TYR246     -0.0009
     67  CE1       -6.6370  -21.0390  -13.6440 C.ar  246  TYR246      0.0417
     68  CE2       -4.4440  -20.0700  -13.4870 C.ar  246  TYR246      0.0417
     69  CZ        -5.8110  -19.9820  -13.3110 C.ar  246  TYR246      0.1957
     70  OH        -6.3580  -18.8420  -12.8040 O.3   246  TYR246     -0.2866
     71  N        -11.9500  -22.2270  -13.5340 N.3   272  ASN272     -0.1240
     72  CA       -12.2270  -20.8010  -13.3120 C.3   272  ASN272      0.1653
     73  C        -13.6290  -20.3670  -13.7440 C.2   272  ASN272      0.2266
     74  O        -13.9790  -19.1900  -13.5540 O.2   272  ASN272     -0.2867
     75  CB       -11.1900  -19.9260  -14.0310 C.3   272  ASN272      0.1155
     76  CG        -9.9480  -19.6890  -13.1950 C.2   272  ASN272      0.2627
     77  OD1       -9.7890  -20.2710  -12.1250 O.2   272  ASN272     -0.2716
     78  ND2       -9.0610  -18.8400  -13.6900 N.am  272  ASN272     -0.0877
     79  N         -3.9960  -22.1850   -5.5750 N.3   305  ARG305     -0.1245
     80  CA        -5.0800  -22.0350   -6.5350 C.3   305  ARG305      0.1563
     81  C         -6.3130  -22.7880   -6.0510 C.2   305  ARG305      0.2260
     82  O         -6.2420  -23.6790   -5.1960 O.2   305  ARG305     -0.2867
     83  CB        -4.6700  -22.5410   -7.9290 C.3   305  ARG305      0.0307
     84  CG        -3.3890  -21.8840   -8.4150 C.3   305  ARG305      0.0489
     85  CD        -3.4170  -21.6560   -9.9320 C.3   305  ARG305      0.2205
     86  NE        -4.2100  -20.4790  -10.3070 N.pl3 305  ARG305     -0.0865
     87  CZ        -3.7960  -19.2080  -10.1980 C.cat 305  ARG305      0.5346
     88  NH1       -2.6090  -18.9200   -9.6570 N.pl3 305  ARG305      0.1354
     89  NH2       -4.5850  -18.2160  -10.6250 N.pl3 305  ARG305      0.1354
     90  N         -0.2510   -6.7220  -16.7090 N.3   376  TRP376     -0.1241
     91  CA         0.1990   -8.0120  -17.2320 C.3   376  TRP376      0.1605
     92  C          0.8650   -7.8690  -18.5970 C.2   376  TRP376      0.2264
     93  O          1.9810   -8.3890  -18.7640 O.2   376  TRP376     -0.2867
     94  CB        -0.9580   -9.0160  -17.2330 C.3   376  TRP376      0.0550
     95  CG        -1.4770   -9.3830  -15.8540 C.ar  376  TRP376      0.0003
     96  CD1       -1.3700   -8.6530  -14.6870 C.ar  376  TRP376      0.0946
     97  CD2       -2.1940  -10.5710  -15.5200 C.ar  376  TRP376      0.0152
     98  NE1       -1.9790   -9.3360  -13.6430 N.ar  376  TRP376     -0.2442
     99  CE2       -2.4890  -10.5140  -14.1370 C.ar  376  TRP376      0.0810
    100  CE3       -2.6110  -11.6910  -16.2560 C.ar  376  TRP376      0.0012
    101  CZ2       -3.1950  -11.5310  -13.4820 C.ar  376  TRP376      0.0191
    102  CZ3       -3.3020  -12.7010  -15.5950 C.ar  376  TRP376      0.0001
    103  CH2       -3.5880  -12.6100  -14.2250 C.ar  376  TRP376      0.0015
    104  N          1.8300  -12.8090  -15.3170 N.3   382  TYR382     -0.1241
    105  CA         0.5780  -12.7830  -14.5640 C.3   382  TYR382      0.1605
    106  C          0.8190  -12.1650  -13.1930 C.2   382  TYR382      0.2264
    107  O          0.0820  -12.4400  -12.2390 O.2   382  TYR382     -0.2867
    108  CB        -0.0310  -14.1850  -14.4170 C.3   382  TYR382      0.0534
    109  CG         0.2210  -15.0920  -15.6100 C.ar  382  TYR382     -0.0201
    110  CD1       -0.0040  -14.6390  -16.9050 C.ar  382  TYR382     -0.0009
    111  CD2        0.7050  -16.3910  -15.4390 C.ar  382  TYR382     -0.0009
    112  CE1        0.2610  -15.4540  -17.9930 C.ar  382  TYR382      0.0417
    113  CE2        0.9610  -17.2200  -16.5260 C.ar  382  TYR382      0.0417
    114  CZ         0.7430  -16.7350  -17.7950 C.ar  382  TYR382      0.1957
    115  OH         1.0080  -17.5410  -18.8840 O.3   382  TYR382     -0.2866
@<TRIPOS>BOND
     1    12    13    1
     2    14    13    1
     3    14    15    2
     4    13    16    1
     5    51    50    1
     6    49    50   ar
     7    49    47   ar
     8    50    48   ar
     9    47    45   ar
    10    16    17    1
    11    18    17   ar
    12    18    20   ar
    13    17    19   ar
    14    20    21   ar
    15    40    41    1
    16    48    46   ar
    17     4     3    2
    18    19    21   ar
    19    19    22   ar
    20    29    28    2
    21    45    46   ar
    22    45    44    1
    23    21    23   ar
    24    22    24   ar
    25    28    27    1
    26    30    31    1
    27    30    27    1
    28    23    25   ar
    29    44    41    1
    30    24    25   ar
    31     3     2    1
    32    41    42    1
    33    32    31   ar
    34    32    34   ar
    35    31    33   ar
    36    27    26    1
    37   115   114    1
    38    42    43    2
    39    93    92    2
    40    34    35   ar
    41     2     5    1
    42     2     1    1
    43    33    36   ar
    44    33    35   ar
    45    92    91    1
    46     5     6    1
    47    36    38   ar
    48    35    37   ar
    49   112   114   ar
    50   112   110   ar
    51   114   113   ar
    52     7     6   ar
    53     7     9   ar
    54    38    39   ar
    55    37    39   ar
    56     6     8   ar
    57    94    91    1
    58    94    95    1
    59    91    90    1
    60   110   109   ar
    61     9    11   ar
    62   113   111   ar
    63   100   102   ar
    64   100    97   ar
    65     8    10   ar
    66    95    97   ar
    67    95    96   ar
    68   109   111   ar
    69   109   108    1
    70   102   103   ar
    71    11    10   ar
    72    97    99   ar
    73   104   105    1
    74    63    64    1
    75    63    60    1
    76    96    98   ar
    77   105   108    1
    78   105   106    1
    79    62    61    2
    80    61    60    1
    81    64    65   ar
    82    64    66   ar
    83   103   101   ar
    84    65    67   ar
    85    99    98   ar
    86    99   101   ar
    87    75    72    1
    88    75    76    1
    89    66    68   ar
    90    60    59    1
    91    73    74    2
    92    73    72    1
    93    78    76   am
    94    67    69   ar
    95    71    72    1
    96    68    69   ar
    97    69    70    1
    98    76    77    2
    99   106   107    2
   100    54    55    2
   101    54    53    1
   102    58    56    1
   103    56    53    1
   104    56    57    1
   105    53    52    1
   106    89    87    1
   107    86    87    2
   108    86    85    1
   109    87    88    1
   110    85    84    1
   111    84    83    1
   112    83    80    1
   113    80    81    1
   114    80    79    1
   115    81    82    2
