@<TRIPOS>MOLECULE
tmp/5m90B03.pdb
 126 127 0 0 0
SMALL
GASTEIGER

@<TRIPOS>ATOM
      1  N         -1.3070  -58.7940  -22.4330 N.3    29  PHE29      -0.1241
      2  CA        -2.4790  -57.9270  -22.5600 C.3    29  PHE29       0.1605
      3  C         -3.0960  -57.9850  -23.9490 C.2    29  PHE29       0.2264
      4  O         -4.3140  -57.8260  -24.0890 O.2    29  PHE29      -0.2867
      5  CB        -2.1030  -56.4680  -22.2790 C.3    29  PHE29       0.0534
      6  CG        -1.8570  -56.1540  -20.8350 C.ar   29  PHE29      -0.0203
      7  CD1       -2.6010  -56.7520  -19.8280 C.ar   29  PHE29      -0.0042
      8  CD2       -0.8810  -55.2250  -20.4890 C.ar   29  PHE29      -0.0042
      9  CE1       -2.3630  -56.4250  -18.4910 C.ar   29  PHE29      -0.0003
     10  CE2       -0.6340  -54.9020  -19.1630 C.ar   29  PHE29      -0.0003
     11  CZ        -1.3760  -55.4970  -18.1620 C.ar   29  PHE29      -0.0000
     12  N        -10.2080  -60.3950  -21.8360 N.3    47  TRP47      -0.1227
     13  CA        -9.9420  -60.6370  -20.4190 C.3    47  TRP47       0.1737
     14  C        -10.4260  -59.4860  -19.5380 C.2    47  TRP47       0.2595
     15  O        -10.9010  -59.7150  -18.4150 O.2    47  TRP47      -0.2718
     16  CB        -8.4480  -60.8870  -20.2000 C.3    47  TRP47       0.0564
     17  CG        -7.6080  -59.6990  -20.4710 C.ar   47  TRP47       0.0003
     18  CD1       -7.0200  -59.3590  -21.6640 C.ar   47  TRP47       0.0946
     19  CD2       -7.2640  -58.6640  -19.5450 C.ar   47  TRP47       0.0152
     20  NE1       -6.3300  -58.1780  -21.5280 N.ar   47  TRP47      -0.2442
     21  CE2       -6.4640  -57.7320  -20.2360 C.ar   47  TRP47       0.0810
     22  CE3       -7.5580  -58.4340  -18.1970 C.ar   47  TRP47       0.0012
     23  CZ2       -5.9550  -56.5880  -19.6260 C.ar   47  TRP47       0.0191
     24  CZ3       -7.0460  -57.2940  -17.5910 C.ar   47  TRP47       0.0001
     25  CH2       -6.2540  -56.3890  -18.3060 C.ar   47  TRP47       0.0015
     26  N        -10.3220  -58.2450  -20.0130 N.am   48  PHE48      -0.1976
     27  CA       -10.7230  -57.1440  -19.1440 C.3    48  PHE48       0.1639
     28  C        -12.2380  -57.0180  -19.0300 C.2    48  PHE48       0.2290
     29  O        -12.7250  -56.4470  -18.0470 O.2    48  PHE48      -0.2864
     30  CB       -10.0880  -55.8130  -19.6110 C.3    48  PHE48       0.0560
     31  CG       -10.4210  -55.4340  -21.0250 C.ar   48  PHE48      -0.0200
     32  CD1      -11.5560  -54.6940  -21.3070 C.ar   48  PHE48      -0.0042
     33  CD2       -9.5870  -55.8030  -22.0670 C.ar   48  PHE48      -0.0042
     34  CE1      -11.8620  -54.3420  -22.6130 C.ar   48  PHE48      -0.0003
     35  CE2       -9.8910  -55.4570  -23.3710 C.ar   48  PHE48      -0.0003
     36  CZ       -11.0320  -54.7270  -23.6360 C.ar   48  PHE48      -0.0000
     37  N         -8.4310  -43.6880  -13.9090 N.3    87  TRP87      -0.1241
     38  CA        -8.0830  -43.8750  -15.3120 C.3    87  TRP87       0.1605
     39  C         -8.5380  -42.7310  -16.2310 C.2    87  TRP87       0.2264
     40  O         -8.4230  -42.8920  -17.4500 O.2    87  TRP87      -0.2867
     41  CB        -8.7170  -45.1700  -15.8410 C.3    87  TRP87       0.0550
     42  CG        -8.1520  -46.4650  -15.3040 C.ar   87  TRP87       0.0003
     43  CD1       -8.7460  -47.2980  -14.4010 C.ar   87  TRP87       0.0946
     44  CD2       -6.9000  -47.0740  -15.6460 C.ar   87  TRP87       0.0152
     45  NE1       -7.9440  -48.3980  -14.1640 N.ar   87  TRP87      -0.2442
     46  CE2       -6.8100  -48.2870  -14.9220 C.ar   87  TRP87       0.0810
     47  CE3       -5.8520  -46.7270  -16.5050 C.ar   87  TRP87       0.0012
     48  CZ2       -5.7090  -49.1350  -15.0210 C.ar   87  TRP87       0.0191
     49  CZ3       -4.7770  -47.5830  -16.6210 C.ar   87  TRP87       0.0001
     50  CH2       -4.7120  -48.7710  -15.8820 C.ar   87  TRP87       0.0015
     51  N         -6.3370  -48.4550  -21.1760 N.3    93  TYR93      -0.1241
     52  CA        -5.4170  -49.0860  -20.2310 C.3    93  TYR93       0.1605
     53  C         -3.9640  -49.0200  -20.7150 C.2    93  TYR93       0.2264
     54  O         -3.3300  -50.0270  -21.0260 O.2    93  TYR93      -0.2867
     55  CB        -5.8510  -50.5270  -19.9440 C.3    93  TYR93       0.0534
     56  CG        -7.2000  -50.5860  -19.2750 C.ar   93  TYR93      -0.0201
     57  CD1       -7.3900  -49.9920  -18.0360 C.ar   93  TYR93      -0.0009
     58  CD2       -8.2840  -51.2230  -19.8760 C.ar   93  TYR93      -0.0009
     59  CE1       -8.6110  -50.0200  -17.4070 C.ar   93  TYR93       0.0417
     60  CE2       -9.5280  -51.2630  -19.2430 C.ar   93  TYR93       0.0417
     61  CZ        -9.6820  -50.6550  -18.0050 C.ar   93  TYR93       0.1957
     62  OH       -10.8950  -50.6690  -17.3330 O.3    93  TYR93      -0.2866
     63  N         -2.8830  -47.7960   -8.7340 N.3   233  THR233     -0.1218
     64  CA        -2.4260  -48.0760  -10.0940 C.3   233  THR233      0.1862
     65  C         -3.0550  -47.1090  -11.0920 C.2   233  THR233      0.2287
     66  O         -2.3530  -46.4660  -11.8860 O.2   233  THR233     -0.2866
     67  CB        -2.7780  -49.5220  -10.4680 C.3   233  THR233      0.1770
     68  OG1       -2.0450  -50.4230   -9.6220 O.3   233  THR233     -0.2211
     69  CG2       -2.4300  -49.8060  -11.9300 C.3   233  THR233      0.0375
     70  N         -1.5390  -43.9340  -13.6490 N.3   237  TYR237     -0.1241
     71  CA        -1.5410  -43.9060  -15.1110 C.3   237  TYR237      0.1605
     72  C         -1.9520  -42.5380  -15.6310 C.2   237  TYR237      0.2264
     73  O         -1.3760  -42.0490  -16.6060 O.2   237  TYR237     -0.2867
     74  CB        -2.4560  -45.0030  -15.6810 C.3   237  TYR237      0.0534
     75  CG        -1.7100  -46.2920  -15.9030 C.ar  237  TYR237     -0.0201
     76  CD1       -0.8290  -46.4250  -16.9720 C.ar  237  TYR237     -0.0009
     77  CD2       -1.8570  -47.3660  -15.0290 C.ar  237  TYR237     -0.0009
     78  CE1       -0.1070  -47.5970  -17.1770 C.ar  237  TYR237      0.0417
     79  CE2       -1.1540  -48.5600  -15.2320 C.ar  237  TYR237      0.0417
     80  CZ        -0.2710  -48.6600  -16.2970 C.ar  237  TYR237      0.1957
     81  OH         0.4340  -49.8310  -16.4970 O.3   237  TYR237     -0.2866
     82  N          2.7390  -46.4080  -21.6280 N.3   263  ASN263     -0.1240
     83  CA         3.0820  -47.8300  -21.7500 C.3   263  ASN263      0.1653
     84  C          3.4450  -48.2520  -23.1730 C.2   263  ASN263      0.2266
     85  O          3.7960  -49.4230  -23.3840 O.2   263  ASN263     -0.2867
     86  CB         1.9340  -48.7140  -21.2420 C.3   263  ASN263      0.1155
     87  CG         1.9870  -48.9260  -19.7450 C.2   263  ASN263      0.2627
     88  OD1        2.7930  -48.3020  -19.0400 O.2   263  ASN263     -0.2716
     89  ND2        1.1390  -49.8110  -19.2470 N.am  263  ASN263     -0.0877
     90  N          5.3860  -46.3500  -10.7160 N.3   296  ARG296     -0.1245
     91  CA         5.1140  -46.5270  -12.1400 C.3   296  ARG296      0.1563
     92  C          6.1660  -45.8000  -12.9640 C.2   296  ARG296      0.2260
     93  O          6.8550  -44.8960  -12.4780 O.2   296  ARG296     -0.2867
     94  CB         3.7160  -46.0280  -12.5000 C.3   296  ARG296      0.0307
     95  CG         2.6270  -46.6970  -11.6560 C.3   296  ARG296      0.0489
     96  CD         1.3420  -46.9130  -12.4480 C.3   296  ARG296      0.2205
     97  NE         1.4070  -48.0670  -13.3560 N.pl3 296  ARG296     -0.0865
     98  CZ         1.3110  -49.3330  -12.9600 C.cat 296  ARG296      0.5346
     99  NH1        1.1840  -49.6250  -11.6770 N.pl3 296  ARG296      0.1354
    100  NH2        1.3460  -50.3240  -13.8500 N.pl3 296  ARG296      0.1354
    101  N         -6.0900  -61.9570  -13.2550 N.3   367  TRP367     -0.1241
    102  CA        -6.7690  -60.6650  -13.1830 C.3   367  TRP367      0.1605
    103  C         -8.2830  -60.8000  -13.3350 C.2   367  TRP367      0.2264
    104  O         -9.0150  -60.1980  -12.5300 O.2   367  TRP367     -0.2867
    105  CB        -6.1590  -59.6960  -14.2040 C.3   367  TRP367      0.0550
    106  CG        -4.7120  -59.3180  -13.9250 C.ar  367  TRP367      0.0003
    107  CD1       -3.7620  -60.0700  -13.3020 C.ar  367  TRP367      0.0946
    108  CD2       -4.0830  -58.0750  -14.2580 C.ar  367  TRP367      0.0152
    109  NE1       -2.5700  -59.3730  -13.2280 N.ar  367  TRP367     -0.2442
    110  CE2       -2.7480  -58.1440  -13.8070 C.ar  367  TRP367      0.0810
    111  CE3       -4.5240  -56.9150  -14.8920 C.ar  367  TRP367      0.0012
    112  CZ2       -1.8500  -57.0980  -13.9840 C.ar  367  TRP367      0.0191
    113  CZ3       -3.6320  -55.8720  -15.0670 C.ar  367  TRP367      0.0001
    114  CH2       -2.3090  -55.9710  -14.6160 C.ar  367  TRP367      0.0015
    115  N         -5.9590  -55.7400  -10.6740 N.3   373  TYR373     -0.1241
    116  CA        -4.6580  -55.7470  -11.3320 C.3   373  TYR373      0.1605
    117  C         -3.5990  -56.3910  -10.4410 C.2   373  TYR373      0.2264
    118  O         -2.4080  -56.0980  -10.5740 O.2   373  TYR373     -0.2867
    119  CB        -4.2230  -54.3290  -11.7270 C.3   373  TYR373      0.0534
    120  CG        -5.3680  -53.4360  -12.1640 C.ar  373  TYR373     -0.0201
    121  CD1       -6.3220  -53.8970  -13.0670 C.ar  373  TYR373     -0.0009
    122  CD2       -5.4940  -52.1360  -11.6830 C.ar  373  TYR373     -0.0009
    123  CE1       -7.3820  -53.1000  -13.4600 C.ar  373  TYR373      0.0417
    124  CE2       -6.5530  -51.3260  -12.0720 C.ar  373  TYR373      0.0417
    125  CZ        -7.4960  -51.8220  -12.9500 C.ar  373  TYR373      0.1957
    126  OH        -8.5510  -51.0490  -13.3420 O.3   373  TYR373     -0.2866
@<TRIPOS>BOND
     1     4     3    2
     2     3     2    1
     3    36    35   ar
     4    36    34   ar
     5    85    84    2
     6    35    33   ar
     7    84    83    1
     8    34    32   ar
     9     2     1    1
    10     2     5    1
    11     5     6    1
    12    33    31   ar
    13    12    13    1
    14    83    82    1
    15    83    86    1
    16    18    20   ar
    17    18    17   ar
    18    20    21   ar
    19    32    31   ar
    20    86    87    1
    21    51    52    1
    22    54    53    2
    23    31    30    1
    24     6     8   ar
    25     6     7   ar
    26    53    52    1
    27     8    10   ar
    28    17    16    1
    29    17    19   ar
    30    13    16    1
    31    13    14    1
    32    21    23   ar
    33    21    19   ar
    34    52    55    1
    35    26    14   am
    36    26    27    1
    37    55    56    1
    38    58    56   ar
    39    58    60   ar
    40     7     9   ar
    41    87    89   am
    42    87    88    2
    43    23    25   ar
    44    30    27    1
    45    19    22   ar
    46    14    15    2
    47    56    57   ar
    48    60    61   ar
    49    10    11   ar
    50    27    28    1
    51    28    29    2
    52     9    11   ar
    53    25    24   ar
    54    22    24   ar
    55    57    59   ar
    56    61    59   ar
    57    61    62    1
    58    40    39    2
    59    78    76   ar
    60    78    80   ar
    61    76    75   ar
    62    49    47   ar
    63    49    50   ar
    64    73    72    2
    65    47    44   ar
    66    81    80    1
    67    80    79   ar
    68    39    38    1
    69    75    74    1
    70    75    77   ar
    71    50    48   ar
    72    41    38    1
    73    41    42    1
    74    74    71    1
    75    44    42   ar
    76    44    46   ar
    77    72    71    1
    78    38    37    1
    79    42    43   ar
    80    79    77   ar
    81    71    70    1
    82   113   111   ar
    83   113   114   ar
    84    48    46   ar
    85    46    45   ar
    86   111   108   ar
    87   114   112   ar
    88    43    45   ar
    89   108   106   ar
    90   108   110   ar
    91   105   106    1
    92   105   102    1
    93   112   110   ar
    94   106   107   ar
    95   100    98    1
    96   110   109   ar
    97   123   121   ar
    98   123   125   ar
    99    97    98    2
   100    97    96    1
   101   126   125    1
   102   103   102    1
   103   103   104    2
   104   107   109   ar
   105   101   102    1
   106   121   120   ar
   107    92    93    2
   108    92    91    1
   109    98    99    1
   110   125   124   ar
   111    94    91    1
   112    94    95    1
   113    96    95    1
   114   120   119    1
   115   120   122   ar
   116    91    90    1
   117   124   122   ar
   118    69    67    1
   119    66    65    2
   120   119   116    1
   121   116   115    1
   122   116   117    1
   123    65    64    1
   124   118   117    2
   125    67    64    1
   126    67    68    1
   127    64    63    1
