@<TRIPOS>MOLECULE
tmp/5m96B01.pdb
 243 236 0 0 0
SMALL
GASTEIGER

@<TRIPOS>ATOM
      1  N        -17.6150   24.4850   28.1170 N.3    22  GLN22      -0.1231
      2  CA       -16.5880   23.7950   27.3330 C.3    22  GLN22       0.1698
      3  C        -16.2930   22.4290   27.9530 C.2    22  GLN22       0.2592
      4  O        -16.4160   21.3940   27.2890 O.2    22  GLN22      -0.2718
      5  CB       -15.3040   24.6300   27.2500 C.3    22  GLN22       0.0381
      6  CG       -15.2890   25.6540   26.1330 C.3    22  GLN22       0.0905
      7  CD       -14.2220   26.7170   26.3110 C.2    22  GLN22       0.2608
      8  OE1      -14.3140   27.5630   27.2020 O.2    22  GLN22      -0.2717
      9  NE2      -13.2120   26.6910   25.4490 N.am   22  GLN22      -0.0878
     10  N        -15.9160   22.4400   29.2290 N.am   23  LEU23      -0.1980
     11  CA       -15.6550   21.2180   29.9800 C.3    23  LEU23       0.1596
     12  C        -16.5670   21.1160   31.1900 C.2    23  LEU23       0.2287
     13  O        -16.9070   22.1280   31.8130 O.2    23  LEU23      -0.2864
     14  CB       -14.2000   21.1740   30.4530 C.3    23  LEU23       0.0297
     15  CG       -13.0720   21.0130   29.4340 C.3    23  LEU23       0.0022
     16  CD1      -11.7460   20.9980   30.1710 C.3    23  LEU23       0.0001
     17  CD2      -13.2380   19.7430   28.5920 C.3    23  LEU23       0.0001
     18  N        -12.4750   19.1890   34.8980 N.3    28  LEU28      -0.1245
     19  CA       -11.5160   20.2220   35.2980 C.3    28  LEU28       0.1561
     20  C        -10.8790   19.9320   36.6510 C.2    28  LEU28       0.2260
     21  O         -9.6640   20.0530   36.8030 O.2    28  LEU28      -0.2867
     22  CB       -12.1710   21.6080   35.3280 C.3    28  LEU28       0.0270
     23  CG       -12.2950   22.3810   34.0130 C.3    28  LEU28       0.0019
     24  CD1      -13.1680   23.6050   34.2320 C.3    28  LEU28       0.0001
     25  CD2      -10.9240   22.7970   33.4700 C.3    28  LEU28       0.0001
     26  N          0.0170   33.4470   21.2570 N.3    53  TRP53      -0.1241
     27  CA        -1.1660   34.2320   20.9150 C.3    53  TRP53       0.1605
     28  C         -2.1910   33.3730   20.1820 C.2    53  TRP53       0.2264
     29  O         -3.3730   33.3810   20.5270 O.2    53  TRP53      -0.2867
     30  CB        -0.8200   35.4780   20.0970 C.3    53  TRP53       0.0550
     31  CG        -2.0280   36.0480   19.4170 C.ar   53  TRP53       0.0003
     32  CD1       -2.2380   36.1550   18.0730 C.ar   53  TRP53       0.0946
     33  CD2       -3.2170   36.5420   20.0520 C.ar   53  TRP53       0.0152
     34  NE1       -3.4770   36.7100   17.8280 N.ar   53  TRP53      -0.2442
     35  CE2       -4.1000   36.9510   19.0250 C.ar   53  TRP53       0.0810
     36  CE3       -3.6180   36.6860   21.3870 C.ar   53  TRP53       0.0012
     37  CZ2       -5.3600   37.4980   19.2920 C.ar   53  TRP53       0.0191
     38  CZ3       -4.8760   37.2280   21.6540 C.ar   53  TRP53       0.0001
     39  CH2       -5.7300   37.6290   20.6080 C.ar   53  TRP53       0.0015
     40  N         -3.8320   30.9090   22.7100 N.3    56  CYS56      -0.1235
     41  CA        -4.7430   31.6180   23.6110 C.3    56  CYS56       0.1677
     42  C         -5.9640   32.1420   22.8620 C.2    56  CYS56       0.2270
     43  O         -7.0910   32.0210   23.3540 O.2    56  CYS56      -0.2867
     44  CB        -4.0250   32.7560   24.3350 C.3    56  CYS56       0.0956
     45  SG        -2.7470   32.1860   25.4890 S.3    56  CYS56      -0.0801
     46  N         -8.4830   29.4430   22.2310 N.3    59  HIS59      -0.1226
     47  CA        -9.2910   29.1480   23.3990 C.3    59  HIS59       0.1752
     48  C        -10.3330   30.2370   23.6540 C.2    59  HIS59       0.2595
     49  O        -11.4920   29.9290   23.9490 O.2    59  HIS59      -0.2718
     50  CB        -8.4560   28.9550   24.6630 C.3    59  HIS59       0.0759
     51  CG        -9.2900   28.9240   25.9010 C.ar   59  HIS59       0.0818
     52  ND1      -10.1260   27.8690   26.2020 N.ar   59  HIS59      -0.2268
     53  CD2       -9.4770   29.8440   26.8760 C.ar   59  HIS59       0.1154
     54  CE1      -10.7690   28.1290   27.3260 C.ar   59  HIS59       0.1986
     55  NE2      -10.3900   29.3190   27.7570 N.ar   59  HIS59      -0.2212
     56  N         -9.9100   31.4940   23.5360 N.am   60  LEU60      -0.1980
     57  CA       -10.8020   32.6390   23.7710 C.3    60  LEU60       0.1596
     58  C        -11.9460   32.6920   22.7610 C.2    60  LEU60       0.2287
     59  O        -13.0850   32.9890   23.1310 O.2    60  LEU60      -0.2864
     60  CB       -10.0270   33.9580   23.7730 C.3    60  LEU60       0.0297
     61  CG        -9.0740   34.1840   24.9590 C.3    60  LEU60       0.0022
     62  CD1       -8.2410   35.4360   24.7330 C.3    60  LEU60       0.0001
     63  CD2       -9.8380   34.2660   26.2850 C.3    60  LEU60       0.0001
     64  N        -13.6260   31.6820   33.6710 N.3   101  MET101     -0.1245
     65  CA       -12.2520   31.2070   33.8680 C.3   101  MET101      0.1570
     66  C        -11.9590   30.7190   35.2850 C.2   101  MET101      0.2261
     67  O        -11.0880   29.8720   35.4850 O.2   101  MET101     -0.2867
     68  CB       -11.2620   32.3250   33.5600 C.3   101  MET101      0.0387
     69  CG       -10.9020   32.4740   32.1110 C.3   101  MET101      0.0595
     70  SD        -9.6640   33.7720   32.0100 S.3   101  MET101     -0.1393
     71  CE        -9.8160   34.1780   30.2700 C.3   101  MET101      0.0692
     72  N        -13.3860   28.7710   37.1740 N.3   103  ARG103     -0.1231
     73  CA       -13.6020   27.3210   37.3160 C.3   103  ARG103      0.1694
     74  C        -12.3190   26.5460   37.1110 C.2   103  ARG103      0.2592
     75  O        -12.0950   25.5180   37.7570 O.2   103  ARG103     -0.2718
     76  CB       -14.5890   26.7900   36.2720 C.3   103  ARG103      0.0321
     77  CG       -15.9590   27.3730   36.2800 C.3   103  ARG103      0.0489
     78  CD       -16.6430   27.0350   34.9610 C.3   103  ARG103      0.2205
     79  NE       -17.2450   25.6990   34.9630 N.pl3 103  ARG103     -0.0865
     80  CZ       -16.9820   24.7330   34.0840 C.cat 103  ARG103      0.5346
     81  NH1      -16.1180   24.9240   33.0950 N.pl3 103  ARG103      0.1354
     82  NH2      -17.6100   23.5670   34.1850 N.pl3 103  ARG103      0.1354
     83  N        -11.5020   27.0300   36.1760 N.am  104  ALA104     -0.1966
     84  CA       -10.2780   26.3570   35.7630 C.3   104  ALA104      0.1728
     85  C         -9.0610   26.8740   36.5310 C.2   104  ALA104      0.2616
     86  O         -7.9200   26.5950   36.1600 O.2   104  ALA104     -0.2715
     87  CB       -10.0820   26.5130   34.2570 C.3   104  ALA104      0.0334
     88  N         -9.3190   27.6190   37.6020 N.am  105  TYR105     -0.1974
     89  CA        -8.2710   28.1530   38.4670 C.3   105  TYR105      0.1639
     90  C         -8.2500   27.3900   39.7900 C.2   105  TYR105      0.2290
     91  O         -9.2900   27.2160   40.4280 O.2   105  TYR105     -0.2864
     92  CB        -8.5060   29.6430   38.7180 C.3   105  TYR105      0.0560
     93  CG        -7.4640   30.3100   39.5910 C.ar  105  TYR105     -0.0198
     94  CD1       -6.4120   31.0290   39.0250 C.ar  105  TYR105     -0.0009
     95  CD2       -7.5380   30.2390   40.9830 C.ar  105  TYR105     -0.0009
     96  CE1       -5.4530   31.6470   39.8220 C.ar  105  TYR105      0.0417
     97  CE2       -6.5880   30.8480   41.7830 C.ar  105  TYR105      0.0417
     98  CZ        -5.5490   31.5520   41.2000 C.ar  105  TYR105      0.1957
     99  OH        -4.6090   32.1650   41.9920 O.3   105  TYR105     -0.2866
    100  N         -3.5930   27.1170   36.5500 N.3   112  VAL112     -0.1231
    101  CA        -4.7640   27.1260   35.6670 C.3   112  VAL112      0.1692
    102  C         -4.7050   26.0240   34.6150 C.2   112  VAL112      0.2592
    103  O         -3.6270   25.6360   34.1620 O.2   112  VAL112     -0.2718
    104  CB        -4.9470   28.4980   34.9420 C.3   112  VAL112      0.0266
    105  CG1       -5.1750   29.6190   35.9500 C.3   112  VAL112      0.0020
    106  CG2       -3.7510   28.8110   34.0220 C.3   112  VAL112      0.0020
    107  N         -5.8740   25.5340   34.2150 N.am  113  PHE113     -0.1962
    108  CA        -5.9650   24.5580   33.1360 C.3   113  PHE113      0.1771
    109  C         -5.6730   25.2020   31.7800 C.2   113  PHE113      0.2620
    110  O         -6.2830   26.2060   31.4130 O.2   113  PHE113     -0.2715
    111  CB        -7.3460   23.8980   33.1180 C.3   113  PHE113      0.0574
    112  CG        -7.4620   22.7550   32.1480 C.ar  113  PHE113     -0.0200
    113  CD1       -7.0050   21.4840   32.4930 C.ar  113  PHE113     -0.0042
    114  CD2       -8.0320   22.9420   30.8920 C.ar  113  PHE113     -0.0042
    115  CE1       -7.1090   20.4170   31.5980 C.ar  113  PHE113     -0.0003
    116  CE2       -8.1440   21.8840   29.9890 C.ar  113  PHE113     -0.0003
    117  CZ        -7.6820   20.6150   30.3480 C.ar  113  PHE113     -0.0000
    118  N         -4.7260   24.6220   31.0500 N.am  114  PHE114     -0.1960
    119  CA        -4.4170   25.0560   29.6930 C.3   114  PHE114      0.1771
    120  C         -3.9100   23.8730   28.8900 C.2   114  PHE114      0.2619
    121  O         -2.9140   23.2510   29.2600 O.2   114  PHE114     -0.2715
    122  CB        -3.3730   26.1860   29.6930 C.3   114  PHE114      0.0574
    123  CG        -3.1960   26.8610   28.3490 C.ar  114  PHE114     -0.0200
    124  CD1       -4.2230   27.6250   27.7930 C.ar  114  PHE114     -0.0042
    125  CD2       -1.9950   26.7450   27.6440 C.ar  114  PHE114     -0.0042
    126  CE1       -4.0660   28.2560   26.5530 C.ar  114  PHE114     -0.0003
    127  CE2       -1.8280   27.3720   26.4060 C.ar  114  PHE114     -0.0003
    128  CZ        -2.8630   28.1310   25.8600 C.ar  114  PHE114     -0.0000
    129  N         -4.6160   23.5670   27.8030 N.am  115  GLU115     -0.1977
    130  CA        -4.2030   22.5580   26.8210 C.3   115  GLU115      0.1602
    131  C         -3.8270   21.2030   27.4280 C.2   115  GLU115      0.2287
    132  O         -2.8640   20.5610   26.9990 O.2   115  GLU115     -0.2864
    133  CB        -3.0940   23.1110   25.9040 C.3   115  GLU115      0.0415
    134  CG        -3.5690   24.2630   25.0140 C.3   115  GLU115      0.1163
    135  CD        -2.5320   24.7380   24.0110 C.2   115  GLU115      0.3649
    136  OE1       -1.3210   24.5140   24.2250 O.co2 115  GLU115     -0.2457
    137  OE2       -2.9350   25.3460   23.0010 O.co2 115  GLU115     -0.2457
    138  N          2.9000   31.3030   30.4780 N.3   124  PHE124     -0.1241
    139  CA         2.5190   32.2940   29.4770 C.3   124  PHE124      0.1605
    140  C          3.5680   33.3880   29.3070 C.2   124  PHE124      0.2264
    141  O          3.2830   34.4370   28.7320 O.2   124  PHE124     -0.2867
    142  CB         1.1660   32.9080   29.8570 C.3   124  PHE124      0.0534
    143  CG         0.0870   31.8820   30.0570 C.ar  124  PHE124     -0.0203
    144  CD1       -0.2370   31.4300   31.3360 C.ar  124  PHE124     -0.0042
    145  CD2       -0.5800   31.3460   28.9610 C.ar  124  PHE124     -0.0042
    146  CE1       -1.2230   30.4580   31.5210 C.ar  124  PHE124     -0.0003
    147  CE2       -1.5710   30.3710   29.1380 C.ar  124  PHE124     -0.0003
    148  CZ        -1.8890   29.9350   30.4210 C.ar  124  PHE124     -0.0000
    149  N          4.2530   35.5870   26.0070 N.3   127  LEU127     -0.1245
    150  CA         3.3340   36.6650   25.6460 C.3   127  LEU127      0.1561
    151  C          3.8120   38.0590   26.0480 C.2   127  LEU127      0.2260
    152  O          3.3770   39.0510   25.4620 O.2   127  LEU127     -0.2867
    153  CB         1.9460   36.4190   26.2370 C.3   127  LEU127      0.0270
    154  CG         1.1190   35.2690   25.6710 C.3   127  LEU127      0.0019
    155  CD1       -0.0990   35.0600   26.5580 C.3   127  LEU127      0.0001
    156  CD2        0.7100   35.5190   24.2130 C.3   127  LEU127      0.0001
    157  N          3.0610   39.5900   28.7700 N.3   129  CYS129     -0.1235
    158  CA         1.8610   40.2210   29.3200 C.3   129  CYS129      0.1677
    159  C          1.7600   39.9290   30.8120 C.2   129  CYS129      0.2270
    160  O          0.6720   39.6560   31.3090 O.2   129  CYS129     -0.2867
    161  CB         0.6020   39.6670   28.6240 C.3   129  CYS129      0.0956
    162  SG         0.3980   40.1410   26.9170 S.3   129  CYS129     -0.0801
    163  N         -0.9670   41.8790   33.0170 N.3   132  LEU132     -0.1231
    164  CA        -2.3210   41.4630   32.6800 C.3   132  LEU132      0.1693
    165  C         -2.6320   40.0630   33.2060 C.2   132  LEU132      0.2591
    166  O         -3.6790   39.8580   33.8220 O.2   132  LEU132     -0.2718
    167  CB        -2.5700   41.5420   31.1700 C.3   132  LEU132      0.0284
    168  CG        -3.8600   40.9140   30.6200 C.3   132  LEU132      0.0019
    169  CD1       -5.1130   41.5810   31.1890 C.3   132  LEU132      0.0001
    170  CD2       -3.8710   41.0040   29.1010 C.3   132  LEU132      0.0001
    171  N         -1.7320   39.1090   32.9590 N.am  133  ILE133     -0.1980
    172  CA        -1.9470   37.7270   33.3970 C.3   133  ILE133      0.1595
    173  C         -2.0930   37.6790   34.9130 C.2   133  ILE133      0.2287
    174  O         -2.9230   36.9250   35.4410 O.2   133  ILE133     -0.2864
    175  CB        -0.8190   36.7610   32.9390 C.3   133  ILE133      0.0276
    176  CG1       -0.5350   36.9060   31.4370 C.3   133  ILE133      0.0022
    177  CG2       -1.1650   35.3030   33.3060 C.3   133  ILE133      0.0022
    178  CD1       -1.4870   36.2050   30.5360 C.3   133  ILE133      0.0001
    179  N         -5.5810   38.8120   35.8300 N.3   136  ILE136     -0.1231
    180  CA        -6.5470   37.7380   35.5410 C.3   136  ILE136      0.1692
    181  C         -6.5000   36.6330   36.6150 C.2   136  ILE136      0.2592
    182  O         -7.5480   36.1890   37.0990 O.2   136  ILE136     -0.2718
    183  CB        -6.3400   37.1510   34.1170 C.3   136  ILE136      0.0266
    184  CG1       -6.4820   38.2530   33.0560 C.3   136  ILE136      0.0019
    185  CG2       -7.3170   36.0060   33.8410 C.3   136  ILE136      0.0020
    186  CD1       -6.0050   37.8430   31.6620 C.3   136  ILE136      0.0001
    187  N         -5.2910   36.1990   36.9730 N.am  137  PHE137     -0.1976
    188  CA        -5.0810   35.2070   38.0390 C.3   137  PHE137      0.1639
    189  C         -5.6550   35.6850   39.3800 C.2   137  PHE137      0.2290
    190  O         -6.2740   34.9050   40.1060 O.2   137  PHE137     -0.2864
    191  CB        -3.5860   34.8840   38.2040 C.3   137  PHE137      0.0560
    192  CG        -3.0990   33.7020   37.3840 C.ar  137  PHE137     -0.0200
    193  CD1       -3.2480   33.6710   35.9970 C.ar  137  PHE137     -0.0042
    194  CD2       -2.4410   32.6400   38.0050 C.ar  137  PHE137     -0.0042
    195  CE1       -2.7780   32.5860   35.2490 C.ar  137  PHE137     -0.0003
    196  CE2       -1.9660   31.5550   37.2690 C.ar  137  PHE137     -0.0003
    197  CZ        -2.1290   31.5290   35.8870 C.ar  137  PHE137     -0.0000
    198  N         -9.5870   35.6540   39.2310 N.3   140  SER140     -0.1217
    199  CA       -10.0580   34.2720   39.3740 C.3   140  SER140      0.1889
    200  C         -9.8470   33.7350   40.7840 C.2   140  SER140      0.2288
    201  O        -10.6930   32.9990   41.3050 O.2   140  SER140     -0.2866
    202  CB        -9.4020   33.3480   38.3420 C.3   140  SER140      0.2089
    203  OG       -10.1220   33.3820   37.1220 O.3   140  SER140     -0.2183
    204  N         -7.5480   43.6690   29.4140 N.3   215  HIS215     -0.1241
    205  CA        -7.4970   42.4750   28.5770 C.3   215  HIS215      0.1621
    206  C         -7.6650   42.7810   27.0840 C.2   215  HIS215      0.2264
    207  O         -6.8310   42.3840   26.2650 O.2   215  HIS215     -0.2867
    208  CB        -8.5470   41.4660   29.0410 C.3   215  HIS215      0.0745
    209  CG        -8.3940   40.1090   28.4320 C.ar  215  HIS215      0.0817
    210  ND1       -9.4570   39.4060   27.9080 N.ar  215  HIS215     -0.2268
    211  CD2       -7.3030   39.3260   28.2620 C.ar  215  HIS215      0.1154
    212  CE1       -9.0260   38.2430   27.4490 C.ar  215  HIS215      0.1986
    213  NE2       -7.7230   38.1720   27.6500 N.ar  215  HIS215     -0.2212
    214  N         -4.8190   44.5310   25.2180 N.3   218  ARG218     -0.1231
    215  CA        -3.7510   43.6260   24.8230 C.3   218  ARG218      0.1694
    216  C         -4.1490   42.7150   23.6600 C.2   218  ARG218      0.2591
    217  O         -3.3280   42.4290   22.7860 O.2   218  ARG218     -0.2718
    218  CB        -3.2680   42.8040   26.0190 C.3   218  ARG218      0.0321
    219  CG        -1.9420   42.0990   25.7960 C.3   218  ARG218      0.0489
    220  CD        -0.8330   43.0610   25.3560 C.3   218  ARG218      0.2205
    221  NE        -0.5930   44.1230   26.3310 N.pl3 218  ARG218     -0.0865
    222  CZ         0.3640   45.0420   26.2230 C.cat 218  ARG218      0.5346
    223  NH1        1.1900   45.0370   25.1840 N.pl3 218  ARG218      0.1354
    224  NH2        0.4990   45.9670   27.1640 N.pl3 218  ARG218      0.1354
    225  N         -5.4030   42.2670   23.6430 N.am  219  LEU219     -0.1980
    226  CA        -5.9010   41.4460   22.5390 C.3   219  LEU219      0.1596
    227  C         -5.7900   42.1940   21.2100 C.2   219  LEU219      0.2287
    228  O         -5.3820   41.6190   20.1960 O.2   219  LEU219     -0.2864
    229  CB        -7.3560   41.0250   22.7710 C.3   219  LEU219      0.0297
    230  CG        -7.7320   40.2050   24.0090 C.3   219  LEU219      0.0022
    231  CD1       -9.2300   39.9470   24.0160 C.3   219  LEU219      0.0001
    232  CD2       -6.9610   38.8960   24.0950 C.3   219  LEU219      0.0001
    233  N         -2.2790   42.2700   19.5910 N.3   222  PHE222     -0.1241
    234  CA        -2.0180   41.0410   18.8390 C.3   222  PHE222      0.1605
    235  C         -2.8540   40.9620   17.5550 C.2   222  PHE222      0.2264
    236  O         -2.3660   40.5120   16.5180 O.2   222  PHE222     -0.2867
    237  CB        -2.2510   39.7980   19.7060 C.3   222  PHE222      0.0534
    238  CG        -1.1880   39.5700   20.7470 C.ar  222  PHE222     -0.0203
    239  CD1       -1.4640   39.7750   22.0980 C.ar  222  PHE222     -0.0042
    240  CD2        0.0890   39.1460   20.3790 C.ar  222  PHE222     -0.0042
    241  CE1       -0.4830   39.5640   23.0700 C.ar  222  PHE222     -0.0003
    242  CE2        1.0790   38.9350   21.3440 C.ar  222  PHE222     -0.0003
    243  CZ         0.7900   39.1450   22.6890 C.ar  222  PHE222     -0.0000
@<TRIPOS>BOND
     1   236   235    2
     2   235   234    1
     3    34    32   ar
     4    34    35   ar
     5    32    31   ar
     6   234   233    1
     7   234   237    1
     8    35    37   ar
     9    35    33   ar
    10    37    39   ar
    11    31    33   ar
    12    31    30    1
    13   237   238    1
    14    33    36   ar
    15    30    27    1
    16    28    29    2
    17    28    27    1
    18   228   227    2
    19   240   238   ar
    20   240   242   ar
    21    39    38   ar
    22   238   239   ar
    23    27    26    1
    24   227   226    1
    25   242   243   ar
    26    36    38   ar
    27   239   241   ar
    28    46    47    1
    29   226   229    1
    30   226   225    1
    31   243   241   ar
    32    40    41    1
    33    58    59    2
    34    58    57    1
    35   229   230    1
    36   217   216    2
    37    42    43    2
    38    42    41    1
    39   137   135   ar
    40    47    48    1
    41    47    50    1
    42    56    48   am
    43    56    57    1
    44    41    44    1
    45   225   216   am
    46    48    49    2
    47   216   215    1
    48    57    60    1
    49    60    61    1
    50   230   231    1
    51   230   232    1
    52   135   136   ar
    53   135   134    1
    54   156   154    1
    55    44    45    1
    56    50    51    1
    57    62    61    1
    58   215   214    1
    59   215   218    1
    60    61    63    1
    61   134   133    1
    62   223   222    1
    63   220   219    1
    64   220   221    1
    65     9     7   am
    66   152   151    2
    67   150   149    1
    68   150   151    1
    69   150   153    1
    70   154   153    1
    71   154   155    1
    72   219   218    1
    73   128   127   ar
    74   128   126   ar
    75    51    52   ar
    76    51    53   ar
    77   133   130    1
    78     6     7    1
    79     6     5    1
    80    52    54   ar
    81   222   221    2
    82   222   224    1
    83   207   206    2
    84     7     8    2
    85   127   125   ar
    86   126   124   ar
    87   130   131    1
    88   130   129    1
    89    53    55   ar
    90   162   161    1
    91   132   131    2
    92   206   205    1
    93     5     2    1
    94     4     3    2
    95    54    55   ar
    96     2     3    1
    97     2     1    1
    98   212   213   ar
    99   212   210   ar
   100   125   123   ar
   101   213   211   ar
   102   124   123   ar
   103   129   120   am
   104   210   209   ar
   105     3    10   am
   106   211   209   ar
   107   123   122    1
   108   209   208    1
   109   205   208    1
   110   205   204    1
   111    17    15    1
   112   161   158    1
   113   141   140    2
   114   157   158    1
   115   120   121    2
   116   120   119    1
   117   145   147   ar
   118   145   143   ar
   119   170   168    1
   120   147   148   ar
   121    10    11    1
   122   140   139    1
   123   158   159    1
   124    15    16    1
   125    15    14    1
   126   139   142    1
   127   139   138    1
   128   122   119    1
   129   119   118    1
   130   142   143    1
   131    11    14    1
   132    11    12    1
   133   116   117   ar
   134   116   114   ar
   135   143   144   ar
   136    71    70    1
   137   117   115   ar
   138   148   146   ar
   139   178   176    1
   140   168   167    1
   141   168   169    1
   142   159   160    2
   143   114   112   ar
   144   118   109   am
   145   167   164    1
   146    12    13    2
   147   144   146   ar
   148   110   109    2
   149   176   175    1
   150   115   113   ar
   151   186   184    1
   152   109   108    1
   153    70    69    1
   154    69    68    1
   155   112   113   ar
   156   112   111    1
   157   164   163    1
   158   164   165    1
   159   175   177    1
   160   175   172    1
   161   171   165   am
   162   171   172    1
   163   184   183    1
   164    81    80    1
   165   111   108    1
   166   108   107    1
   167   165   166    2
   168   172   173    1
   169    25    23    1
   170    68    65    1
   171    64    65    1
   172   185   183    1
   173    65    66    1
   174    23    24    1
   175    23    22    1
   176   106   104    1
   177    80    82    1
   178    80    79    2
   179   183   180    1
   180   103   102    2
   181   107   102   am
   182    87    84    1
   183   102   101    1
   184    18    19    1
   185   173   174    2
   186   104   101    1
   187   104   105    1
   188    78    79    1
   189    78    77    1
   190   195   197   ar
   191   195   193   ar
   192    66    67    2
   193    19    22    1
   194    19    20    1
   195   180   179    1
   196   180   181    1
   197   101   100    1
   198    84    83    1
   199    84    85    1
   200   197   196   ar
   201   193   192   ar
   202    86    85    2
   203    83    74   am
   204    76    77    1
   205    76    73    1
   206    85    88   am
   207   181   187   am
   208   181   182    2
   209    20    21    2
   210   187   188    1
   211    74    73    1
   212    74    75    2
   213   203   202    1
   214    72    73    1
   215   196   194   ar
   216   192   194   ar
   217   192   191    1
   218    88    89    1
   219   188   191    1
   220   188   189    1
   221   202   199    1
   222    89    92    1
   223    89    90    1
   224    92    93    1
   225    94    93   ar
   226    94    96   ar
   227   198   199    1
   228   199   200    1
   229   189   190    2
   230    93    95   ar
   231    90    91    2
   232    96    98   ar
   233   200   201    2
   234    95    97   ar
   235    98    97   ar
   236    98    99    1
