@<TRIPOS>MOLECULE
tmp/5m96B00.pdb
 113 103 0 0 0
SMALL
GASTEIGER

@<TRIPOS>ATOM
      1  N        -15.8630   32.5180   23.8190 N.3    64  ILE64      -0.1231
      2  CA       -16.8500   33.5050   23.3680 C.3    64  ILE64       0.1692
      3  C        -18.0410   32.8170   22.6960 C.2    64  ILE64       0.2591
      4  O        -19.1970   33.1650   22.9550 O.2    64  ILE64      -0.2718
      5  CB       -16.2260   34.5430   22.3960 C.3    64  ILE64       0.0266
      6  CG1      -15.1640   35.3820   23.1040 C.3    64  ILE64       0.0019
      7  CG2      -17.2930   35.4700   21.8070 C.3    64  ILE64       0.0020
      8  CD1      -14.4870   36.3760   22.1870 C.3    64  ILE64       0.0001
      9  N        -17.7570   31.8360   21.8370 N.am   65  GLN65      -0.1979
     10  CA       -18.8140   31.0940   21.1460 C.3    65  GLN65       0.1601
     11  C        -19.8000   30.4480   22.1210 C.2    65  GLN65       0.2287
     12  O        -21.0130   30.5210   21.9170 O.2    65  GLN65      -0.2864
     13  CB       -18.2270   30.0510   20.1980 C.3    65  GLN65       0.0394
     14  CG       -17.6000   30.6590   18.9460 C.3    65  GLN65       0.0908
     15  CD       -16.6340   29.7190   18.2530 C.2    65  GLN65       0.2608
     16  OE1      -15.6060   30.1480   17.7230 O.2    65  GLN65      -0.2717
     17  NE2      -16.9500   28.4350   18.2610 N.am   65  GLN65      -0.0878
     18  N        -21.9620   33.1680   23.6860 N.3    68  VAL68      -0.1245
     19  CA       -23.0170   33.5210   22.7310 C.3    68  VAL68       0.1561
     20  C        -24.1710   32.5090   22.7860 C.2    68  VAL68       0.2260
     21  O        -25.3450   32.9050   22.8460 O.2    68  VAL68      -0.2867
     22  CB       -22.4640   33.6930   21.2840 C.3    68  VAL68       0.0252
     23  CG1      -23.5970   33.8460   20.2720 C.3    68  VAL68       0.0019
     24  CG2      -21.5520   34.9160   21.2230 C.3    68  VAL68       0.0019
     25  N        -28.1460   32.9750   23.8880 N.3    72  LYS72      -0.1245
     26  CA       -29.2420   32.5920   22.9880 C.3    72  LYS72       0.1561
     27  C        -30.2070   31.5710   23.5940 C.2    72  LYS72       0.2260
     28  O        -31.3380   31.4220   23.1210 O.2    72  LYS72      -0.2867
     29  CB       -28.6950   32.0720   21.6600 C.3    72  LYS72       0.0271
     30  CG       -28.0960   33.1480   20.7810 C.3    72  LYS72       0.0035
     31  CD       -27.0450   32.5550   19.8690 C.3    72  LYS72       0.0206
     32  CE       -27.6260   32.0810   18.5470 C.3    72  LYS72       0.1093
     33  NZ       -27.4920   33.1220   17.4920 N.3    72  LYS72      -0.1314
     34  N        -32.7760   42.7130   17.9650 N.3    82  GLN82      -0.1245
     35  CA       -31.4460   42.3250   17.4980 C.3    82  GLN82       0.1566
     36  C        -30.3650   43.3370   17.8780 C.2    82  GLN82       0.2260
     37  O        -29.2560   42.9460   18.2590 O.2    82  GLN82      -0.2867
     38  CB       -31.4490   42.0590   15.9880 C.3    82  GLN82       0.0367
     39  CG       -32.2950   40.8530   15.5710 C.3    82  GLN82       0.0905
     40  CD       -31.7550   39.5300   16.0960 C.2    82  GLN82       0.2608
     41  OE1      -30.5420   39.3180   16.1660 O.2    82  GLN82      -0.2717
     42  NE2      -32.6590   38.6310   16.4670 N.am   82  GLN82      -0.0878
     43  N        -29.5310   42.7230   21.6070 N.3    85  GLN85      -0.1231
     44  CA       -28.7810   41.4700   21.7170 C.3    85  GLN85       0.1698
     45  C        -27.3130   41.7030   21.3780 C.2    85  GLN85       0.2592
     46  O        -26.4200   41.2450   22.0920 O.2    85  GLN85      -0.2718
     47  CB       -29.3660   40.3910   20.8060 C.3    85  GLN85       0.0381
     48  CG       -30.7470   39.9010   21.2180 C.3    85  GLN85       0.0905
     49  CD       -31.2270   38.7340   20.3760 C.2    85  GLN85       0.2608
     50  OE1      -30.4290   37.9880   19.8140 O.2    85  GLN85      -0.2717
     51  NE2      -32.5380   38.5610   20.3020 N.am   85  GLN85      -0.0878
     52  N        -27.0690   42.4440   20.2960 N.am   86  ILE86      -0.1980
     53  CA       -25.7110   42.7240   19.8470 C.3    86  ILE86       0.1595
     54  C        -24.9730   43.6320   20.8310 C.2    86  ILE86       0.2287
     55  O        -23.8340   43.3500   21.1970 O.2    86  ILE86      -0.2864
     56  CB       -25.6960   43.3100   18.4080 C.3    86  ILE86       0.0276
     57  CG1      -26.2200   42.2700   17.4160 C.3    86  ILE86       0.0022
     58  CG2      -24.2920   43.7840   18.0230 C.3    86  ILE86       0.0022
     59  CD1      -26.5980   42.8510   16.0590 C.3    86  ILE86       0.0001
     60  N        -24.0110   41.5390   24.0030 N.3    89  LEU89      -0.1231
     61  CA       -22.9240   40.5950   23.7420 C.3    89  LEU89       0.1693
     62  C        -21.6030   41.3090   23.4870 C.2    89  LEU89       0.2591
     63  O        -20.5780   40.9210   24.0300 O.2    89  LEU89      -0.2718
     64  CB       -23.2810   39.6490   22.5890 C.3    89  LEU89       0.0284
     65  CG       -24.2630   38.5300   22.9440 C.3    89  LEU89       0.0019
     66  CD1      -24.8110   37.8530   21.6830 C.3    89  LEU89       0.0001
     67  CD2      -23.6100   37.5080   23.8760 C.3    89  LEU89       0.0001
     68  N        -21.6350   42.3610   22.6730 N.am   90  LYS90      -0.1980
     69  CA       -20.4390   43.1660   22.4010 C.3    90  LYS90       0.1596
     70  C        -19.8080   43.6500   23.7080 C.2    90  LYS90       0.2287
     71  O        -18.5910   43.5280   23.9220 O.2    90  LYS90      -0.2864
     72  CB       -20.8160   44.3440   21.4880 C.3    90  LYS90       0.0298
     73  CG       -19.6860   45.2950   21.0880 C.3    90  LYS90       0.0038
     74  CD       -20.2100   46.3110   20.0560 C.3    90  LYS90       0.0206
     75  CE       -19.2470   47.4720   19.8150 C.3    90  LYS90       0.1093
     76  NZ       -19.1470   48.3900   20.9910 N.3    90  LYS90      -0.1314
     77  N        -19.6450   39.8290   26.5760 N.3    93  ALA93      -0.1231
     78  CA       -19.1830   38.4520   26.3230 C.3    93  ALA93       0.1694
     79  C        -17.8080   38.1560   26.9230 C.2    93  ALA93       0.2591
     80  O        -17.6190   37.1240   27.5700 O.2    93  ALA93      -0.2718
     81  CB       -19.2220   38.1040   24.8230 C.3    93  ALA93       0.0304
     82  N        -16.8510   39.0580   26.7270 N.am   94  MET94      -0.1979
     83  CA       -15.5150   38.8260   27.2800 C.3    94  MET94       0.1605
     84  C        -15.4900   38.9400   28.8150 C.2    94  MET94       0.2287
     85  O        -14.7280   38.2430   29.4820 O.2    94  MET94      -0.2864
     86  CB       -14.4650   39.7250   26.6160 C.3    94  MET94       0.0413
     87  CG       -13.0200   39.2620   26.8520 C.3    94  MET94       0.0598
     88  SD       -12.6270   37.6090   26.2120 S.3    94  MET94      -0.1393
     89  CE       -12.3440   37.9990   24.4940 C.3    94  MET94       0.0692
     90  N         -8.7340   43.5010   26.7480 N.3   216  VAL216     -0.1245
     91  CA        -9.0790   43.8070   25.3600 C.3   216  VAL216      0.1561
     92  C         -7.9890   44.6520   24.6920 C.2   216  VAL216      0.2260
     93  O         -7.6480   44.4230   23.5310 O.2   216  VAL216     -0.2867
     94  CB       -10.4950   44.4560   25.2520 C.3   216  VAL216      0.0252
     95  CG1      -10.7870   44.9380   23.8350 C.3   216  VAL216      0.0019
     96  CG2      -11.5610   43.4550   25.6840 C.3   216  VAL216      0.0019
     97  N         -5.4030   42.2670   23.6430 N.3   219  LEU219     -0.1245
     98  CA        -5.9010   41.4460   22.5390 C.3   219  LEU219      0.1561
     99  C         -5.7900   42.1940   21.2100 C.2   219  LEU219      0.2260
    100  O         -5.3820   41.6190   20.1960 O.2   219  LEU219     -0.2867
    101  CB        -7.3560   41.0250   22.7710 C.3   219  LEU219      0.0270
    102  CG        -7.7320   40.2050   24.0090 C.3   219  LEU219      0.0019
    103  CD1       -9.2300   39.9470   24.0160 C.3   219  LEU219      0.0001
    104  CD2       -6.9610   38.8960   24.0950 C.3   219  LEU219      0.0001
    105  N         -4.1100   41.4050   17.6380 N.3   223  GLN223     -0.1245
    106  CA        -5.0300   41.3770   16.4990 C.3   223  GLN223      0.1566
    107  C         -4.6810   42.4530   15.4790 C.2   223  GLN223      0.2260
    108  O         -5.0670   42.3540   14.3140 O.2   223  GLN223     -0.2867
    109  CB        -6.4800   41.5490   16.9700 C.3   223  GLN223      0.0367
    110  CG        -7.0490   40.3320   17.6970 C.3   223  GLN223      0.0905
    111  CD        -8.3300   40.6270   18.4660 C.2   223  GLN223      0.2608
    112  OE1       -9.2540   39.8140   18.4790 O.2   223  GLN223     -0.2717
    113  NE2       -8.3870   41.7850   19.1150 N.am  223  GLN223     -0.0878
@<TRIPOS>BOND
     1   108   107    2
     2   107   106    1
     3    39    38    1
     4    39    40    1
     5    38    35    1
     6    59    57    1
     7    40    41    2
     8    40    42   am
     9   106   109    1
    10   106   105    1
    11   109   110    1
    12    57    56    1
    13    33    32    1
    14    35    36    1
    15    35    34    1
    16   110   111    1
    17    16    15    2
    18    36    37    2
    19    58    56    1
    20    15    17   am
    21    15    14    1
    22    56    53    1
    23   111   112    2
    24   111   113   am
    25    32    31    1
    26    14    13    1
    27    50    49    2
    28    75    74    1
    29    75    76    1
    30    53    52    1
    31    53    54    1
    32    31    30    1
    33    74    73    1
    34   100    99    2
    35    13    10    1
    36    23    22    1
    37    52    45   am
    38    51    49   am
    39    49    48    1
    40    30    29    1
    41    47    48    1
    42    47    44    1
    43    54    55    2
    44    73    72    1
    45    10     9    1
    46    10    11    1
    47    99    98    1
    48    24    22    1
    49    22    19    1
    50    45    44    1
    51    45    46    2
    52    72    69    1
    53    43    44    1
    54    29    26    1
    55    66    65    1
    56     7     5    1
    57     9     3   am
    58    12    11    2
    59     8     6    1
    60     5     6    1
    61     5     2    1
    62    69    68    1
    63    69    70    1
    64    98   101    1
    65    98    97    1
    66    64    65    1
    67    64    61    1
    68    68    62   am
    69     3     4    2
    70     3     2    1
    71    19    20    1
    72    19    18    1
    73   101   102    1
    74    20    21    2
    75    65    67    1
    76    26    27    1
    77    26    25    1
    78    28    27    2
    79     2     1    1
    80    62    61    1
    81    62    63    2
    82    93    92    2
    83    70    71    2
    84    61    60    1
    85    95    94    1
    86   102   103    1
    87   102   104    1
    88    89    88    1
    89    92    91    1
    90    81    78    1
    91    94    91    1
    92    94    96    1
    93    91    90    1
    94    88    87    1
    95    78    77    1
    96    78    79    1
    97    86    87    1
    98    86    83    1
    99    82    79   am
   100    82    83    1
   101    79    80    2
   102    83    84    1
   103    84    85    2
