@<TRIPOS>MOLECULE
tmp/5m9xA00.pdb
 243 237 0 0 0
SMALL
GASTEIGER

@<TRIPOS>ATOM
      1  N        -13.6540  -12.1270  -14.3560 N.3    50  ASP50      -0.1239
      2  CA       -12.9690  -13.3480  -14.7660 C.3    50  ASP50       0.1674
      3  C        -12.4370  -13.2230  -16.1890 C.2    50  ASP50       0.2266
      4  O        -12.4530  -14.1820  -16.9690 O.2    50  ASP50      -0.2867
      5  CB       -13.9010  -14.5490  -14.6310 C.3    50  ASP50       0.1410
      6  CG       -13.1600  -15.8680  -14.6370 C.2    50  ASP50       0.3668
      7  OD1      -11.9400  -15.8680  -14.3700 O.co2  50  ASP50      -0.2456
      8  OD2      -13.8020  -16.9060  -14.8990 O.co2  50  ASP50      -0.2456
      9  N        -14.3490  -14.6300  -19.1880 N.3    53  PHE53      -0.1241
     10  CA       -15.0850  -15.8680  -18.9710 C.3    53  PHE53       0.1605
     11  C        -16.3600  -15.6680  -18.1650 C.2    53  PHE53       0.2264
     12  O        -17.0290  -16.6560  -17.8400 O.2    53  PHE53      -0.2867
     13  CB       -14.1940  -16.8970  -18.2720 C.3    53  PHE53       0.0534
     14  CG       -13.2040  -17.5550  -19.1870 C.ar   53  PHE53      -0.0203
     15  CD1      -13.5930  -18.5960  -20.0140 C.ar   53  PHE53      -0.0042
     16  CD2      -11.8850  -17.1370  -19.2200 C.ar   53  PHE53      -0.0042
     17  CE1      -12.6850  -19.2070  -20.8580 C.ar   53  PHE53      -0.0003
     18  CE2      -10.9720  -17.7420  -20.0610 C.ar   53  PHE53      -0.0003
     19  CZ       -11.3710  -18.7780  -20.8810 C.ar   53  PHE53      -0.0000
     20  N        -23.0300  -22.4550  -18.1750 N.3    88  HIS88      -0.1241
     21  CA       -23.6570  -21.4140  -17.3730 C.3    88  HIS88       0.1621
     22  C        -23.6420  -20.1060  -18.1510 C.2    88  HIS88       0.2264
     23  O        -23.0310  -19.9990  -19.2170 O.2    88  HIS88      -0.2867
     24  CB       -22.9360  -21.2560  -16.0300 C.3    88  HIS88       0.0745
     25  CG       -21.4500  -21.1250  -16.1610 C.ar   88  HIS88       0.0817
     26  ND1      -20.5870  -22.1690  -15.9060 N.ar   88  HIS88      -0.2268
     27  CD2      -20.6740  -20.0800  -16.5330 C.ar   88  HIS88       0.1154
     28  CE1      -19.3440  -21.7720  -16.1090 C.ar   88  HIS88       0.1986
     29  NE2      -19.3690  -20.5080  -16.4910 N.ar   88  HIS88      -0.2212
     30  N        -19.1570  -33.3280   -7.5030 N.3   132  TYR132     -0.1227
     31  CA       -17.7960  -32.8440   -7.7010 C.3   132  TYR132      0.1736
     32  C        -17.7950  -31.3220   -7.7640 C.2   132  TYR132      0.2595
     33  O        -18.6360  -30.7140   -8.4320 O.2   132  TYR132     -0.2718
     34  CB       -17.2150  -33.4410   -8.9850 C.3   132  TYR132      0.0548
     35  CG       -15.7700  -33.0890   -9.2690 C.ar  132  TYR132     -0.0200
     36  CD1      -14.7320  -33.7180   -8.5920 C.ar  132  TYR132     -0.0009
     37  CD2      -15.4420  -32.1490  -10.2370 C.ar  132  TYR132     -0.0009
     38  CE1      -13.4110  -33.4050   -8.8580 C.ar  132  TYR132      0.0417
     39  CE2      -14.1230  -31.8320  -10.5100 C.ar  132  TYR132      0.0417
     40  CZ       -13.1130  -32.4640   -9.8170 C.ar  132  TYR132      0.1957
     41  OH       -11.7990  -32.1540  -10.0830 O.3   132  TYR132     -0.2866
     42  N        -16.8470  -30.7020   -7.0600 N.am  133  ARG133     -0.1966
     43  CA       -16.8630  -29.2600   -6.8560 C.3   133  ARG133      0.1714
     44  C        -15.5280  -28.6380   -7.2510 C.2   133  ARG133      0.2458
     45  O        -14.4730  -29.0730   -6.7570 O.2   133  ARG133     -0.2730
     46  CB       -17.1810  -28.9330   -5.3900 C.3   133  ARG133      0.0347
     47  CG       -18.5770  -29.3440   -4.9530 C.3   133  ARG133      0.0492
     48  CD       -19.6300  -28.5110   -5.6580 C.3   133  ARG133      0.2205
     49  NE       -19.5440  -27.1040   -5.2720 N.pl3 133  ARG133     -0.0865
     50  CZ       -19.6870  -26.0720   -6.0980 C.cat 133  ARG133      0.5346
     51  NH1      -19.9100  -26.2560   -7.3920 N.pl3 133  ARG133      0.1354
     52  NH2      -19.5920  -24.8400   -5.6250 N.pl3 133  ARG133      0.1354
     53  N        -15.5240  -27.6260   -8.1270 N.am  134  PRO134     -0.2716
     54  CA       -14.3090  -26.8210   -8.3070 C.3   134  PRO134      0.1536
     55  C        -14.1430  -25.7550   -7.2410 C.2   134  PRO134      0.2598
     56  O        -13.0240  -25.2600   -7.0480 O.2   134  PRO134     -0.2715
     57  CB       -14.5130  -26.1890   -9.6880 C.3   134  PRO134      0.0310
     58  CG       -15.9950  -26.0210   -9.7790 C.3   134  PRO134      0.0237
     59  CD       -16.6030  -27.1870   -9.0320 C.3   134  PRO134      0.0939
     60  N        -15.2180  -25.3940   -6.5480 N.am  135  ARG135     -0.1978
     61  CA       -15.2190  -24.3490   -5.5410 C.3   135  ARG135      0.1597
     62  C        -15.8460  -24.8780   -4.2610 C.2   135  ARG135      0.2287
     63  O        -16.6780  -25.7900   -4.3050 O.2   135  ARG135     -0.2864
     64  CB       -16.0050  -23.1240   -6.0300 C.3   135  ARG135      0.0334
     65  CG       -15.5810  -22.6160   -7.4050 C.3   135  ARG135      0.0492
     66  CD       -14.1630  -22.0620   -7.3840 C.3   135  ARG135      0.2205
     67  NE       -13.8220  -21.3560   -8.6190 N.pl3 135  ARG135     -0.0865
     68  CZ       -13.1440  -21.8760   -9.6400 C.cat 135  ARG135      0.5346
     69  NH1      -12.7100  -23.1290   -9.6020 N.pl3 135  ARG135      0.1354
     70  NH2      -12.8930  -21.1340  -10.7100 N.pl3 135  ARG135      0.1354
     71  N        -19.9160  -22.4600  -10.2780 N.3   156  PHE156     -0.1241
     72  CA       -18.8720  -21.4770  -10.0300 C.3   156  PHE156      0.1605
     73  C        -19.5620  -20.3030   -9.3510 C.2   156  PHE156      0.2264
     74  O        -20.6060  -20.4950   -8.7210 O.2   156  PHE156     -0.2867
     75  CB       -18.1640  -21.0620  -11.3220 C.3   156  PHE156      0.0534
     76  CG       -17.5750  -22.2170  -12.0960 C.ar  156  PHE156     -0.0203
     77  CD1      -16.3050  -22.6960  -11.8060 C.ar  156  PHE156     -0.0042
     78  CD2      -18.2890  -22.8200  -13.1180 C.ar  156  PHE156     -0.0042
     79  CE1      -15.7640  -23.7570  -12.5200 C.ar  156  PHE156     -0.0003
     80  CE2      -17.7540  -23.8800  -13.8350 C.ar  156  PHE156     -0.0003
     81  CZ       -16.4910  -24.3480  -13.5360 C.ar  156  PHE156     -0.0000
     82  N        -22.8470  -16.7620  -11.9660 N.3   160  GLN160     -0.1245
     83  CA       -22.8850  -17.6090  -13.1540 C.3   160  GLN160      0.1566
     84  C        -23.9070  -18.7100  -12.8980 C.2   160  GLN160      0.2260
     85  O        -23.6010  -19.7160  -12.2520 O.2   160  GLN160     -0.2867
     86  CB       -21.5030  -18.1820  -13.4540 C.3   160  GLN160      0.0367
     87  CG       -20.5270  -17.1670  -14.0440 C.3   160  GLN160      0.0905
     88  CD       -19.0740  -17.5820  -13.8830 C.2   160  GLN160      0.2608
     89  OE1      -18.6100  -17.8400  -12.7710 O.2   160  GLN160     -0.2717
     90  NE2      -18.3480  -17.6530  -14.9940 N.am  160  GLN160     -0.0878
     91  N        -13.5270  -24.4810  -27.9100 N.3   190  ARG190     -0.1245
     92  CA       -13.0920  -24.9870  -26.6120 C.3   190  ARG190      0.1563
     93  C        -14.2880  -24.9170  -25.6680 C.2   190  ARG190      0.2260
     94  O        -14.7110  -23.8260  -25.2730 O.2   190  ARG190     -0.2867
     95  CB       -11.9150  -24.1650  -26.0920 C.3   190  ARG190      0.0307
     96  CG       -11.3920  -24.5370  -24.7120 C.3   190  ARG190      0.0489
     97  CD       -10.3340  -23.5250  -24.3030 C.3   190  ARG190      0.2205
     98  NE        -9.6820  -23.8150  -23.0280 N.pl3 190  ARG190     -0.0865
     99  CZ       -10.1280  -23.4190  -21.8390 C.cat 190  ARG190      0.5346
    100  NH1      -11.2550  -22.7250  -21.7320 N.pl3 190  ARG190      0.1354
    101  NH2       -9.4440  -23.7220  -20.7460 N.pl3 190  ARG190      0.1354
    102  N        -15.8850  -24.7240  -22.5490 N.3   192  ASN192     -0.1225
    103  CA       -15.4970  -24.3800  -21.1910 C.3   192  ASN192      0.1785
    104  C        -16.4820  -24.9640  -20.1850 C.2   192  ASN192      0.2597
    105  O        -17.6960  -24.7730  -20.3080 O.2   192  ASN192     -0.2718
    106  CB       -15.4210  -22.8630  -21.0340 C.3   192  ASN192      0.1169
    107  CG       -14.9080  -22.4520  -19.6740 C.2   192  ASN192      0.2627
    108  OD1      -13.7080  -22.4250  -19.4400 O.2   192  ASN192     -0.2716
    109  ND2      -15.8150  -22.1460  -18.7640 N.am  192  ASN192     -0.0877
    110  N        -15.9520  -25.6610  -19.1790 N.am  193  ALA193     -0.1979
    111  CA       -16.7610  -26.2070  -18.0900 C.3   193  ALA193      0.1597
    112  C        -17.8100  -27.1960  -18.5910 C.2   193  ALA193      0.2287
    113  O        -18.8640  -27.3630  -17.9730 O.2   193  ALA193     -0.2864
    114  CB       -17.4270  -25.0860  -17.2880 C.3   193  ALA193      0.0319
    115  N        -19.2410  -30.1980  -16.3440 N.3   196  TYR196     -0.1241
    116  CA       -20.2890  -29.9400  -15.3700 C.3   196  TYR196      0.1605
    117  C        -21.6610  -29.7670  -16.0140 C.2   196  TYR196      0.2264
    118  O        -22.6580  -29.6490  -15.2940 O.2   196  TYR196     -0.2867
    119  CB       -19.9400  -28.6840  -14.5590 C.3   196  TYR196      0.0534
    120  CG       -18.6320  -28.7780  -13.7990 C.ar  196  TYR196     -0.0201
    121  CD1      -17.4330  -28.3930  -14.3890 C.ar  196  TYR196     -0.0009
    122  CD2      -18.5960  -29.2420  -12.4920 C.ar  196  TYR196     -0.0009
    123  CE1      -16.2350  -28.4740  -13.6970 C.ar  196  TYR196      0.0417
    124  CE2      -17.4050  -29.3280  -11.7950 C.ar  196  TYR196      0.0417
    125  CZ       -16.2280  -28.9410  -12.4000 C.ar  196  TYR196      0.1957
    126  OH       -15.0410  -29.0250  -11.7050 O.3   196  TYR196     -0.2866
    127  N        -20.4700  -34.6920  -12.8230 N.3   206  PHE206     -0.1241
    128  CA       -19.2470  -34.2910  -13.5100 C.3   206  PHE206      0.1605
    129  C        -18.7570  -35.4600  -14.3490 C.2   206  PHE206      0.2264
    130  O        -18.4170  -36.5160  -13.8060 O.2   206  PHE206     -0.2867
    131  CB       -18.1680  -33.8540  -12.5130 C.3   206  PHE206      0.0534
    132  CG       -16.8860  -33.4070  -13.1590 C.ar  206  PHE206     -0.0203
    133  CD1      -16.7910  -32.1610  -13.7590 C.ar  206  PHE206     -0.0042
    134  CD2      -15.7720  -34.2290  -13.1560 C.ar  206  PHE206     -0.0042
    135  CE1      -15.6120  -31.7490  -14.3510 C.ar  206  PHE206     -0.0003
    136  CE2      -14.5890  -33.8200  -13.7460 C.ar  206  PHE206     -0.0003
    137  CZ       -14.5100  -32.5780  -14.3430 C.ar  206  PHE206     -0.0000
    138  N        -11.9640  -29.4310  -22.2630 N.3   232  GLU232     -0.1231
    139  CA       -11.0590  -28.9120  -21.2470 C.3   232  GLU232      0.1699
    140  C        -11.4980  -29.4520  -19.8940 C.2   232  GLU232      0.2592
    141  O        -12.6390  -29.2290  -19.4750 O.2   232  GLU232     -0.2718
    142  CB       -11.0580  -27.3810  -21.2610 C.3   232  GLU232      0.0402
    143  CG       -10.5960  -26.7380  -19.9700 C.3   232  GLU232      0.1161
    144  CD       -11.6940  -26.6220  -18.9340 C.2   232  GLU232      0.3649
    145  OE1      -12.8680  -26.4400  -19.3220 O.co2 232  GLU232     -0.2457
    146  OE2      -11.3780  -26.7340  -17.7320 O.co2 232  GLU232     -0.2457
    147  N        -10.5990  -30.1600  -19.2170 N.am  233  VAL233     -0.1966
    148  CA       -10.8910  -30.7220  -17.9020 C.3   233  VAL233      0.1727
    149  C         -9.5840  -30.8500  -17.1310 C.2   233  VAL233      0.2616
    150  O         -8.6040  -31.4040  -17.6380 O.2   233  VAL233     -0.2715
    151  CB       -11.6020  -32.0880  -18.0020 C.3   233  VAL233      0.0290
    152  CG1      -13.1120  -31.9080  -18.1190 C.3   233  VAL233      0.0023
    153  CG2      -11.0670  -32.8890  -19.1830 C.3   233  VAL233      0.0023
    154  N         -9.5700  -30.3280  -15.9080 N.am  234  HIS234     -0.1973
    155  CA        -8.4820  -30.5470  -14.9640 C.3   234  HIS234      0.1656
    156  C         -8.9330  -31.6050  -13.9680 C.2   234  HIS234      0.2291
    157  O         -9.8960  -31.3870  -13.2240 O.2   234  HIS234     -0.2864
    158  CB        -8.1090  -29.2580  -14.2320 C.3   234  HIS234      0.0771
    159  CG        -7.3110  -28.2970  -15.0550 C.ar  234  HIS234      0.0820
    160  ND1       -5.9500  -28.4210  -15.2320 N.ar  234  HIS234     -0.2267
    161  CD2       -7.6780  -27.1840  -15.7330 C.ar  234  HIS234      0.1154
    162  CE1       -5.5140  -27.4310  -15.9910 C.ar  234  HIS234      0.1986
    163  NE2       -6.5420  -26.6660  -16.3080 N.ar  234  HIS234     -0.2212
    164  N         -3.6730  -19.3770  -19.9310 N.3   289  HIS289     -0.1226
    165  CA        -4.1300  -18.1350  -19.3250 C.3   289  HIS289      0.1752
    166  C         -4.4290  -18.2880  -17.8390 C.2   289  HIS289      0.2596
    167  O         -4.6350  -17.2780  -17.1570 O.2   289  HIS289     -0.2718
    168  CB        -5.3730  -17.6280  -20.0560 C.3   289  HIS289      0.0759
    169  CG        -6.5570  -18.5330  -19.9260 C.ar  289  HIS289      0.0818
    170  ND1       -6.6080  -19.7780  -20.5150 N.ar  289  HIS289     -0.2268
    171  CD2       -7.7300  -18.3790  -19.2690 C.ar  289  HIS289      0.1154
    172  CE1       -7.7640  -20.3500  -20.2280 C.ar  289  HIS289      0.1986
    173  NE2       -8.4640  -19.5210  -19.4750 N.ar  289  HIS289     -0.2212
    174  N         -4.4590  -19.5170  -17.3280 N.am  290  ASP290     -0.1974
    175  CA        -4.6230  -19.7860  -15.9110 C.3   290  ASP290      0.1709
    176  C         -3.2640  -20.1310  -15.3040 C.2   290  ASP290      0.2293
    177  O         -2.2210  -20.0350  -15.9600 O.2   290  ASP290     -0.2864
    178  CB        -5.6370  -20.9130  -15.6990 C.3   290  ASP290      0.1436
    179  CG        -7.0410  -20.5260  -16.1160 C.2   290  ASP290      0.3671
    180  OD1       -7.4040  -19.3440  -15.9540 O.co2 290  ASP290     -0.2456
    181  OD2       -7.7820  -21.4070  -16.6000 O.co2 290  ASP290     -0.2456
    182  N         -2.7320  -30.3350   -9.8300 N.3   295  ILE295     -0.1245
    183  CA        -3.7040  -31.4000   -9.6120 C.3   295  ILE295      0.1561
    184  C         -3.6760  -32.4320  -10.7290 C.2   295  ILE295      0.2260
    185  O         -4.1740  -33.5480  -10.5500 O.2   295  ILE295     -0.2867
    186  CB        -5.1160  -30.7870   -9.4720 C.3   295  ILE295      0.0252
    187  CG1       -6.1660  -31.8810   -9.2430 C.3   295  ILE295      0.0019
    188  CG2       -5.4590  -29.9550  -10.7100 C.3   295  ILE295      0.0019
    189  CD1       -7.5670  -31.3510   -8.9890 C.3   295  ILE295      0.0001
    190  N         -8.0170  -36.0200   -5.4470 N.3   301  GLN301     -0.1245
    191  CA        -8.4000  -35.1840   -4.3170 C.3   301  GLN301      0.1566
    192  C         -9.6280  -35.7010   -3.5760 C.2   301  GLN301      0.2260
    193  O         -9.8880  -35.2460   -2.4570 O.2   301  GLN301     -0.2867
    194  CB        -8.6420  -33.7500   -4.7940 C.3   301  GLN301      0.0367
    195  CG        -7.3750  -33.0520   -5.2640 C.3   301  GLN301      0.0905
    196  CD        -7.5680  -31.5640   -5.4750 C.2   301  GLN301      0.2608
    197  OE1       -8.6830  -31.0970   -5.7110 O.2   301  GLN301     -0.2717
    198  NE2       -6.4780  -30.8090   -5.3870 N.am  301  GLN301     -0.0878
    199  N         -4.4300  -26.3340   -6.2700 N.3   344  TYR344     -0.1227
    200  CA        -4.9850  -26.6130   -7.5860 C.3   344  TYR344      0.1736
    201  C         -4.0730  -26.1150   -8.6960 C.2   344  TYR344      0.2595
    202  O         -3.7780  -26.8500   -9.6440 O.2   344  TYR344     -0.2718
    203  CB        -6.3670  -25.9600   -7.7090 C.3   344  TYR344      0.0548
    204  CG        -7.3260  -26.3720   -6.6170 C.ar  344  TYR344     -0.0200
    205  CD1       -7.8860  -27.6400   -6.6040 C.ar  344  TYR344     -0.0009
    206  CD2       -7.6680  -25.4940   -5.5950 C.ar  344  TYR344     -0.0009
    207  CE1       -8.7600  -28.0230   -5.6090 C.ar  344  TYR344      0.0417
    208  CE2       -8.5460  -25.8710   -4.5930 C.ar  344  TYR344      0.0417
    209  CZ        -9.0890  -27.1380   -4.6090 C.ar  344  TYR344      0.1957
    210  OH        -9.9630  -27.5340   -3.6250 O.3   344  TYR344     -0.2866
    211  N         -3.6110  -24.8730   -8.5840 N.am  345  PHE345     -0.1976
    212  CA        -2.7090  -24.2780   -9.5540 C.3   345  PHE345      0.1639
    213  C         -1.7020  -23.4150   -8.8070 C.2   345  PHE345      0.2290
    214  O         -1.9230  -23.0240   -7.6580 O.2   345  PHE345     -0.2864
    215  CB        -3.4690  -23.4360  -10.5910 C.3   345  PHE345      0.0560
    216  CG        -4.6670  -24.1340  -11.1830 C.ar  345  PHE345     -0.0200
    217  CD1       -5.8950  -24.0900  -10.5440 C.ar  345  PHE345     -0.0042
    218  CD2       -4.5650  -24.8290  -12.3770 C.ar  345  PHE345     -0.0042
    219  CE1       -6.9980  -24.7300  -11.0800 C.ar  345  PHE345     -0.0003
    220  CE2       -5.6650  -25.4710  -12.9210 C.ar  345  PHE345     -0.0003
    221  CZ        -6.8840  -25.4210  -12.2710 C.ar  345  PHE345     -0.0000
    222  N         -3.8110  -14.5770  -10.8600 N.3   399  ARG399     -0.1245
    223  CA        -3.5170  -15.0140  -12.2200 C.3   399  ARG399      0.1563
    224  C         -2.9250  -13.8990  -13.0750 C.2   399  ARG399      0.2260
    225  O         -2.2410  -14.1910  -14.0630 O.2   399  ARG399     -0.2867
    226  CB        -4.7870  -15.5740  -12.8660 C.3   399  ARG399      0.0307
    227  CG        -5.1690  -16.9560  -12.3450 C.3   399  ARG399      0.0489
    228  CD        -6.4770  -17.4490  -12.9330 C.3   399  ARG399      0.2205
    229  NE        -7.6230  -16.7040  -12.4230 N.pl3 399  ARG399     -0.0865
    230  CZ        -8.8670  -16.8490  -12.8650 C.cat 399  ARG399      0.5346
    231  NH1       -9.1390  -17.7060  -13.8390 N.pl3 399  ARG399      0.1354
    232  NH2       -9.8430  -16.1270  -12.3350 N.pl3 399  ARG399      0.1354
    233  N         -0.4370  -12.5550  -16.9550 N.3   403  ARG403     -0.1245
    234  CA        -1.3030  -11.9350  -17.9580 C.3   403  ARG403      0.1563
    235  C         -0.8320  -10.5150  -18.2590 C.2   403  ARG403      0.2260
    236  O         -1.6230   -9.5730  -18.3240 O.2   403  ARG403     -0.2867
    237  CB        -2.7590  -11.9310  -17.4990 C.3   403  ARG403      0.0307
    238  CG        -3.3460  -13.3080  -17.2640 C.3   403  ARG403      0.0489
    239  CD        -4.7810  -13.2140  -16.7690 C.3   403  ARG403      0.2205
    240  NE        -5.3940  -14.5300  -16.6030 N.pl3 403  ARG403     -0.0865
    241  CZ        -6.6080  -14.7360  -16.1010 C.cat 403  ARG403      0.5346
    242  NH1       -7.3530  -13.7120  -15.7050 N.pl3 403  ARG403      0.1354
    243  NH2       -7.0790  -15.9720  -15.9920 N.pl3 403  ARG403      0.1354
@<TRIPOS>BOND
     1    91    92    1
     2    92    95    1
     3    92    93    1
     4    95    96    1
     5    93    94    2
     6    96    97    1
     7    97    98    1
     8    98    99    2
     9   102   103    1
    10   138   139    1
    11    99   100    1
    12    99   101    1
    13   142   139    1
    14   142   143    1
    15   139   140    1
    16   103   106    1
    17   103   104    1
    18   106   107    1
    19    19    17   ar
    20    19    18   ar
    21    17    15   ar
    22   170   172   ar
    23   170   169   ar
    24   105   104    2
    25   172   173   ar
    26   104   110   am
    27    18    16   ar
    28   168   169    1
    29   168   165    1
    30    15    14   ar
    31   143   144    1
    32   164   165    1
    33   169   171   ar
    34   140   141    2
    35   140   147   am
    36   107   108    2
    37   107   109   am
    38   173   171   ar
    39   165   166    1
    40   145   144   ar
    41    16    14   ar
    42    23    22    2
    43   147   148    1
    44     9    10    1
    45    14    13    1
    46   153   151    1
    47   110   111    1
    48    10    13    1
    49    10    11    1
    50   144   146   ar
    51   112   111    1
    52   112   113    2
    53   236   235    2
    54   235   234    1
    55    20    21    1
    56    11    12    2
    57    22    21    1
    58   152   151    1
    59   111   114    1
    60   151   148    1
    61   234   237    1
    62   234   233    1
    63   148   149    1
    64   166   174   am
    65   166   167    2
    66   150   149    2
    67   237   238    1
    68    21    24    1
    69   174   175    1
    70   238   239    1
    71   149   154   am
    72     4     3    2
    73   239   240    1
    74   240   241    2
    75   181   179   ar
    76    27    29   ar
    77    27    25   ar
    78    29    28   ar
    79   115   116    1
    80   163   162   ar
    81   163   161   ar
    82     3     2    1
    83    25    24    1
    84    25    26   ar
    85   179   180   ar
    86   179   178    1
    87    28    26   ar
    88   241   243    1
    89   241   242    1
    90   117   116    1
    91   117   118    2
    92   162   160   ar
    93   177   176    2
    94   175   178    1
    95   175   176    1
    96   154   155    1
    97   161   159   ar
    98   116   119    1
    99   160   159   ar
   100   159   158    1
   101    90    88   am
   102   155   158    1
   103   155   156    1
   104     8     6   ar
   105     2     5    1
   106     2     1    1
   107     6     5    1
   108     6     7   ar
   109   119   120    1
   110   121   120   ar
   111   121   123   ar
   112   135   137   ar
   113   135   133   ar
   114   129   130    2
   115   129   128    1
   116   137   136   ar
   117   225   224    2
   118    87    88    1
   119    87    86    1
   120   156   157    2
   121    88    89    2
   122   231   230    1
   123    80    81   ar
   124    80    78   ar
   125   120   122   ar
   126   133   132   ar
   127   136   134   ar
   128   123   125   ar
   129    81    79   ar
   130   128   127    1
   131   128   131    1
   132    86    83    1
   133   132   134   ar
   134   132   131    1
   135    83    84    1
   136    83    82    1
   137    78    76   ar
   138   224   223    1
   139   228   229    1
   140   228   227    1
   141   220   218   ar
   142   220   221   ar
   143    84    85    2
   144   226   227    1
   145   226   223    1
   146   230   229    2
   147   230   232    1
   148    79    77   ar
   149   122   124   ar
   150   125   124   ar
   151   125   126    1
   152   218   216   ar
   153   221   219   ar
   154   223   222    1
   155    76    77   ar
   156    76    75    1
   157    75    72    1
   158   216   215    1
   159   216   217   ar
   160   219   217   ar
   161   184   185    2
   162   184   183    1
   163   188   186    1
   164    70    68    1
   165   215   212    1
   166    39    37   ar
   167    39    40   ar
   168    71    72    1
   169    37    35   ar
   170    41    40    1
   171    72    73    1
   172   182   183    1
   173    40    38   ar
   174    58    57    1
   175    58    59    1
   176    57    54    1
   177   202   201    2
   178    68    69    1
   179    68    67    2
   180   183   186    1
   181   212   213    1
   182   212   211    1
   183   186   187    1
   184    73    74    2
   185    35    34    1
   186    35    36   ar
   187   187   189    1
   188    59    53    1
   189    34    31    1
   190    38    36   ar
   191   213   214    2
   192   201   211   am
   193   201   200    1
   194    67    66    1
   195    33    32    2
   196    54    53    1
   197    54    55    1
   198    53    44   am
   199    32    31    1
   200    32    42   am
   201   203   200    1
   202   203   204    1
   203    31    30    1
   204   200   199    1
   205    65    66    1
   206    65    64    1
   207    51    50    1
   208    44    43    1
   209    44    45    2
   210    55    56    2
   211    55    60   am
   212    42    43    1
   213    43    46    1
   214   204   205   ar
   215   204   206   ar
   216   205   207   ar
   217    60    61    1
   218    50    52    1
   219    50    49    2
   220    64    61    1
   221   197   196    2
   222    48    49    1
   223    48    47    1
   224   207   209   ar
   225   206   208   ar
   226    61    62    1
   227   196   198   am
   228   196   195    1
   229   190   191    1
   230    46    47    1
   231   195   194    1
   232   194   191    1
   233   209   208   ar
   234   209   210    1
   235   191   192    1
   236    63    62    2
   237   192   193    2
