@<TRIPOS>MOLECULE
tmp/5ma0B01.pdb
 127 126 0 0 0
SMALL
GASTEIGER

@<TRIPOS>ATOM
      1  N         -1.2460  -58.8130  -22.6090 N.3    32  PHE32      -0.1241
      2  CA        -2.4220  -57.9510  -22.7250 C.3    32  PHE32       0.1605
      3  C         -3.0480  -58.0100  -24.1140 C.2    32  PHE32       0.2264
      4  O         -4.2560  -57.7940  -24.2560 O.2    32  PHE32      -0.2867
      5  CB        -2.0490  -56.4910  -22.4420 C.3    32  PHE32       0.0534
      6  CG        -1.8140  -56.1650  -20.9840 C.ar   32  PHE32      -0.0203
      7  CD1       -2.5600  -56.7630  -19.9790 C.ar   32  PHE32      -0.0042
      8  CD2       -0.8610  -55.2160  -20.6280 C.ar   32  PHE32      -0.0042
      9  CE1       -2.3490  -56.4410  -18.6440 C.ar   32  PHE32      -0.0003
     10  CE2       -0.6350  -54.8950  -19.2860 C.ar   32  PHE32      -0.0003
     11  CZ        -1.3870  -55.5040  -18.2960 C.ar   32  PHE32      -0.0000
     12  N        -10.0700  -60.4330  -21.8150 N.3    50  TRP50      -0.1241
     13  CA        -9.7530  -60.6350  -20.4040 C.3    50  TRP50       0.1605
     14  C        -10.2780  -59.4990  -19.5380 C.2    50  TRP50       0.2264
     15  O        -10.7250  -59.7330  -18.4090 O.2    50  TRP50      -0.2867
     16  CB        -8.2390  -60.7980  -20.2080 C.3    50  TRP50       0.0550
     17  CG        -7.4470  -59.5790  -20.5360 C.ar   50  TRP50       0.0003
     18  CD1       -6.8990  -59.2610  -21.7480 C.ar   50  TRP50       0.0946
     19  CD2       -7.1130  -58.4990  -19.6470 C.ar   50  TRP50       0.0152
     20  NE1       -6.2460  -58.0530  -21.6650 N.ar   50  TRP50      -0.2442
     21  CE2       -6.3580  -57.5680  -20.3870 C.ar   50  TRP50       0.0810
     22  CE3       -7.3710  -58.2350  -18.2980 C.ar   50  TRP50       0.0012
     23  CZ2       -5.8740  -56.3810  -19.8290 C.ar   50  TRP50       0.0191
     24  CZ3       -6.8810  -57.0590  -17.7410 C.ar   50  TRP50       0.0001
     25  CH2       -6.1420  -56.1500  -18.5070 C.ar   50  TRP50       0.0015
     26  N         -8.3270  -43.8300  -13.9290 N.3    90  TRP90      -0.1241
     27  CA        -7.9630  -44.0220  -15.3340 C.3    90  TRP90       0.1605
     28  C         -8.4090  -42.8800  -16.2480 C.2    90  TRP90       0.2264
     29  O         -8.3230  -43.0330  -17.4740 O.2    90  TRP90      -0.2867
     30  CB        -8.5950  -45.3190  -15.8640 C.3    90  TRP90       0.0550
     31  CG        -8.0480  -46.6020  -15.3190 C.ar   90  TRP90       0.0003
     32  CD1       -8.6540  -47.4400  -14.4180 C.ar   90  TRP90       0.0946
     33  CD2       -6.7990  -47.2230  -15.6700 C.ar   90  TRP90       0.0152
     34  NE1       -7.8490  -48.5370  -14.1780 N.ar   90  TRP90      -0.2442
     35  CE2       -6.7150  -48.4330  -14.9430 C.ar   90  TRP90       0.0810
     36  CE3       -5.7500  -46.8750  -16.5330 C.ar   90  TRP90       0.0012
     37  CZ2       -5.6200  -49.2940  -15.0460 C.ar   90  TRP90       0.0191
     38  CZ3       -4.6650  -47.7330  -16.6390 C.ar   90  TRP90       0.0001
     39  CH2       -4.6070  -48.9290  -15.8960 C.ar   90  TRP90       0.0015
     40  N         -6.2440  -48.5110  -21.2900 N.3    96  TYR96      -0.1227
     41  CA        -5.2980  -49.1730  -20.3980 C.3    96  TYR96       0.1736
     42  C         -3.8660  -49.0740  -20.9020 C.2    96  TYR96       0.2596
     43  O         -3.2960  -50.0590  -21.3830 O.2    96  TYR96      -0.2718
     44  CB        -5.6990  -50.6380  -20.1740 C.3    96  TYR96       0.0548
     45  CG        -7.0320  -50.7370  -19.4720 C.ar   96  TYR96      -0.0200
     46  CD1       -7.2110  -50.1480  -18.2290 C.ar   96  TYR96      -0.0009
     47  CD2       -8.1130  -51.3990  -20.0520 C.ar   96  TYR96      -0.0009
     48  CE1       -8.4210  -50.2030  -17.5760 C.ar   96  TYR96       0.0417
     49  CE2       -9.3500  -51.4670  -19.3970 C.ar   96  TYR96       0.0417
     50  CZ        -9.4880  -50.8680  -18.1480 C.ar   96  TYR96       0.1957
     51  OH       -10.6890  -50.9070  -17.4560 O.3    96  TYR96      -0.2866
     52  N         -3.2760  -47.8910  -20.7770 N.am   97  GLY97      -0.1957
     53  CA        -1.8410  -47.7140  -20.9320 C.3    97  GLY97       0.1869
     54  C         -1.4140  -46.7250  -21.9920 C.2    97  GLY97       0.2309
     55  O         -0.2020  -46.5010  -22.1380 O.2    97  GLY97      -0.2863
     56  N         -1.0960  -46.9170  -25.1630 N.3    99  ILE99      -0.1245
     57  CA        -0.0240  -47.5090  -25.9700 C.3    99  ILE99       0.1561
     58  C         -0.0430  -47.0840  -27.4370 C.2    99  ILE99       0.2260
     59  O          1.0170  -47.1340  -28.0870 O.2    99  ILE99      -0.2867
     60  CB        -0.0200  -49.0510  -25.8940 C.3    99  ILE99       0.0252
     61  CG1       -1.2220  -49.6570  -26.6230 C.3    99  ILE99       0.0019
     62  CG2        0.0250  -49.5300  -24.4350 C.3    99  ILE99       0.0019
     63  CD1       -1.2370  -51.1970  -26.5780 C.3    99  ILE99       0.0001
     64  N         -2.7460  -47.8930   -8.7340 N.3   236  THR236     -0.1218
     65  CA        -2.2870  -48.1700  -10.0920 C.3   236  THR236      0.1862
     66  C         -2.9330  -47.2140  -11.0920 C.2   236  THR236      0.2287
     67  O         -2.2450  -46.5620  -11.8860 O.2   236  THR236     -0.2866
     68  CB        -2.6070  -49.6300  -10.4620 C.3   236  THR236      0.1770
     69  OG1       -1.8290  -50.5200   -9.6480 O.3   236  THR236     -0.2211
     70  CG2       -2.3120  -49.9050  -11.9390 C.3   236  THR236      0.0375
     71  N         -1.4690  -44.0440  -13.6600 N.3   240  TYR240     -0.1241
     72  CA        -1.4760  -44.0140  -15.1240 C.3   240  TYR240      0.1605
     73  C         -1.8830  -42.6450  -15.6470 C.2   240  TYR240      0.2264
     74  O         -1.3250  -42.1620  -16.6390 O.2   240  TYR240     -0.2867
     75  CB        -2.3920  -45.1010  -15.6950 C.3   240  TYR240      0.0534
     76  CG        -1.6330  -46.3900  -15.9180 C.ar  240  TYR240     -0.0201
     77  CD1       -0.7360  -46.5180  -16.9770 C.ar  240  TYR240     -0.0009
     78  CD2       -1.7780  -47.4600  -15.0440 C.ar  240  TYR240     -0.0009
     79  CE1       -0.0130  -47.6940  -17.1710 C.ar  240  TYR240      0.0417
     80  CE2       -1.0670  -48.6380  -15.2290 C.ar  240  TYR240      0.0417
     81  CZ        -0.1770  -48.7470  -16.2870 C.ar  240  TYR240      0.1957
     82  OH         0.5250  -49.9270  -16.4630 O.3   240  TYR240     -0.2866
     83  N          2.7710  -46.5040  -21.6590 N.3   266  ASN266     -0.1240
     84  CA         3.1150  -47.9260  -21.7730 C.3   266  ASN266      0.1653
     85  C          3.4970  -48.3460  -23.1940 C.2   266  ASN266      0.2266
     86  O          3.8470  -49.5150  -23.4010 O.2   266  ASN266     -0.2867
     87  CB         1.9560  -48.7960  -21.2760 C.3   266  ASN266      0.1155
     88  CG         1.9980  -49.0240  -19.7700 C.2   266  ASN266      0.2627
     89  OD1        2.8080  -48.4120  -19.0460 O.2   266  ASN266     -0.2716
     90  ND2        1.1380  -49.9130  -19.2890 N.am  266  ASN266     -0.0877
     91  N          5.4950  -46.4810  -10.7790 N.3   299  ARG299     -0.1245
     92  CA         5.2340  -46.6530  -12.2010 C.3   299  ARG299      0.1563
     93  C          6.2870  -45.9160  -13.0190 C.2   299  ARG299      0.2260
     94  O          6.9910  -45.0370  -12.5210 O.2   299  ARG299     -0.2867
     95  CB         3.8320  -46.1630  -12.5780 C.3   299  ARG299      0.0307
     96  CG         2.7440  -46.7520  -11.6920 C.3   299  ARG299      0.0489
     97  CD         1.4490  -47.0190  -12.4570 C.3   299  ARG299      0.2205
     98  NE         1.5370  -48.1710  -13.3640 N.pl3 299  ARG299     -0.0865
     99  CZ         1.4320  -49.4430  -12.9820 C.cat 299  ARG299      0.5346
    100  NH1        1.2710  -49.7500  -11.6980 N.pl3 299  ARG299      0.1354
    101  NH2        1.5050  -50.4120  -13.8820 N.pl3 299  ARG299      0.1354
    102  N         -5.9940  -62.1010  -13.2800 N.3   370  TRP370     -0.1241
    103  CA        -6.6570  -60.8000  -13.1720 C.3   370  TRP370      0.1605
    104  C         -8.1690  -60.9120  -13.3330 C.2   370  TRP370      0.2264
    105  O         -8.8970  -60.3130  -12.5280 O.2   370  TRP370     -0.2867
    106  CB        -6.0420  -59.8080  -14.1680 C.3   370  TRP370      0.0550
    107  CG        -4.6010  -59.4260  -13.8700 C.ar  370  TRP370      0.0003
    108  CD1       -3.6820  -60.1520  -13.1780 C.ar  370  TRP370      0.0946
    109  CD2       -3.9400  -58.2150  -14.2620 C.ar  370  TRP370      0.0152
    110  NE1       -2.4820  -59.4750  -13.1230 N.ar  370  TRP370     -0.2442
    111  CE2       -2.6170  -58.2840  -13.7830 C.ar  370  TRP370      0.0810
    112  CE3       -4.3400  -57.0820  -14.9770 C.ar  370  TRP370      0.0012
    113  CZ2       -1.6950  -57.2580  -13.9890 C.ar  370  TRP370      0.0191
    114  CZ3       -3.4220  -56.0710  -15.1900 C.ar  370  TRP370      0.0001
    115  CH2       -2.1170  -56.1660  -14.7010 C.ar  370  TRP370      0.0015
    116  N         -5.8100  -55.8840  -10.6640 N.3   376  TYR376     -0.1241
    117  CA        -4.5110  -55.8700  -11.3290 C.3   376  TYR376      0.1605
    118  C         -3.4480  -56.5140  -10.4570 C.2   376  TYR376      0.2264
    119  O         -2.2600  -56.2400  -10.6320 O.2   376  TYR376     -0.2867
    120  CB        -4.0800  -54.4420  -11.7050 C.3   376  TYR376      0.0534
    121  CG        -5.2130  -53.5650  -12.1550 C.ar  376  TYR376     -0.0201
    122  CD1       -6.1640  -54.0330  -13.0550 C.ar  376  TYR376     -0.0009
    123  CD2       -5.3350  -52.2520  -11.6870 C.ar  376  TYR376     -0.0009
    124  CE1       -7.2240  -53.2320  -13.4660 C.ar  376  TYR376      0.0417
    125  CE2       -6.3890  -51.4440  -12.0960 C.ar  376  TYR376      0.0417
    126  CZ        -7.3330  -51.9440  -12.9810 C.ar  376  TYR376      0.1957
    127  OH        -8.3940  -51.1670  -13.3860 O.3   376  TYR376     -0.2866
@<TRIPOS>BOND
     1    59    58    2
     2    58    57    1
     3    61    63    1
     4    61    60    1
     5    57    60    1
     6    57    56    1
     7    60    62    1
     8     4     3    2
     9     3     2    1
    10    86    85    2
    11    85    84    1
    12     2     1    1
    13     2     5    1
    14     5     6    1
    15    55    54    2
    16    54    53    1
    17    12    13    1
    18    84    83    1
    19    84    87    1
    20    18    20   ar
    21    18    17   ar
    22    20    21   ar
    23    43    42    2
    24    40    41    1
    25    87    88    1
    26     6     8   ar
    27     6     7   ar
    28    53    52    1
    29    42    52   am
    30    42    41    1
    31     8    10   ar
    32    17    16    1
    33    17    19   ar
    34    13    16    1
    35    13    14    1
    36    41    44    1
    37    21    23   ar
    38    21    19   ar
    39    44    45    1
    40    47    45   ar
    41    47    49   ar
    42     7     9   ar
    43    23    25   ar
    44    88    90   am
    45    88    89    2
    46    19    22   ar
    47    14    15    2
    48    45    46   ar
    49    49    50   ar
    50    10    11   ar
    51     9    11   ar
    52    25    24   ar
    53    22    24   ar
    54    46    48   ar
    55    50    48   ar
    56    50    51    1
    57    29    28    2
    58    79    77   ar
    59    79    81   ar
    60    77    76   ar
    61    38    36   ar
    62    38    39   ar
    63    74    73    2
    64    36    33   ar
    65    82    81    1
    66    81    80   ar
    67    28    27    1
    68    76    75    1
    69    76    78   ar
    70    39    37   ar
    71    30    27    1
    72    30    31    1
    73    75    72    1
    74    33    31   ar
    75    33    35   ar
    76    73    72    1
    77    27    26    1
    78    31    32   ar
    79    80    78   ar
    80   114   112   ar
    81   114   115   ar
    82    72    71    1
    83    37    35   ar
    84   112   109   ar
    85    35    34   ar
    86   115   113   ar
    87    32    34   ar
    88   109   107   ar
    89   109   111   ar
    90   106   107    1
    91   106   103    1
    92   113   111   ar
    93   101    99    1
    94   107   108   ar
    95   111   110   ar
    96   124   122   ar
    97   124   126   ar
    98   127   126    1
    99    98    99    2
   100    98    97    1
   101   104   103    1
   102   104   105    2
   103   102   103    1
   104   108   110   ar
   105   122   121   ar
   106    93    94    2
   107    93    92    1
   108    99   100    1
   109   126   125   ar
   110    95    92    1
   111    95    96    1
   112    97    96    1
   113    92    91    1
   114   121   120    1
   115   121   123   ar
   116   125   123   ar
   117    70    68    1
   118    67    66    2
   119   120   117    1
   120   117   116    1
   121   117   118    1
   122    66    65    1
   123   119   118    2
   124    68    65    1
   125    68    69    1
   126    65    64    1
