@<TRIPOS>MOLECULE
tmp/5ma2B04.pdb
 126 127 0 0 0
SMALL
GASTEIGER

@<TRIPOS>ATOM
      1  N         -1.4380  -59.0100  -22.5540 N.3    31  PHE31      -0.1241
      2  CA        -2.5960  -58.1310  -22.6860 C.3    31  PHE31       0.1605
      3  C         -3.2340  -58.2180  -24.0680 C.2    31  PHE31       0.2264
      4  O         -4.4560  -58.0740  -24.2010 O.2    31  PHE31      -0.2867
      5  CB        -2.1750  -56.6770  -22.4320 C.3    31  PHE31       0.0534
      6  CG        -1.9630  -56.3250  -20.9810 C.ar   31  PHE31      -0.0203
      7  CD1       -2.6670  -56.9630  -19.9800 C.ar   31  PHE31      -0.0042
      8  CD2       -1.0740  -55.3140  -20.6250 C.ar   31  PHE31      -0.0042
      9  CE1       -2.4900  -56.6040  -18.6420 C.ar   31  PHE31      -0.0003
     10  CE2       -0.8790  -54.9580  -19.2890 C.ar   31  PHE31      -0.0003
     11  CZ        -1.5910  -55.6000  -18.2970 C.ar   31  PHE31      -0.0000
     12  N        -10.2270  -60.7100  -21.8720 N.3    49  TRP49      -0.1227
     13  CA        -9.9110  -60.9080  -20.4590 C.3    49  TRP49       0.1737
     14  C        -10.4180  -59.7630  -19.5920 C.2    49  TRP49       0.2595
     15  O        -10.8870  -59.9940  -18.4700 O.2    49  TRP49      -0.2718
     16  CB        -8.4010  -61.0890  -20.2690 C.3    49  TRP49       0.0564
     17  CG        -7.5790  -59.8900  -20.6730 C.ar   49  TRP49       0.0003
     18  CD1       -7.0440  -59.6380  -21.9080 C.ar   49  TRP49       0.0946
     19  CD2       -7.1900  -58.7890  -19.8360 C.ar   49  TRP49       0.0152
     20  NE1       -6.3520  -58.4490  -21.8880 N.ar   49  TRP49      -0.2442
     21  CE2       -6.4270  -57.9100  -20.6290 C.ar   49  TRP49       0.0810
     22  CE3       -7.4160  -58.4620  -18.4950 C.ar   49  TRP49       0.0012
     23  CZ2       -5.8990  -56.7230  -20.1280 C.ar   49  TRP49       0.0191
     24  CZ3       -6.8870  -57.2880  -17.9980 C.ar   49  TRP49       0.0001
     25  CH2       -6.1340  -56.4310  -18.8100 C.ar   49  TRP49       0.0015
     26  N        -10.3250  -58.5180  -20.0760 N.am   50  PHE50      -0.1976
     27  CA       -10.7230  -57.4060  -19.2170 C.3    50  PHE50       0.1639
     28  C        -12.2360  -57.3280  -19.0440 C.2    50  PHE50       0.2290
     29  O        -12.7080  -56.7910  -18.0330 O.2    50  PHE50      -0.2864
     30  CB       -10.1620  -56.0720  -19.7510 C.3    50  PHE50       0.0560
     31  CG       -10.4950  -55.7970  -21.1930 C.ar   50  PHE50      -0.0200
     32  CD1       -9.6680  -56.2490  -22.2070 C.ar   50  PHE50      -0.0042
     33  CD2      -11.6270  -55.0790  -21.5320 C.ar   50  PHE50      -0.0042
     34  CE1       -9.9770  -56.0130  -23.5390 C.ar   50  PHE50      -0.0003
     35  CE2      -11.9370  -54.8310  -22.8580 C.ar   50  PHE50      -0.0003
     36  CZ       -11.1120  -55.3090  -23.8630 C.ar   50  PHE50      -0.0000
     37  N         -8.4320  -43.9350  -13.8430 N.3    89  TRP89      -0.1241
     38  CA        -8.0810  -44.1270  -15.2430 C.3    89  TRP89       0.1605
     39  C         -8.5280  -42.9810  -16.1590 C.2    89  TRP89       0.2264
     40  O         -8.4330  -43.1390  -17.3780 O.2    89  TRP89      -0.2867
     41  CB        -8.7290  -45.4250  -15.7580 C.3    89  TRP89       0.0550
     42  CG        -8.1430  -46.7060  -15.2560 C.ar   89  TRP89       0.0003
     43  CD1       -8.7210  -47.5720  -14.3730 C.ar   89  TRP89       0.0946
     44  CD2       -6.9020  -47.2960  -15.6470 C.ar   89  TRP89       0.0152
     45  NE1       -7.9050  -48.6590  -14.1740 N.ar   89  TRP89      -0.2442
     46  CE2       -6.7900  -48.5210  -14.9580 C.ar   89  TRP89       0.0810
     47  CE3       -5.8770  -46.9130  -16.5280 C.ar   89  TRP89       0.0012
     48  CZ2       -5.6830  -49.3590  -15.0980 C.ar   89  TRP89       0.0191
     49  CZ3       -4.7950  -47.7440  -16.6800 C.ar   89  TRP89       0.0001
     50  CH2       -4.6980  -48.9600  -15.9670 C.ar   89  TRP89       0.0015
     51  N         -6.3230  -48.5580  -21.1550 N.3    95  TYR95      -0.1241
     52  CA        -5.4240  -49.2360  -20.2250 C.3    95  TYR95       0.1605
     53  C         -3.9750  -49.1960  -20.6940 C.2    95  TYR95       0.2264
     54  O         -3.3940  -50.2230  -21.0660 O.2    95  TYR95      -0.2867
     55  CB        -5.8840  -50.6770  -19.9860 C.3    95  TYR95       0.0534
     56  CG        -7.2320  -50.7440  -19.3020 C.ar   95  TYR95      -0.0201
     57  CD1       -7.4340  -50.1070  -18.0850 C.ar   95  TYR95      -0.0009
     58  CD2       -8.3020  -51.4280  -19.8720 C.ar   95  TYR95      -0.0009
     59  CE1       -8.6560  -50.1490  -17.4430 C.ar   95  TYR95       0.0417
     60  CE2       -9.5420  -51.4820  -19.2310 C.ar   95  TYR95       0.0417
     61  CZ        -9.7040  -50.8390  -18.0060 C.ar   95  TYR95       0.1957
     62  OH       -10.9150  -50.8640  -17.3400 O.3    95  TYR95      -0.2866
     63  N         -2.8270  -48.0260   -8.6910 N.3   235  THR235     -0.1218
     64  CA        -2.3880  -48.2970  -10.0630 C.3   235  THR235      0.1862
     65  C         -3.0340  -47.3350  -11.0480 C.2   235  THR235      0.2287
     66  O         -2.3470  -46.6710  -11.8330 O.2   235  THR235     -0.2866
     67  CB        -2.7200  -49.7490  -10.4450 C.3   235  THR235      0.1770
     68  OG1       -1.9830  -50.6630   -9.6240 O.3   235  THR235     -0.2211
     69  CG2       -2.4060  -50.0310  -11.9180 C.3   235  THR235      0.0375
     70  N         -1.5310  -44.1670  -13.6150 N.3   239  TYR239     -0.1241
     71  CA        -1.5480  -44.1340  -15.0760 C.3   239  TYR239      0.1605
     72  C         -1.9630  -42.7630  -15.5870 C.2   239  TYR239      0.2264
     73  O         -1.4240  -42.2720  -16.5890 O.2   239  TYR239     -0.2867
     74  CB        -2.4680  -45.2300  -15.6340 C.3   239  TYR239      0.0534
     75  CG        -1.7140  -46.5200  -15.8600 C.ar  239  TYR239     -0.0201
     76  CD1       -0.8230  -46.6380  -16.9160 C.ar  239  TYR239     -0.0009
     77  CD2       -1.8600  -47.6030  -14.9960 C.ar  239  TYR239     -0.0009
     78  CE1       -0.1010  -47.8040  -17.1180 C.ar  239  TYR239      0.0417
     79  CE2       -1.1500  -48.7720  -15.1890 C.ar  239  TYR239      0.0417
     80  CZ        -0.2690  -48.8700  -16.2560 C.ar  239  TYR239      0.1957
     81  OH         0.4440  -50.0250  -16.4590 O.3   239  TYR239     -0.2866
     82  N          2.7130  -46.6260  -21.6230 N.3   265  ASN265     -0.1240
     83  CA         3.0240  -48.0540  -21.7290 C.3   265  ASN265      0.1653
     84  C          3.3680  -48.4920  -23.1420 C.2   265  ASN265      0.2266
     85  O          3.6380  -49.6820  -23.3580 O.2   265  ASN265     -0.2867
     86  CB         1.8570  -48.9070  -21.2170 C.3   265  ASN265      0.1155
     87  CG         1.9290  -49.1320  -19.7280 C.2   265  ASN265      0.2627
     88  OD1        2.7400  -48.5070  -19.0340 O.2   265  ASN265     -0.2716
     89  ND2        1.0890  -50.0310  -19.2210 N.am  265  ASN265     -0.0877
     90  N          5.4270  -46.5830  -10.7330 N.3   298  ARG298     -0.1245
     91  CA         5.1430  -46.7770  -12.1460 C.3   298  ARG298      0.1563
     92  C          6.1860  -46.0460  -12.9800 C.2   298  ARG298      0.2260
     93  O          6.9050  -45.1700  -12.4920 O.2   298  ARG298     -0.2867
     94  CB         3.7330  -46.3010  -12.5070 C.3   298  ARG298      0.0307
     95  CG         2.6330  -46.9080  -11.6430 C.3   298  ARG298      0.0489
     96  CD         1.3450  -47.1710  -12.4500 C.3   298  ARG298      0.2205
     97  NE         1.4280  -48.3330  -13.3460 N.pl3 298  ARG298     -0.0865
     98  CZ         1.3220  -49.6010  -12.9330 C.cat 298  ARG298      0.5346
     99  NH1        1.1730  -49.8690  -11.6390 N.pl3 298  ARG298      0.1354
    100  NH2        1.3800  -50.6010  -13.8020 N.pl3 298  ARG298      0.1354
    101  N         -6.1080  -62.2380  -13.2570 N.3   369  TRP369     -0.1241
    102  CA        -6.8000  -60.9510  -13.1710 C.3   369  TRP369      0.1605
    103  C         -8.3140  -61.0880  -13.3200 C.2   369  TRP369      0.2264
    104  O         -9.0440  -60.4840  -12.5160 O.2   369  TRP369     -0.2867
    105  CB        -6.2160  -59.9660  -14.1910 C.3   369  TRP369      0.0550
    106  CG        -4.8020  -59.5620  -13.9200 C.ar  369  TRP369      0.0003
    107  CD1       -3.8530  -60.2780  -13.2690 C.ar  369  TRP369      0.0946
    108  CD2       -4.1860  -58.3230  -14.2900 C.ar  369  TRP369      0.0152
    109  NE1       -2.6730  -59.5680  -13.2120 N.ar  369  TRP369     -0.2442
    110  CE2       -2.8560  -58.3640  -13.8360 C.ar  369  TRP369      0.0810
    111  CE3       -4.6340  -57.1840  -14.9680 C.ar  369  TRP369      0.0012
    112  CZ2       -1.9680  -57.3100  -14.0310 C.ar  369  TRP369      0.0191
    113  CZ3       -3.7520  -56.1480  -15.1730 C.ar  369  TRP369      0.0001
    114  CH2       -2.4310  -56.2200  -14.7060 C.ar  369  TRP369      0.0015
    115  N         -5.9290  -56.0360  -10.6480 N.3   375  TYR375     -0.1241
    116  CA        -4.6290  -56.0530  -11.3110 C.3   375  TYR375      0.1605
    117  C         -3.5700  -56.6880  -10.4210 C.2   375  TYR375      0.2264
    118  O         -2.3790  -56.4130  -10.5760 O.2   375  TYR375     -0.2867
    119  CB        -4.1890  -54.6410  -11.7250 C.3   375  TYR375      0.0534
    120  CG        -5.3280  -53.7360  -12.1440 C.ar  375  TYR375     -0.0201
    121  CD1       -6.3620  -54.2060  -12.9500 C.ar  375  TYR375     -0.0009
    122  CD2       -5.3750  -52.4070  -11.7220 C.ar  375  TYR375     -0.0009
    123  CE1       -7.4090  -53.3890  -13.3080 C.ar  375  TYR375      0.0417
    124  CE2       -6.4130  -51.5760  -12.0920 C.ar  375  TYR375      0.0417
    125  CZ        -7.4310  -52.0760  -12.8750 C.ar  375  TYR375      0.1957
    126  OH        -8.4870  -51.2810  -13.2400 O.3   375  TYR375     -0.2866
@<TRIPOS>BOND
     1     4     3    2
     2     3     2    1
     3    36    34   ar
     4    36    35   ar
     5    34    32   ar
     6    85    84    2
     7    84    83    1
     8    35    33   ar
     9     2     1    1
    10     2     5    1
    11     5     6    1
    12    32    31   ar
    13    18    20   ar
    14    18    17   ar
    15    20    21   ar
    16    12    13    1
    17    83    82    1
    18    83    86    1
    19    33    31   ar
    20    86    87    1
    21    31    30    1
    22    51    52    1
    23    54    53    2
    24     6     8   ar
    25     6     7   ar
    26    53    52    1
    27    17    16    1
    28    17    19   ar
    29    21    23   ar
    30    21    19   ar
    31     8    10   ar
    32    13    16    1
    33    13    14    1
    34    52    55    1
    35    23    25   ar
    36    26    14   am
    37    26    27    1
    38    55    56    1
    39     7     9   ar
    40    58    56   ar
    41    58    60   ar
    42    19    22   ar
    43    30    27    1
    44    87    89   am
    45    87    88    2
    46    14    15    2
    47    56    57   ar
    48    10    11   ar
    49    60    61   ar
    50    27    28    1
    51    28    29    2
    52    25    24   ar
    53     9    11   ar
    54    22    24   ar
    55    57    59   ar
    56    61    59   ar
    57    61    62    1
    58    40    39    2
    59    78    76   ar
    60    78    80   ar
    61    76    75   ar
    62    49    47   ar
    63    49    50   ar
    64    73    72    2
    65    47    44   ar
    66    81    80    1
    67    80    79   ar
    68    39    38    1
    69    50    48   ar
    70    75    74    1
    71    75    77   ar
    72    41    42    1
    73    41    38    1
    74    44    42   ar
    75    44    46   ar
    76    74    71    1
    77    72    71    1
    78    42    43   ar
    79    38    37    1
    80    79    77   ar
    81   113   111   ar
    82   113   114   ar
    83    48    46   ar
    84    71    70    1
    85   111   108   ar
    86    46    45   ar
    87   114   112   ar
    88    43    45   ar
    89   108   106   ar
    90   108   110   ar
    91   105   106    1
    92   105   102    1
    93   112   110   ar
    94   106   107   ar
    95   110   109   ar
    96   100    98    1
    97    97    98    2
    98    97    96    1
    99   103   102    1
   100   103   104    2
   101   123   121   ar
   102   123   125   ar
   103   107   109   ar
   104   101   102    1
   105   126   125    1
   106    92    93    2
   107    92    91    1
   108   121   120   ar
   109    98    99    1
   110   125   124   ar
   111    94    91    1
   112    94    95    1
   113    96    95    1
   114    91    90    1
   115   120   119    1
   116   120   122   ar
   117   124   122   ar
   118    69    67    1
   119    66    65    2
   120   119   116    1
   121   116   115    1
   122   116   117    1
   123    65    64    1
   124   118   117    2
   125    67    64    1
   126    67    68    1
   127    64    63    1
