@<TRIPOS>MOLECULE
tmp/5maaB02.pdb
 115 115 0 0 0
SMALL
GASTEIGER

@<TRIPOS>ATOM
      1  N         -1.4340  -59.0340  -22.6410 N.3    33  PHE33      -0.1241
      2  CA        -2.6030  -58.1630  -22.7680 C.3    33  PHE33       0.1605
      3  C         -3.2330  -58.2320  -24.1540 C.2    33  PHE33       0.2264
      4  O         -4.4440  -58.0240  -24.3000 O.2    33  PHE33      -0.2867
      5  CB        -2.2130  -56.7100  -22.5030 C.3    33  PHE33       0.0534
      6  CG        -2.0150  -56.3780  -21.0610 C.ar   33  PHE33      -0.0203
      7  CD1       -2.7910  -56.9690  -20.0770 C.ar   33  PHE33      -0.0042
      8  CD2       -1.0620  -55.4490  -20.6870 C.ar   33  PHE33      -0.0042
      9  CE1       -2.6090  -56.6350  -18.7420 C.ar   33  PHE33      -0.0003
     10  CE2       -0.8710  -55.1190  -19.3470 C.ar   33  PHE33      -0.0003
     11  CZ        -1.6450  -55.7050  -18.3810 C.ar   33  PHE33      -0.0000
     12  N        -10.2970  -60.6440  -21.8780 N.3    51  TRP51      -0.1241
     13  CA        -9.9880  -60.8240  -20.4620 C.3    51  TRP51       0.1605
     14  C        -10.4980  -59.6690  -19.6030 C.2    51  TRP51       0.2264
     15  O        -10.9710  -59.8910  -18.4800 O.2    51  TRP51      -0.2867
     16  CB        -8.4780  -61.0140  -20.2770 C.3    51  TRP51       0.0550
     17  CG        -7.6810  -59.8120  -20.6140 C.ar   51  TRP51       0.0003
     18  CD1       -7.1330  -59.5020  -21.8280 C.ar   51  TRP51       0.0946
     19  CD2       -7.3350  -58.7430  -19.7300 C.ar   51  TRP51       0.0152
     20  NE1       -6.4720  -58.3020  -21.7510 N.ar   51  TRP51      -0.2442
     21  CE2       -6.5810  -57.8150  -20.4730 C.ar   51  TRP51       0.0810
     22  CE3       -7.5950  -58.4780  -18.3820 C.ar   51  TRP51       0.0012
     23  CZ2       -6.0830  -56.6430  -19.9160 C.ar   51  TRP51       0.0191
     24  CZ3       -7.0980  -57.3110  -17.8270 C.ar   51  TRP51       0.0001
     25  CH2       -6.3500  -56.4110  -18.5920 C.ar   51  TRP51       0.0015
     26  N         -8.4590  -43.9400  -13.8870 N.3    91  TRP91      -0.1241
     27  CA        -8.0790  -44.1520  -15.2850 C.3    91  TRP91       0.1605
     28  C         -8.5120  -43.0120  -16.2110 C.2    91  TRP91       0.2264
     29  O         -8.4190  -43.1750  -17.4330 O.2    91  TRP91      -0.2867
     30  CB        -8.6940  -45.4650  -15.8100 C.3    91  TRP91       0.0550
     31  CG        -8.0990  -46.7650  -15.3080 C.ar   91  TRP91       0.0003
     32  CD1       -8.6700  -47.6360  -14.4150 C.ar   91  TRP91       0.0946
     33  CD2       -6.8390  -47.3430  -15.6820 C.ar   91  TRP91       0.0152
     34  NE1       -7.8440  -48.7210  -14.2170 N.ar   91  TRP91      -0.2442
     35  CE2       -6.7220  -48.5700  -14.9870 C.ar   91  TRP91       0.0810
     36  CE3       -5.8150  -46.9570  -16.5520 C.ar   91  TRP91       0.0012
     37  CZ2       -5.6110  -49.3970  -15.1190 C.ar   91  TRP91       0.0191
     38  CZ3       -4.7250  -47.7860  -16.6880 C.ar   91  TRP91       0.0001
     39  CH2       -4.6280  -48.9940  -15.9810 C.ar   91  TRP91       0.0015
     40  N         -6.3010  -48.7060  -21.1330 N.3    97  TYR97      -0.1241
     41  CA        -5.3980  -49.3440  -20.1730 C.3    97  TYR97       0.1605
     42  C         -3.9430  -49.2930  -20.6540 C.2    97  TYR97       0.2264
     43  O         -3.3120  -50.3080  -20.9510 O.2    97  TYR97      -0.2867
     44  CB        -5.8390  -50.7830  -19.8990 C.3    97  TYR97       0.0534
     45  CG        -7.1930  -50.8630  -19.2490 C.ar   97  TYR97      -0.0201
     46  CD1       -7.4200  -50.2650  -18.0180 C.ar   97  TYR97      -0.0009
     47  CD2       -8.2520  -51.5270  -19.8650 C.ar   97  TYR97      -0.0009
     48  CE1       -8.6540  -50.3210  -17.4080 C.ar   97  TYR97       0.0417
     49  CE2       -9.5000  -51.6000  -19.2520 C.ar   97  TYR97       0.0417
     50  CZ        -9.6910  -50.9940  -18.0200 C.ar   97  TYR97       0.1957
     51  OH       -10.9160  -51.0390  -17.3870 O.3    97  TYR97      -0.2866
     52  N         -2.9020  -48.0590   -8.7320 N.3   237  THR237     -0.1218
     53  CA        -2.4290  -48.3220  -10.0920 C.3   237  THR237      0.1862
     54  C         -3.0790  -47.3650  -11.0880 C.2   237  THR237      0.2287
     55  O         -2.3930  -46.7120  -11.8880 O.2   237  THR237     -0.2866
     56  CB        -2.7290  -49.7800  -10.4840 C.3   237  THR237      0.1770
     57  OG1       -1.9430  -50.6720   -9.6830 O.3   237  THR237     -0.2211
     58  CG2       -2.4070  -50.0330  -11.9590 C.3   237  THR237      0.0375
     59  N         -1.5620  -44.2400  -13.6260 N.3   241  TYR241     -0.1241
     60  CA        -1.5490  -44.2010  -15.0900 C.3   241  TYR241      0.1605
     61  C         -1.9640  -42.8330  -15.6120 C.2   241  TYR241      0.2264
     62  O         -1.4010  -42.3400  -16.6000 O.2   241  TYR241     -0.2867
     63  CB        -2.4420  -45.2940  -15.6870 C.3   241  TYR241      0.0534
     64  CG        -1.6820  -46.5730  -15.9150 C.ar  241  TYR241     -0.0201
     65  CD1       -0.7920  -46.6920  -16.9830 C.ar  241  TYR241     -0.0009
     66  CD2       -1.8400  -47.6580  -15.0610 C.ar  241  TYR241     -0.0009
     67  CE1       -0.0700  -47.8620  -17.1870 C.ar  241  TYR241      0.0417
     68  CE2       -1.1360  -48.8410  -15.2640 C.ar  241  TYR241      0.0417
     69  CZ        -0.2450  -48.9310  -16.3220 C.ar  241  TYR241      0.1957
     70  OH         0.4520  -50.1060  -16.5330 O.3   241  TYR241     -0.2866
     71  N          2.7100  -46.7070  -21.6610 N.3   267  ASN267     -0.1240
     72  CA         3.0510  -48.1330  -21.7670 C.3   267  ASN267      0.1653
     73  C          3.4160  -48.5740  -23.1840 C.2   267  ASN267      0.2266
     74  O          3.7380  -49.7560  -23.3920 O.2   267  ASN267     -0.2867
     75  CB         1.9040  -49.0140  -21.2480 C.3   267  ASN267      0.1155
     76  CG         1.9670  -49.2170  -19.7480 C.2   267  ASN267      0.2627
     77  OD1        2.7780  -48.5860  -19.0600 O.2   267  ASN267     -0.2716
     78  ND2        1.1190  -50.1090  -19.2300 N.am  267  ASN267     -0.0877
     79  N          5.4060  -46.6760  -10.7420 N.3   300  ARG300     -0.1245
     80  CA         5.1170  -46.8490  -12.1540 C.3   300  ARG300      0.1563
     81  C          6.1560  -46.1160  -12.9880 C.2   300  ARG300      0.2260
     82  O          6.8440  -45.2110  -12.5130 O.2   300  ARG300     -0.2867
     83  CB         3.7110  -46.3560  -12.4970 C.3   300  ARG300      0.0307
     84  CG         2.6290  -47.0130  -11.6420 C.3   300  ARG300      0.0489
     85  CD         1.3410  -47.2340  -12.4380 C.3   300  ARG300      0.2205
     86  NE         1.4120  -48.3870  -13.3530 N.pl3 300  ARG300     -0.0865
     87  CZ         1.3080  -49.6630  -12.9710 C.cat 300  ARG300      0.5346
     88  NH1        1.1510  -49.9720  -11.6910 N.pl3 300  ARG300      0.1354
     89  NH2        1.3650  -50.6350  -13.8680 N.pl3 300  ARG300      0.1354
     90  N         -6.2120  -62.2390  -13.2980 N.3   371  TRP371     -0.1241
     91  CA        -6.8930  -60.9480  -13.2030 C.3   371  TRP371      0.1605
     92  C         -8.4030  -61.0870  -13.3550 C.2   371  TRP371      0.2264
     93  O         -9.1350  -60.5010  -12.5400 O.2   371  TRP371     -0.2867
     94  CB        -6.3020  -59.9600  -14.2160 C.3   371  TRP371      0.0550
     95  CG        -4.8670  -59.5760  -13.9510 C.ar  371  TRP371      0.0003
     96  CD1       -3.9320  -60.2990  -13.2660 C.ar  371  TRP371      0.0946
     97  CD2       -4.2150  -58.3700  -14.3630 C.ar  371  TRP371      0.0152
     98  NE1       -2.7360  -59.6190  -13.2340 N.ar  371  TRP371     -0.2442
     99  CE2       -2.8830  -58.4350  -13.8970 C.ar  371  TRP371      0.0810
    100  CE3       -4.6270  -57.2380  -15.0770 C.ar  371  TRP371      0.0012
    101  CZ2       -1.9620  -57.4180  -14.1250 C.ar  371  TRP371      0.0191
    102  CZ3       -3.7040  -56.2290  -15.3160 C.ar  371  TRP371      0.0001
    103  CH2       -2.3870  -56.3290  -14.8340 C.ar  371  TRP371      0.0015
    104  N         -6.0090  -56.0330  -10.7460 N.3   377  TYR377     -0.1241
    105  CA        -4.7060  -56.0800  -11.3990 C.3   377  TYR377      0.1605
    106  C         -3.6620  -56.7340  -10.5070 C.2   377  TYR377      0.2264
    107  O         -2.4660  -56.4670  -10.6690 O.2   377  TYR377     -0.2867
    108  CB        -4.2290  -54.6770  -11.7880 C.3   377  TYR377      0.0534
    109  CG        -5.3490  -53.7740  -12.2360 C.ar  377  TYR377     -0.0201
    110  CD1       -6.3170  -54.2190  -13.1150 C.ar  377  TYR377     -0.0009
    111  CD2       -5.4520  -52.4800  -11.7500 C.ar  377  TYR377     -0.0009
    112  CE1       -7.3610  -53.4000  -13.5000 C.ar  377  TYR377      0.0417
    113  CE2       -6.4930  -51.6560  -12.1390 C.ar  377  TYR377      0.0417
    114  CZ        -7.4410  -52.1190  -13.0010 C.ar  377  TYR377      0.1957
    115  OH        -8.4830  -51.2990  -13.3680 O.3   377  TYR377     -0.2866
@<TRIPOS>BOND
     1     4     3    2
     2     3     2    1
     3    74    73    2
     4    73    72    1
     5     2     1    1
     6     2     5    1
     7     5     6    1
     8    12    13    1
     9    18    20   ar
    10    18    17   ar
    11    72    71    1
    12    72    75    1
    13    20    21   ar
    14    75    76    1
    15    40    41    1
    16     6     8   ar
    17     6     7   ar
    18    43    42    2
    19     8    10   ar
    20    42    41    1
    21    17    16    1
    22    17    19   ar
    23    21    23   ar
    24    21    19   ar
    25    13    16    1
    26    13    14    1
    27    41    44    1
    28     7     9   ar
    29    23    25   ar
    30    44    45    1
    31    47    49   ar
    32    47    45   ar
    33    76    78   am
    34    76    77    2
    35    19    22   ar
    36    14    15    2
    37    10    11   ar
    38    49    50   ar
    39    45    46   ar
    40     9    11   ar
    41    25    24   ar
    42    22    24   ar
    43    50    48   ar
    44    50    51    1
    45    46    48   ar
    46    29    28    2
    47    67    65   ar
    48    67    69   ar
    49    65    64   ar
    50    38    36   ar
    51    38    39   ar
    52    62    61    2
    53    36    33   ar
    54    70    69    1
    55    69    68   ar
    56    28    27    1
    57    39    37   ar
    58    64    63    1
    59    64    66   ar
    60    30    31    1
    61    30    27    1
    62    63    60    1
    63    33    31   ar
    64    33    35   ar
    65    61    60    1
    66   102   100   ar
    67   102   103   ar
    68    31    32   ar
    69    27    26    1
    70    68    66   ar
    71    37    35   ar
    72    60    59    1
    73   100    97   ar
    74    35    34   ar
    75   103   101   ar
    76    32    34   ar
    77    97    95   ar
    78    97    99   ar
    79    94    95    1
    80    94    91    1
    81   101    99   ar
    82    95    96   ar
    83    99    98   ar
    84    89    87    1
    85   112   110   ar
    86   112   114   ar
    87   115   114    1
    88    92    91    1
    89    92    93    2
    90    86    87    2
    91    86    85    1
    92    90    91    1
    93    96    98   ar
    94   110   109   ar
    95   114   113   ar
    96    81    82    2
    97    81    80    1
    98    87    88    1
    99    83    80    1
   100    83    84    1
   101    85    84    1
   102   109   108    1
   103   109   111   ar
   104    80    79    1
   105   113   111   ar
   106    58    56    1
   107    55    54    2
   108   108   105    1
   109   105   104    1
   110   105   106    1
   111    54    53    1
   112   107   106    2
   113    56    53    1
   114    56    57    1
   115    53    52    1
