@<TRIPOS>MOLECULE
tmp/5mabB01.pdb
 203 196 0 0 0
SMALL
GASTEIGER

@<TRIPOS>ATOM
      1  N         25.5770   81.0760   52.3220 N.3    47  PHE47      -0.1241
      2  CA        24.1230   81.2190   52.2200 C.3    47  PHE47       0.1605
      3  C         23.6820   81.9360   50.9480 C.2    47  PHE47       0.2264
      4  O         22.5020   81.9310   50.6040 O.2    47  PHE47      -0.2867
      5  CB        23.5880   81.9380   53.4580 C.3    47  PHE47       0.0534
      6  CG        23.7880   81.1490   54.7100 C.ar   47  PHE47      -0.0203
      7  CD1       23.1010   79.9580   54.9000 C.ar   47  PHE47      -0.0042
      8  CD2       24.7020   81.5490   55.6660 C.ar   47  PHE47      -0.0042
      9  CE1       23.2940   79.2010   56.0400 C.ar   47  PHE47      -0.0003
     10  CE2       24.9010   80.7970   56.8120 C.ar   47  PHE47      -0.0003
     11  CZ        24.1940   79.6180   56.9970 C.ar   47  PHE47      -0.0000
     12  N         26.0650   73.7690   49.8840 N.3    53  PHE53      -0.1241
     13  CA        26.0620   72.5900   50.7480 C.3    53  PHE53       0.1605
     14  C         25.6420   71.3040   50.0260 C.2    53  PHE53       0.2264
     15  O         25.3830   70.2840   50.6590 O.2    53  PHE53      -0.2867
     16  CB        25.1480   72.8170   51.9420 C.3    53  PHE53       0.0534
     17  CG        25.4700   74.0490   52.7330 C.ar   53  PHE53      -0.0203
     18  CD1       26.4370   74.0150   53.7340 C.ar   53  PHE53      -0.0042
     19  CD2       24.7810   75.2340   52.5120 C.ar   53  PHE53      -0.0042
     20  CE1       26.7280   75.1520   54.4890 C.ar   53  PHE53      -0.0003
     21  CE2       25.0620   76.3780   53.2630 C.ar   53  PHE53      -0.0003
     22  CZ        26.0390   76.3390   54.2520 C.ar   53  PHE53      -0.0000
     23  N         19.3800   75.6500   44.9510 N.3    57  PRO57      -0.2102
     24  CA        19.4010   77.1140   44.9920 C.3    57  PRO57       0.1504
     25  C         20.0350   77.6740   46.2540 C.2    57  PRO57       0.2576
     26  O         20.1250   77.0040   47.2930 O.2    57  PRO57      -0.2718
     27  CB        17.9160   77.4930   44.9430 C.3    57  PRO57       0.0282
     28  CG        17.2040   76.2730   44.5090 C.3    57  PRO57       0.0208
     29  CD        18.0140   75.1120   44.9450 C.3    57  PRO57       0.0893
     30  N         20.4470   78.9310   46.1560 N.am   58  ALA58      -0.1966
     31  CA        21.0440   79.6160   47.2840 C.3    58  ALA58       0.1728
     32  C         20.0100   79.8180   48.3560 C.2    58  ALA58       0.2616
     33  O         18.8740   80.1940   48.0660 O.2    58  ALA58      -0.2715
     34  CB        21.6240   80.9400   46.8560 C.3    58  ALA58       0.0334
     35  N         20.4270   79.6290   49.6000 N.am   59  CYS59      -0.1968
     36  CA        19.5180   79.7260   50.7350 C.3    59  CYS59       0.1712
     37  C         18.8300   81.0710   50.7950 C.2    59  CYS59       0.2296
     38  O         17.6540   81.1450   51.1540 O.2    59  CYS59      -0.2864
     39  CB        20.2570   79.4880   52.0430 C.3    59  CYS59       0.0983
     40  SG        21.3140   78.0640   51.9640 S.3    59  CYS59      -0.0798
     41  N         17.7370   83.1020   48.6330 N.3    61  ILE61      -0.1231
     42  CA        16.6120   83.4070   47.7460 C.3    61  ILE61       0.1692
     43  C         15.2830   83.2580   48.4830 C.2    61  ILE61       0.2592
     44  O         14.4670   84.1880   48.5040 O.2    61  ILE61      -0.2718
     45  CB        16.5490   82.4880   46.5010 C.3    61  ILE61       0.0266
     46  CG1       17.8520   82.5240   45.7150 C.3    61  ILE61       0.0019
     47  CG2       15.3680   82.9060   45.6040 C.3    61  ILE61       0.0020
     48  CD1       18.1690   83.8790   45.1670 C.3    61  ILE61       0.0001
     49  N         15.1130   82.1050   49.1330 N.am   62  CYS62      -0.1956
     50  CA        13.8720   81.7350   49.8030 C.3    62  CYS62       0.1843
     51  C         13.8130   82.2120   51.2460 C.2    62  CYS62       0.2625
     52  O         12.7320   82.2750   51.8370 O.2    62  CYS62      -0.2714
     53  CB        13.7060   80.2190   49.7850 C.3    62  CYS62       0.0997
     54  SG        13.4590   79.4890   48.1680 S.3    62  CYS62      -0.0797
     55  N         14.9850   82.4870   51.8190 N.am   63  HIS63      -0.1973
     56  CA        15.1180   82.9570   53.2000 C.3    63  HIS63       0.1656
     57  C         15.9340   84.2370   53.2600 C.2    63  HIS63       0.2291
     58  O         17.0200   84.2450   53.8500 O.2    63  HIS63      -0.2864
     59  CB        15.8150   81.9220   54.0840 C.3    63  HIS63       0.0771
     60  CG        15.1440   80.5850   54.1270 C.ar   63  HIS63       0.0820
     61  ND1       13.9060   80.3850   54.6970 N.ar   63  HIS63      -0.2267
     62  CD2       15.5510   79.3700   53.6810 C.ar   63  HIS63       0.1154
     63  CE1       13.5820   79.1070   54.6040 C.ar   63  HIS63       0.1986
     64  NE2       14.5640   78.4680   53.9920 N.ar   63  HIS63      -0.2212
     65  N         10.4240   82.4300   53.4870 N.3    72  TYR72      -0.1227
     66  CA         9.8340   81.3210   54.2170 C.3    72  TYR72       0.1736
     67  C         10.2060   81.3490   55.7070 C.2    72  TYR72       0.2595
     68  O         11.3790   81.4770   56.0570 O.2    72  TYR72      -0.2718
     69  CB        10.2660   80.0050   53.5840 C.3    72  TYR72       0.0548
     70  CG         9.6330   79.7830   52.2320 C.ar   72  TYR72      -0.0200
     71  CD1        8.3170   79.3410   52.1260 C.ar   72  TYR72      -0.0009
     72  CD2       10.3430   80.0240   51.0560 C.ar   72  TYR72      -0.0009
     73  CE1        7.7250   79.1510   50.8960 C.ar   72  TYR72       0.0417
     74  CE2        9.7550   79.8240   49.8080 C.ar   72  TYR72       0.0417
     75  CZ         8.4480   79.3870   49.7380 C.ar   72  TYR72       0.1957
     76  OH         7.8440   79.1730   48.5130 O.3    72  TYR72      -0.2866
     77  N          9.1930   81.2340   56.5690 N.am   73  ARG73      -0.1980
     78  CA         9.3490   81.2300   58.0340 C.3    73  ARG73       0.1597
     79  C          9.8800   82.5410   58.6450 C.2    73  ARG73       0.2287
     80  O         10.2150   82.5820   59.8320 O.2    73  ARG73      -0.2864
     81  CB        10.2650   80.0780   58.4560 C.3    73  ARG73       0.0334
     82  CG         9.7320   78.6960   58.0710 C.3    73  ARG73       0.0492
     83  CD         8.6780   78.2130   59.0530 C.3    73  ARG73       0.2205
     84  NE         9.2000   78.0950   60.4140 N.pl3  73  ARG73      -0.0865
     85  CZ         8.7430   78.7950   61.4470 C.cat  73  ARG73       0.5346
     86  NH1        7.7590   79.6670   61.2840 N.pl3  73  ARG73       0.1354
     87  NH2        9.2650   78.6230   62.6450 N.pl3  73  ARG73       0.1354
     88  N         12.6020   83.8250   58.0210 N.3    75  LEU75      -0.1245
     89  CA        13.9710   83.4660   58.3550 C.3    75  LEU75       0.1561
     90  C         14.9410   84.1790   57.4570 C.2    75  LEU75       0.2260
     91  O         14.9150   83.9870   56.2410 O.2    75  LEU75      -0.2867
     92  CB        14.1510   81.9640   58.2240 C.3    75  LEU75       0.0270
     93  CG        15.5450   81.3840   58.3120 C.3    75  LEU75       0.0019
     94  CD1       16.1820   81.7360   59.6330 C.3    75  LEU75       0.0001
     95  CD2       15.3790   79.9000   58.1760 C.3    75  LEU75       0.0001
     96  N         18.5910   84.4710   56.3170 N.3    77  LEU77      -0.1245
     97  CA        19.9070   83.8550   56.3680 C.3    77  LEU77       0.1561
     98  C         21.0080   84.7370   55.7820 C.2    77  LEU77       0.2260
     99  O         22.1730   84.3330   55.7210 O.2    77  LEU77      -0.2867
    100  CB        19.8870   82.5020   55.6470 C.3    77  LEU77       0.0270
    101  CG        18.9340   81.4440   56.1990 C.3    77  LEU77       0.0019
    102  CD1       19.0260   80.1770   55.3630 C.3    77  LEU77       0.0001
    103  CD2       19.2250   81.1570   57.6580 C.3    77  LEU77       0.0001
    104  N         14.0160   81.8580   62.7210 N.3    87  SER87      -0.1217
    105  CA        12.6950   82.0560   62.1290 C.3    87  SER87       0.1889
    106  C         11.9130   83.0740   62.9390 C.2    87  SER87       0.2288
    107  O         11.7660   82.9130   64.1500 O.2    87  SER87      -0.2866
    108  CB        11.9310   80.7340   62.0760 C.3    87  SER87       0.2089
    109  OG        12.6420   79.7860   61.2990 O.3    87  SER87      -0.2183
    110  N         11.4460   80.8290   66.3540 N.3    93  ARG93      -0.1245
    111  CA        12.4760   80.0660   67.0350 C.3    93  ARG93       0.1563
    112  C         13.8640   80.2780   66.4420 C.2    93  ARG93       0.2260
    113  O         14.0050   80.5650   65.2480 O.2    93  ARG93      -0.2867
    114  CB        12.1320   78.5820   66.9900 C.3    93  ARG93       0.0307
    115  CG        11.8930   78.0490   65.6050 C.3    93  ARG93       0.0489
    116  CD        11.3710   76.6380   65.6750 C.3    93  ARG93       0.2205
    117  NE        11.2000   76.0900   64.3380 N.pl3  93  ARG93      -0.0865
    118  CZ        10.0650   75.5790   63.8810 C.cat  93  ARG93       0.5346
    119  NH1        9.0000   75.5330   64.6690 N.pl3  93  ARG93       0.1354
    120  NH2        9.9990   75.1100   62.6400 N.pl3  93  ARG93       0.1354
    121  N         17.4890   78.9270   65.1170 N.3    95  ILE95      -0.1245
    122  CA        17.8320   77.7580   64.3360 C.3    95  ILE95       0.1561
    123  C         19.1710   77.1640   64.7980 C.2    95  ILE95       0.2260
    124  O         19.5610   76.0860   64.3710 O.2    95  ILE95      -0.2867
    125  CB        17.8330   78.1010   62.8280 C.3    95  ILE95       0.0252
    126  CG1       18.8070   79.2320   62.4950 C.3    95  ILE95       0.0019
    127  CG2       16.4200   78.5010   62.3850 C.3    95  ILE95       0.0019
    128  CD1       18.9570   79.4330   60.9880 C.3    95  ILE95       0.0001
    129  N         18.2830   72.9070   64.7160 N.3   106  ILE106     -0.1231
    130  CA        17.4790   72.9720   63.4960 C.3   106  ILE106      0.1692
    131  C         18.3090   73.2080   62.2150 C.2   106  ILE106      0.2591
    132  O         18.0600   72.5750   61.1860 O.2   106  ILE106     -0.2718
    133  CB        16.4090   74.0550   63.6350 C.3   106  ILE106      0.0266
    134  CG1       15.3430   73.5780   64.6080 C.3   106  ILE106      0.0019
    135  CG2       15.7820   74.3890   62.2920 C.3   106  ILE106      0.0020
    136  CD1       14.3170   74.6320   64.9460 C.3   106  ILE106      0.0001
    137  N         19.2960   74.0970   62.2740 N.am  107  ILE107     -0.1980
    138  CA        20.1190   74.3570   61.1020 C.3   107  ILE107      0.1595
    139  C         20.9150   73.0980   60.7470 C.2   107  ILE107      0.2287
    140  O         21.1090   72.7910   59.5640 O.2   107  ILE107     -0.2864
    141  CB        21.0680   75.5600   61.3060 C.3   107  ILE107      0.0276
    142  CG1       21.8530   75.8440   60.0340 C.3   107  ILE107      0.0022
    143  CG2       22.0760   75.2930   62.3690 C.3   107  ILE107      0.0022
    144  CD1       20.9860   76.0600   58.8510 C.3   107  ILE107      0.0001
    145  N         18.5350   70.4400   59.0700 N.3   110  ARG110     -0.1231
    146  CA        18.0770   70.8740   57.7580 C.3   110  ARG110      0.1694
    147  C         19.1650   70.7280   56.7030 C.2   110  ARG110      0.2591
    148  O         18.8640   70.5510   55.5170 O.2   110  ARG110     -0.2718
    149  CB        17.5780   72.3150   57.8230 C.3   110  ARG110      0.0321
    150  CG        16.2160   72.4720   58.5130 C.3   110  ARG110      0.0489
    151  CD        15.0760   71.9240   57.6550 C.3   110  ARG110      0.2205
    152  NE        13.7800   72.0700   58.3160 N.pl3 110  ARG110     -0.0865
    153  CZ        12.6000   71.9560   57.7120 C.cat 110  ARG110      0.5346
    154  NH1       12.5070   71.7030   56.4140 N.pl3 110  ARG110      0.1354
    155  NH2       11.5010   72.1050   58.4150 N.pl3 110  ARG110      0.1354
    156  N         20.4250   70.7690   57.1230 N.am  111  LEU111     -0.1980
    157  CA        21.5220   70.5940   56.1720 C.3   111  LEU111      0.1596
    158  C         21.9320   69.1360   55.9970 C.2   111  LEU111      0.2287
    159  O         22.3520   68.7420   54.9020 O.2   111  LEU111     -0.2864
    160  CB        22.7330   71.4130   56.6020 C.3   111  LEU111      0.0297
    161  CG        22.6090   72.9260   56.4590 C.3   111  LEU111      0.0022
    162  CD1       23.7620   73.5810   57.1670 C.3   111  LEU111      0.0001
    163  CD2       22.5890   73.3260   54.9860 C.3   111  LEU111      0.0001
    164  N          9.5740   66.6340   48.6780 N.3   122  PHE122     -0.1241
    165  CA         9.1530   67.6410   49.6480 C.3   122  PHE122      0.1605
    166  C          7.7010   68.0890   49.4720 C.2   122  PHE122      0.2264
    167  O          7.1620   68.7640   50.3580 O.2   122  PHE122     -0.2867
    168  CB        10.0840   68.8660   49.6020 C.3   122  PHE122      0.0534
    169  CG        10.0300   69.6240   48.3080 C.ar  122  PHE122     -0.0203
    170  CD1        9.0550   70.5910   48.0860 C.ar  122  PHE122     -0.0042
    171  CD2       10.9570   69.3680   47.3070 C.ar  122  PHE122     -0.0042
    172  CE1        9.0010   71.2750   46.8830 C.ar  122  PHE122     -0.0003
    173  CE2       10.9110   70.0600   46.1000 C.ar  122  PHE122     -0.0003
    174  CZ         9.9370   71.0090   45.8870 C.ar  122  PHE122     -0.0000
    175  N          3.7500   67.1670   55.5410 N.3   126  THR126     -0.1218
    176  CA         4.4460   66.8420   56.7760 C.3   126  THR126      0.1862
    177  C          3.4960   66.9070   57.9650 C.2   126  THR126      0.2287
    178  O          3.9090   66.6490   59.0920 O.2   126  THR126     -0.2866
    179  CB         5.6340   67.7990   57.0360 C.3   126  THR126      0.1770
    180  OG1        5.2060   69.1570   56.8670 O.3   126  THR126     -0.2211
    181  CG2        6.7890   67.5100   56.0710 C.3   126  THR126      0.0375
    182  N         17.4720   70.7160   53.2290 N.3   230  MET230     -0.1231
    183  CA        17.6370   71.9320   52.4480 C.3   230  MET230      0.1687
    184  C         18.8870   71.8610   51.5620 C.2   230  MET230      0.2434
    185  O         19.8810   71.2190   51.9270 O.2   230  MET230     -0.2733
    186  CB        17.7160   73.1310   53.3790 C.3   230  MET230      0.0400
    187  CG        16.4290   73.3820   54.1200 C.3   230  MET230      0.0596
    188  SD        15.1500   73.9710   52.9930 S.3   230  MET230     -0.1393
    189  CE        13.7590   72.9820   53.5480 C.3   230  MET230      0.0692
    190  N         18.8460   72.5240   50.3940 N.am  231  PRO231     -0.2718
    191  CA        17.6740   73.2110   49.8340 C.3   231  PRO231      0.1520
    192  C         16.6520   72.1800   49.3940 C.2   231  PRO231      0.2440
    193  O         17.0520   71.0380   49.1770 O.2   231  PRO231     -0.2731
    194  CB        18.2480   73.9860   48.6460 C.3   231  PRO231      0.0310
    195  CG        19.4530   73.2220   48.2730 C.3   231  PRO231      0.0237
    196  CD        20.0260   72.6410   49.5240 C.3   231  PRO231      0.0939
    197  N         15.3620   72.5540   49.3030 N.am  232  PRO232     -0.2727
    198  CA        14.3140   71.5640   49.0230 C.3   232  PRO232      0.1402
    199  C         14.5790   70.8030   47.7160 C.2   232  PRO232      0.2269
    200  O         14.9180   71.3910   46.6830 O.2   232  PRO232     -0.2865
    201  CB        13.0410   72.4030   48.9180 C.3   232  PRO232      0.0296
    202  CG        13.3530   73.6960   49.5480 C.3   232  PRO232      0.0237
    203  CD        14.8210   73.9160   49.4450 C.3   232  PRO232      0.0939
@<TRIPOS>BOND
     1    28    27    1
     2    28    29    1
     3    27    24    1
     4    29    23    1
     5    23    24    1
     6    24    25    1
     7    48    46    1
     8    47    45    1
     9    46    45    1
    10   174   173   ar
    11   174   172   ar
    12   173   171   ar
    13    30    25   am
    14    30    31    1
    15    25    26    2
    16    45    42    1
    17   200   199    2
    18    34    31    1
    19   172   170   ar
    20    31    32    1
    21   171   169   ar
    22   199   198    1
    23    42    43    1
    24    42    41    1
    25    33    32    2
    26   170   169   ar
    27    54    53    1
    28   195   194    1
    29   195   196    1
    30   169   168    1
    31    32    35   am
    32    43    44    2
    33    43    49   am
    34    76    75    1
    35   194   191    1
    36   164   165    1
    37   201   198    1
    38   201   202    1
    39   198   197    1
    40    49    50    1
    41   193   192    2
    42   197   192   am
    43   197   203    1
    44   192   191    1
    45   203   202    1
    46   166   165    1
    47   166   167    2
    48   196   190    1
    49    35    36    1
    50   168   165    1
    51    75    74   ar
    52    75    73   ar
    53    53    50    1
    54    50    51    1
    55    74    72   ar
    56   191   190    1
    57    12    13    1
    58    14    15    2
    59    14    13    1
    60   190   184   am
    61     4     3    2
    62    36    37    1
    63    36    39    1
    64    13    16    1
    65    37    38    2
    66    73    71   ar
    67     3     2    1
    68    72    70   ar
    69    51    55   am
    70    51    52    2
    71   184   185    2
    72   184   183    1
    73    55    56    1
    74    16    17    1
    75    40    39    1
    76    71    70   ar
    77     2     1    1
    78     2     5    1
    79    70    69    1
    80   183   182    1
    81   183   186    1
    82    19    17   ar
    83    19    21   ar
    84    17    18   ar
    85   188   189    1
    86   188   187    1
    87    56    57    1
    88    56    59    1
    89    57    58    2
    90    21    22   ar
    91   186   187    1
    92     5     6    1
    93    65    66    1
    94    69    66    1
    95    62    64   ar
    96    62    60   ar
    97    18    20   ar
    98    64    63   ar
    99    59    60    1
   100    60    61   ar
   101    66    67    1
   102    22    20   ar
   103    63    61   ar
   104     6     7   ar
   105     6     8   ar
   106     7     9   ar
   107   159   158    2
   108   163   161    1
   109   102   101    1
   110   148   147    2
   111   175   176    1
   112   100   101    1
   113   100    97    1
   114     8    10   ar
   115    67    68    2
   116    67    77   am
   117    99    98    2
   118    98    97    1
   119   158   157    1
   120     9    11   ar
   121   181   179    1
   122   157   160    1
   123   157   156    1
   124   101   103    1
   125    91    90    2
   126    96    97    1
   127   154   153    1
   128   161   160    1
   129   161   162    1
   130    77    78    1
   131   147   156   am
   132   147   146    1
   133   176   179    1
   134   176   177    1
   135    10    11   ar
   136   180   179    1
   137    90    89    1
   138   151   152    1
   139   151   150    1
   140   153   152    2
   141   153   155    1
   142   146   149    1
   143   146   145    1
   144   149   150    1
   145   177   178    2
   146    88    89    1
   147    78    81    1
   148    78    79    1
   149    82    81    1
   150    82    83    1
   151    95    93    1
   152    92    93    1
   153    92    89    1
   154    93    94    1
   155    79    80    2
   156   144   142    1
   157    83    84    1
   158   140   139    2
   159   142   141    1
   160    84    85    2
   161   139   138    1
   162   128   126    1
   163   138   141    1
   164   138   137    1
   165   132   131    2
   166    86    85    1
   167   109   108    1
   168   141   143    1
   169    85    87    1
   170   108   105    1
   171   105   104    1
   172   105   106    1
   173   131   137   am
   174   131   130    1
   175   135   133    1
   176   127   125    1
   177   126   125    1
   178   120   118    1
   179   125   122    1
   180   106   107    2
   181   130   133    1
   182   130   129    1
   183   133   134    1
   184   118   117    2
   185   118   119    1
   186   122   123    1
   187   122   121    1
   188   117   116    1
   189   124   123    2
   190   134   136    1
   191   113   112    2
   192   115   116    1
   193   115   114    1
   194   110   111    1
   195   112   111    1
   196   114   111    1
