@<TRIPOS>MOLECULE
tmp/5mabB02.pdb
 208 202 0 0 0
SMALL
GASTEIGER

@<TRIPOS>ATOM
      1  N         18.3010   63.6640   56.0080 N.3   114  ASN114     -0.1240
      2  CA        17.3320   63.3100   54.9550 C.3   114  ASN114      0.1653
      3  C         15.9590   62.9820   55.5230 C.2   114  ASN114      0.2266
      4  O         15.8500   62.2630   56.5190 O.2   114  ASN114     -0.2867
      5  CB        17.8200   62.1260   54.1260 C.3   114  ASN114      0.1155
      6  CG        18.9760   62.4810   53.2410 C.2   114  ASN114      0.2627
      7  OD1       18.9710   63.5210   52.5750 O.2   114  ASN114     -0.2716
      8  ND2       19.9860   61.6190   53.2210 N.am  114  ASN114     -0.0877
      9  N         12.4600   61.1260   56.0000 N.3   116  MET116     -0.1231
     10  CA        12.0930   59.7200   55.9150 C.3   116  MET116      0.1687
     11  C         10.6050   59.5790   55.5510 C.2   116  MET116      0.2434
     12  O          9.7800   60.4140   55.9230 O.2   116  MET116     -0.2733
     13  CB        12.4170   59.0140   57.2310 C.3   116  MET116      0.0400
     14  CG        13.9120   59.0020   57.5380 C.3   116  MET116      0.0596
     15  SD        14.9080   57.9400   56.4660 S.3   116  MET116     -0.1393
     16  CE        16.4070   58.8920   56.3450 C.3   116  MET116      0.0692
     17  N         10.2500   58.5200   54.8120 N.am  117  PRO117     -0.2718
     18  CA        11.1220   57.4240   54.3820 C.3   117  PRO117      0.1535
     19  C         12.0660   57.9350   53.3100 C.2   117  PRO117      0.2598
     20  O         11.6630   58.7780   52.5100 O.2   117  PRO117     -0.2715
     21  CB        10.1330   56.3850   53.8460 C.3   117  PRO117      0.0310
     22  CG         9.0140   57.2350   53.3020 C.3   117  PRO117      0.0237
     23  CD         8.9120   58.4320   54.2010 C.3   117  PRO117      0.0939
     24  N         13.3060   57.4720   53.3290 N.am  118  LEU118     -0.1978
     25  CA        14.3310   58.0270   52.4590 C.3   118  LEU118      0.1596
     26  C         13.9040   58.1860   51.0110 C.2   118  LEU118      0.2287
     27  O         13.4700   57.2390   50.3820 O.2   118  LEU118     -0.2864
     28  CB        15.5750   57.1610   52.5220 C.3   118  LEU118      0.0297
     29  CG        16.7690   57.7230   51.7680 C.3   118  LEU118      0.0022
     30  CD1       17.5380   58.6930   52.6450 C.3   118  LEU118      0.0001
     31  CD2       17.6280   56.5520   51.3530 C.3   118  LEU118      0.0001
     32  N          4.9320   52.1400   60.6230 N.3   156  PHE156     -0.1241
     33  CA         6.3210   51.9400   60.2350 C.3   156  PHE156      0.1605
     34  C          6.4810   50.7470   59.3350 C.2   156  PHE156      0.2264
     35  O          7.5680   50.4860   58.8350 O.2   156  PHE156     -0.2867
     36  CB         7.1960   51.7370   61.4590 C.3   156  PHE156      0.0534
     37  CG         7.1350   52.8580   62.4160 C.ar  156  PHE156     -0.0203
     38  CD1        7.8540   54.0040   62.1910 C.ar  156  PHE156     -0.0042
     39  CD2        6.3340   52.7800   63.5320 C.ar  156  PHE156     -0.0042
     40  CE1        7.7940   55.0490   63.0760 C.ar  156  PHE156     -0.0003
     41  CE2        6.2700   53.8180   64.4200 C.ar  156  PHE156     -0.0003
     42  CZ         7.0000   54.9560   64.1920 C.ar  156  PHE156     -0.0000
     43  N          3.2810   57.5890   54.1610 N.3   162  PHE162     -0.1241
     44  CA         3.5970   59.0100   54.2540 C.3   162  PHE162      0.1605
     45  C          3.6380   59.6830   52.8780 C.2   162  PHE162      0.2264
     46  O          3.9110   60.8800   52.7530 O.2   162  PHE162     -0.2867
     47  CB         4.9120   59.1830   54.9940 C.3   162  PHE162      0.0534
     48  CG         4.8830   58.5920   56.3620 C.ar  162  PHE162     -0.0203
     49  CD1        4.3040   59.2750   57.4110 C.ar  162  PHE162     -0.0042
     50  CD2        5.4230   57.3480   56.6000 C.ar  162  PHE162     -0.0042
     51  CE1        4.2680   58.7260   58.6840 C.ar  162  PHE162     -0.0003
     52  CE2        5.3940   56.7920   57.8740 C.ar  162  PHE162     -0.0003
     53  CZ         4.8110   57.4820   58.9140 C.ar  162  PHE162     -0.0000
     54  N          8.3230   53.1840   50.2310 N.3   167  PRO167     -0.2102
     55  CA         8.5160   51.9220   50.9580 C.3   167  PRO167      0.1504
     56  C          8.2380   52.0370   52.4630 C.2   167  PRO167      0.2576
     57  O          8.3790   53.1170   53.0380 O.2   167  PRO167     -0.2718
     58  CB         9.9930   51.6070   50.7140 C.3   167  PRO167      0.0282
     59  CG        10.6180   52.9310   50.5450 C.3   167  PRO167      0.0208
     60  CD         9.6030   53.7650   49.8010 C.3   167  PRO167      0.0893
     61  N          7.8470   50.9300   53.0900 N.am  168  HIS168     -0.1962
     62  CA         7.6720   50.9120   54.5340 C.3   168  HIS168      0.1787
     63  C          9.0280   51.0520   55.2300 C.2   168  HIS168      0.2620
     64  O         10.0520   50.6150   54.7000 O.2   168  HIS168     -0.2715
     65  CB         6.9190   49.6460   54.9900 C.3   168  HIS168      0.0785
     66  CG         7.5300   48.3490   54.5520 C.ar  168  HIS168      0.0821
     67  ND1        8.3630   47.6050   55.3630 N.ar  168  HIS168     -0.2267
     68  CD2        7.3880   47.6390   53.4080 C.ar  168  HIS168      0.1154
     69  CE1        8.7270   46.5070   54.7270 C.ar  168  HIS168      0.1986
     70  NE2        8.1560   46.5090   53.5340 N.ar  168  HIS168     -0.2212
     71  N          9.0330   51.7060   56.3910 N.am  169  CYS169     -0.1968
     72  CA        10.2760   51.9710   57.1160 C.3   169  CYS169      0.1712
     73  C         11.0490   50.6960   57.3400 C.2   169  CYS169      0.2296
     74  O         12.2560   50.6440   57.1310 O.2   169  CYS169     -0.2864
     75  CB        10.0150   52.6240   58.4750 C.3   169  CYS169      0.0983
     76  SG         8.8610   53.9990   58.4620 S.3   169  CYS169     -0.0798
     77  N         11.5420   48.2870   55.7090 N.3   171  THR171     -0.1203
     78  CA        12.3410   47.8940   54.5360 C.3   171  THR171      0.1994
     79  C         13.8310   48.0650   54.7830 C.2   171  THR171      0.2618
     80  O         14.6360   47.2320   54.3710 O.2   171  THR171     -0.2717
     81  CB        11.9810   48.7160   53.2660 C.3   171  THR171      0.1784
     82  OG1       10.5940   48.5450   52.9320 O.3   171  THR171     -0.2211
     83  CG2       12.8370   48.2750   52.0850 C.3   171  THR171      0.0376
     84  N         14.1880   49.1700   55.4370 N.am  172  CYS172     -0.1955
     85  CA        15.5850   49.5220   55.6970 C.3   172  CYS172      0.1843
     86  C         15.9660   49.4510   57.1830 C.2   172  CYS172      0.2625
     87  O         17.1530   49.3890   57.5110 O.2   172  CYS172     -0.2714
     88  CB        15.8840   50.9400   55.1920 C.3   172  CYS172      0.0997
     89  SG        15.4780   51.3200   53.4570 S.3   172  CYS172     -0.0797
     90  N         14.9670   49.4510   58.0730 N.am  173  HIS173     -0.1973
     91  CA        15.2010   49.4780   59.5300 C.3   173  HIS173      0.1656
     92  C         14.5030   48.3360   60.2550 C.2   173  HIS173      0.2291
     93  O         13.4110   48.5410   60.7830 O.2   173  HIS173     -0.2864
     94  CB        14.7120   50.8010   60.1440 C.3   173  HIS173      0.0771
     95  CG        15.3370   52.0310   59.5460 C.ar  173  HIS173      0.0820
     96  ND1       16.6900   52.2920   59.6120 N.ar  173  HIS173     -0.2267
     97  CD2       14.7900   53.0510   58.8430 C.ar  173  HIS173      0.1154
     98  CE1       16.9440   53.4310   58.9900 C.ar  173  HIS173      0.1986
     99  NE2       15.8110   53.9110   58.5120 N.ar  173  HIS173     -0.2212
    100  N         20.0250   49.9310   58.2270 N.3   182  PHE182     -0.1227
    101  CA        20.7740   51.1850   58.2690 C.3   182  PHE182      0.1736
    102  C         20.7470   51.7880   59.6530 C.2   182  PHE182      0.2595
    103  O         19.6940   51.8460   60.2920 O.2   182  PHE182     -0.2718
    104  CB        20.2400   52.1720   57.2450 C.3   182  PHE182      0.0547
    105  CG        20.4880   51.7420   55.8460 C.ar  182  PHE182     -0.0202
    106  CD1       21.7050   52.0140   55.2350 C.ar  182  PHE182     -0.0042
    107  CD2       19.5340   51.0200   55.1470 C.ar  182  PHE182     -0.0042
    108  CE1       21.9610   51.5910   53.9380 C.ar  182  PHE182     -0.0003
    109  CE2       19.7820   50.5960   53.8510 C.ar  182  PHE182     -0.0003
    110  CZ        21.0010   50.8810   53.2470 C.ar  182  PHE182     -0.0000
    111  N         21.9210   52.2300   60.1010 N.am  183  HIS183     -0.1975
    112  CA        22.1230   52.7340   61.4560 C.3   183  HIS183      0.1656
    113  C         21.6320   51.7440   62.5230 C.2   183  HIS183      0.2291
    114  O         21.3460   52.1380   63.6520 O.2   183  HIS183     -0.2864
    115  CB        21.4200   54.0880   61.6190 C.3   183  HIS183      0.0771
    116  CG        22.2300   55.2470   61.1330 C.ar  183  HIS183      0.0820
    117  ND1       22.6090   55.3880   59.8160 N.ar  183  HIS183     -0.2267
    118  CD2       22.7330   56.3200   61.7830 C.ar  183  HIS183      0.1154
    119  CE1       23.3160   56.4950   59.6760 C.ar  183  HIS183      0.1986
    120  NE2       23.3990   57.0840   60.8550 N.ar  183  HIS183     -0.2212
    121  N         18.9580   50.4310   63.0960 N.3   185  LEU185     -0.1245
    122  CA        17.6950   50.8340   63.6830 C.3   185  LEU185      0.1561
    123  C         16.6580   49.7850   63.3360 C.2   185  LEU185      0.2260
    124  O         16.5670   49.3570   62.1970 O.2   185  LEU185     -0.2867
    125  CB        17.2710   52.2190   63.1880 C.3   185  LEU185      0.0270
    126  CG        15.9320   52.7020   63.7370 C.3   185  LEU185      0.0019
    127  CD1       16.0220   52.7740   65.2390 C.3   185  LEU185      0.0001
    128  CD2       15.5940   54.0650   63.1890 C.3   185  LEU185      0.0001
    129  N         12.7180   49.0940   63.5260 N.3   187  LEU187     -0.1245
    130  CA        11.4150   49.7050   63.7810 C.3   187  LEU187      0.1561
    131  C         10.2400   48.7330   63.7070 C.2   187  LEU187      0.2260
    132  O          9.0990   49.1670   63.5750 O.2   187  LEU187     -0.2867
    133  CB        11.1910   50.8680   62.8060 C.3   187  LEU187      0.0270
    134  CG        12.2460   51.9820   62.9260 C.3   187  LEU187      0.0019
    135  CD1       12.1170   53.0490   61.8520 C.3   187  LEU187      0.0001
    136  CD2       12.1810   52.6040   64.3020 C.3   187  LEU187      0.0001
    137  N         19.0650   53.8090   67.5260 N.3   197  ALA197     -0.1231
    138  CA        20.0000   53.4630   66.4640 C.3   197  ALA197      0.1694
    139  C         21.3780   53.2320   67.0180 C.2   197  ALA197      0.2592
    140  O         21.6770   53.6460   68.1330 O.2   197  ALA197     -0.2718
    141  CB        20.0540   54.5650   65.4230 C.3   197  ALA197      0.0304
    142  N         22.2040   52.5530   66.2260 N.am  198  ASP198     -0.1974
    143  CA        23.6280   52.4040   66.5000 C.3   198  ASP198      0.1709
    144  C         23.9630   51.7920   67.8700 C.2   198  ASP198      0.2293
    145  O         25.0420   52.0310   68.3930 O.2   198  ASP198     -0.2864
    146  CB        24.3190   53.7700   66.3560 C.3   198  ASP198      0.1436
    147  CG        24.1530   54.3760   64.9610 C.2   198  ASP198      0.3671
    148  OD1       24.1160   53.6070   63.9750 O.co2 198  ASP198     -0.2456
    149  OD2       24.0500   55.6210   64.8510 O.co2 198  ASP198     -0.2456
    150  N         21.7090   55.9910   69.9260 N.3   208  THR208     -0.1218
    151  CA        21.0090   57.1870   69.5340 C.3   208  THR208      0.1862
    152  C         19.5080   56.9350   69.6760 C.2   208  THR208      0.2287
    153  O         18.9140   56.2450   68.8410 O.2   208  THR208     -0.2866
    154  CB        21.3680   57.5700   68.0880 C.3   208  THR208      0.1770
    155  OG1       22.7960   57.5950   67.9360 O.3   208  THR208     -0.2211
    156  CG2       20.7720   58.9120   67.7160 C.3   208  THR208      0.0375
    157  N         15.6160   57.4950   69.2830 N.3   210  VAL210     -0.1245
    158  CA        14.8750   58.1160   68.2010 C.3   210  VAL210      0.1561
    159  C         13.5010   58.5340   68.6480 C.2   210  VAL210      0.2260
    160  O         12.7640   59.1900   67.9070 O.2   210  VAL210     -0.2867
    161  CB        14.7250   57.1670   67.0090 C.3   210  VAL210      0.0252
    162  CG1       16.1080   56.7490   66.4910 C.3   210  VAL210      0.0019
    163  CG2       13.8990   55.9560   67.4100 C.3   210  VAL210      0.0019
    164  N         14.0600   62.0600   67.0110 N.3   220  LYS220     -0.1231
    165  CA        14.6560   61.9200   65.6970 C.3   220  LYS220      0.1693
    166  C         13.6570   61.3440   64.6910 C.2   220  LYS220      0.2591
    167  O         13.6710   61.7340   63.5150 O.2   220  LYS220     -0.2718
    168  CB        15.9120   61.0590   65.7890 C.3   220  LYS220      0.0285
    169  CG        17.1680   61.8870   65.6950 C.3   220  LYS220      0.0035
    170  CD        18.3690   61.2620   66.3800 C.3   220  LYS220      0.0206
    171  CE        19.6610   61.8110   65.7500 C.3   220  LYS220      0.1093
    172  NZ        20.8320   61.9140   66.6610 N.3   220  LYS220     -0.1314
    173  N         12.7710   60.4510   65.1490 N.am  221  VAL221     -0.1980
    174  CA        11.7280   59.9010   64.2750 C.3   221  VAL221      0.1595
    175  C         10.7980   60.9790   63.7440 C.2   221  VAL221      0.2287
    176  O         10.5560   61.0820   62.5390 O.2   221  VAL221     -0.2864
    177  CB        10.8580   58.8600   64.9930 C.3   221  VAL221      0.0276
    178  CG1        9.5910   58.5640   64.1760 C.3   221  VAL221      0.0022
    179  CG2       11.6370   57.6100   65.2240 C.3   221  VAL221      0.0022
    180  N         12.6960   63.5220   61.4010 N.3   224  HIS224     -0.1226
    181  CA        12.9200   62.9710   60.0840 C.3   224  HIS224      0.1752
    182  C         11.6210   62.8590   59.2920 C.2   224  HIS224      0.2595
    183  O         11.6450   62.8730   58.0640 O.2   224  HIS224     -0.2718
    184  CB        13.5730   61.6020   60.2010 C.3   224  HIS224      0.0759
    185  CG        15.0510   61.6520   60.4120 C.ar  224  HIS224      0.0818
    186  ND1       15.9510   61.6690   59.3700 N.ar  224  HIS224     -0.2268
    187  CD2       15.7870   61.6870   61.5460 C.ar  224  HIS224      0.1154
    188  CE1       17.1800   61.7090   59.8540 C.ar  224  HIS224      0.1986
    189  NE2       17.1080   61.7230   61.1730 N.ar  224  HIS224     -0.2212
    190  N         10.4880   62.7210   59.9850 N.am  225  LEU225     -0.1980
    191  CA         9.1950   62.5810   59.2970 C.3   225  LEU225      0.1596
    192  C          8.6740   63.9130   58.7880 C.2   225  LEU225      0.2287
    193  O          7.8970   63.9570   57.8350 O.2   225  LEU225     -0.2864
    194  CB         8.1310   61.9590   60.2060 C.3   225  LEU225      0.0297
    195  CG         8.1310   60.4550   60.4580 C.3   225  LEU225      0.0022
    196  CD1        7.0260   60.1300   61.4100 C.3   225  LEU225      0.0001
    197  CD2        7.9390   59.6740   59.1920 C.3   225  LEU225      0.0001
    198  N         26.3590   64.3040   53.3730 N.3   240  ARG240     -0.1245
    199  CA        25.7520   64.8430   54.5800 C.3   240  ARG240      0.1563
    200  C         26.7910   65.5290   55.4370 C.2   240  ARG240      0.2260
    201  O         26.4620   66.2060   56.4040 O.2   240  ARG240     -0.2867
    202  CB        25.0420   63.7410   55.3720 C.3   240  ARG240      0.0307
    203  CG        23.7950   63.2010   54.6650 C.3   240  ARG240      0.0489
    204  CD        23.1750   62.0160   55.3880 C.3   240  ARG240      0.2205
    205  NE        22.7970   62.3420   56.7590 N.pl3 240  ARG240     -0.0865
    206  CZ        23.4070   61.8530   57.8400 C.cat 240  ARG240      0.5346
    207  NH1       24.4360   61.0080   57.7170 N.pl3 240  ARG240      0.1354
    208  NH2       22.9860   62.2150   59.0500 N.pl3 240  ARG240      0.1354
@<TRIPOS>BOND
     1    60    54    1
     2    60    59    1
     3    54    55    1
     4    27    26    2
     5    59    58    1
     6    58    55    1
     7    55    56    1
     8    26    25    1
     9    31    29    1
    10    29    28    1
    11    29    30    1
    12    83    81    1
    13    25    28    1
    14    25    24    1
    15    56    57    2
    16    56    61   am
    17    20    19    2
    18     7     6    2
    19    46    45    2
    20    45    44    1
    21    82    81    1
    22    61    62    1
    23     8     6   am
    24     6     5    1
    25   110   109   ar
    26   110   108   ar
    27    81    78    1
    28    22    21    1
    29    22    23    1
    30    19    24   am
    31    19    18    1
    32   198   199    1
    33    68    70   ar
    34    68    66   ar
    35    89    88    1
    36    70    69   ar
    37    21    18    1
    38   109   107   ar
    39   108   106   ar
    40     5     2    1
    41    43    44    1
    42    23    17    1
    43    44    47    1
    44    80    79    2
    45    18    17    1
    46    62    65    1
    47    62    63    1
    48    78    79    1
    49    78    77    1
    50    66    65    1
    51    66    67   ar
    52   199   202    1
    53   199   200    1
    54   203   202    1
    55   203   204    1
    56    64    63    2
    57    69    67   ar
    58    79    84   am
    59    17    11   am
    60     2     3    1
    61     2     1    1
    62    47    48    1
    63   107   105   ar
    64    88    85    1
    65    63    71   am
    66   106   105   ar
    67   204   205    1
    68    84    85    1
    69   200   201    2
    70     3     4    2
    71    11    10    1
    72    11    12    2
    73    85    86    1
    74   105   104    1
    75    10     9    1
    76    10    13    1
    77    16    15    1
    78    48    50   ar
    79    48    49   ar
    80    71    72    1
    81    15    14    1
    82    50    52   ar
    83   205   206    2
    84    72    73    1
    85    72    75    1
    86    74    73    2
    87    86    87    2
    88    86    90   am
    89    13    14    1
    90   104   101    1
    91    49    51   ar
    92   207   206    1
    93   193   192    2
    94   206   208    1
    95    52    53   ar
    96   183   182    2
    97    90    91    1
    98   100   101    1
    99   101   102    1
   100    76    75    1
   101    99    97   ar
   102    99    98   ar
   103    51    53   ar
   104   192   191    1
   105    35    34    2
   106    97    95   ar
   107    98    96   ar
   108   197   195    1
   109   182   190   am
   110   182   181    1
   111   191   190    1
   112   191   194    1
   113    34    33    1
   114   186   188   ar
   115   186   185   ar
   116    91    94    1
   117    91    92    1
   118    95    96   ar
   119    95    94    1
   120   102   111   am
   121   102   103    2
   122   119   117   ar
   123   119   120   ar
   124   117   116   ar
   125   188   189   ar
   126   181   184    1
   127   181   180    1
   128   111   112    1
   129   184   185    1
   130   194   195    1
   131    33    32    1
   132    33    36    1
   133    92    93    2
   134   185   187   ar
   135   195   196    1
   136   120   118   ar
   137   116   115    1
   138   116   118   ar
   139   189   187   ar
   140   112   115    1
   141   112   113    1
   142    36    37    1
   143   135   134    1
   144    38    37   ar
   145    38    40   ar
   146   124   123    2
   147    37    39   ar
   148   113   114    2
   149   176   175    2
   150   133   134    1
   151   133   130    1
   152   134   136    1
   153    40    42   ar
   154   121   122    1
   155   125   122    1
   156   125   126    1
   157   128   126    1
   158   123   122    1
   159   167   166    2
   160   129   130    1
   161    39    41   ar
   162   132   131    2
   163   131   130    1
   164   126   127    1
   165   175   174    1
   166   148   147   ar
   167   178   177    1
   168    42    41   ar
   169   174   177    1
   170   174   173    1
   171   166   173   am
   172   166   165    1
   173   149   147   ar
   174   147   146    1
   175   177   179    1
   176   141   138    1
   177   169   168    1
   178   169   170    1
   179   165   168    1
   180   165   164    1
   181   171   170    1
   182   171   172    1
   183   142   143    1
   184   142   139   am
   185   146   143    1
   186   138   139    1
   187   138   137    1
   188   162   161    1
   189   143   144    1
   190   161   163    1
   191   161   158    1
   192   139   140    2
   193   156   154    1
   194   144   145    2
   195   160   159    2
   196   155   154    1
   197   154   151    1
   198   158   159    1
   199   158   157    1
   200   153   152    2
   201   151   152    1
   202   151   150    1
