@<TRIPOS>MOLECULE
tmp/5macA00.pdb
 161 153 0 0 0
SMALL
GASTEIGER

@<TRIPOS>ATOM
      1  N       -100.1670  606.6070   11.9770 N.3   165  ILE165     -0.1245
      2  CA      -100.5430  605.8650   13.1680 C.3   165  ILE165      0.1561
      3  C       -100.8260  604.4760   12.6240 C.2   165  ILE165      0.2260
      4  O       -101.4240  604.3550   11.5530 O.2   165  ILE165     -0.2867
      5  CB      -101.8050  606.4150   13.8690 C.3   165  ILE165      0.0252
      6  CG1     -101.7880  607.9370   14.0230 C.3   165  ILE165      0.0019
      7  CG2     -101.9850  605.7310   15.2140 C.3   165  ILE165      0.0019
      8  CD1     -102.6330  608.6570   12.9840 C.3   165  ILE165      0.0001
      9  N       -102.8640  601.2700   12.1350 N.3   167  LYS167     -0.1245
     10  CA      -104.2690  600.8870   12.1630 C.3   167  LYS167      0.1561
     11  C       -104.4280  599.4470   11.6380 C.2   167  LYS167      0.2260
     12  O       -103.6890  599.0680   10.7430 O.2   167  LYS167     -0.2867
     13  CB      -105.0800  601.8430   11.2660 C.3   167  LYS167      0.0271
     14  CG      -104.9900  603.3050   11.6570 C.3   167  LYS167      0.0035
     15  CD      -105.6530  603.6350   12.9880 C.3   167  LYS167      0.0206
     16  CE      -105.4650  605.0890   13.3460 C.3   167  LYS167      0.1093
     17  NZ      -106.3260  605.5330   14.4610 N.3   167  LYS167     -0.1314
     18  N       -106.6840  600.1640   15.1880 N.3   169  LYS169     -0.1245
     19  CA      -106.3770  600.7310   16.5080 C.3   169  LYS169      0.1561
     20  C       -106.0160  599.6260   17.5280 C.2   169  LYS169      0.2260
     21  O       -105.2330  599.8640   18.4490 O.2   169  LYS169     -0.2867
     22  CB      -107.5620  601.5700   17.0000 C.3   169  LYS169      0.0271
     23  CG      -107.4260  602.1190   18.4230 C.3   169  LYS169      0.0035
     24  CD      -108.6070  602.9970   18.7750 C.3   169  LYS169      0.0206
     25  CE      -108.6690  604.2140   17.9150 C.3   169  LYS169      0.1093
     26  NZ      -109.0530  605.4190   18.6840 N.3   169  LYS169     -0.1314
     27  N       -100.9210  603.8850   17.9440 N.3   194  ASP194     -0.1225
     28  CA      -102.2610  604.4190   18.2600 C.3   194  ASP194      0.1805
     29  C       -102.3610  604.4280   19.8130 C.2   194  ASP194      0.2597
     30  O       -101.8970  603.4920   20.4620 O.2   194  ASP194     -0.2718
     31  CB      -103.3890  603.5770   17.6340 C.3   194  ASP194      0.1424
     32  CG      -104.5890  604.3640   17.1790 C.2   194  ASP194      0.3668
     33  OD1     -104.8140  605.4690   17.7020 O.co2 194  ASP194     -0.2456
     34  OD2     -105.3070  603.8750   16.3070 O.co2 194  ASP194     -0.2456
     35  N       -102.8760  605.5160   20.3960 N.am  195  GLU195     -0.1979
     36  CA      -102.8980  605.7470   21.8600 C.3   195  GLU195      0.1602
     37  C       -103.2000  604.5450   22.7780 C.2   195  GLU195      0.2287
     38  O       -102.6510  604.5560   23.8800 O.2   195  GLU195     -0.2864
     39  CB      -103.8360  606.9030   22.2560 C.3   195  GLU195      0.0415
     40  CG      -105.3250  606.6830   22.0570 C.3   195  GLU195      0.1163
     41  CD      -105.8180  606.6800   20.6290 C.2   195  GLU195      0.3649
     42  OE1     -105.1230  607.2310   19.7520 O.co2 195  GLU195     -0.2457
     43  OE2     -106.9090  606.1290   20.3850 O.co2 195  GLU195     -0.2457
     44  N       -100.1280  612.6050   23.8870 N.3   287  HIS287     -0.1226
     45  CA      -101.4050  612.2690   23.3020 C.3   287  HIS287      0.1752
     46  C       -102.4370  612.7920   24.3530 C.2   287  HIS287      0.2596
     47  O       -102.1780  612.6860   25.5600 O.2   287  HIS287     -0.2718
     48  CB      -101.5570  610.7610   23.0140 C.3   287  HIS287      0.0759
     49  CG      -102.6640  610.5180   22.0360 C.ar  287  HIS287      0.0818
     50  ND1     -103.9670  610.3930   22.4500 N.ar  287  HIS287     -0.2268
     51  CD2     -102.6340  610.5210   20.6810 C.ar  287  HIS287      0.1154
     52  CE1     -104.6810  610.2740   21.3430 C.ar  287  HIS287      0.1986
     53  NE2     -103.9180  610.3700   20.2600 N.ar  287  HIS287     -0.2212
     54  N       -103.5570  613.4020   23.8820 N.am  288  ARG288     -0.1966
     55  CA      -104.5470  614.0810   24.7290 C.3   288  ARG288      0.1729
     56  C       -105.9430  613.4000   24.7820 C.2   288  ARG288      0.2616
     57  O       -106.9150  614.0440   25.1580 O.2   288  ARG288     -0.2715
     58  CB      -104.6800  615.5900   24.3020 C.3   288  ARG288      0.0348
     59  CG      -105.0780  615.8040   22.8390 C.3   288  ARG288      0.0492
     60  CD      -105.3550  617.2550   22.5360 C.3   288  ARG288      0.2205
     61  NE      -106.0090  617.4080   21.2310 N.pl3 288  ARG288     -0.0865
     62  CZ      -106.5400  618.5340   20.7720 C.cat 288  ARG288      0.5346
     63  NH1     -106.4720  619.6520   21.4860 N.pl3 288  ARG288      0.1354
     64  NH2     -107.1260  618.5590   19.5860 N.pl3 288  ARG288      0.1354
     65  N       -106.0450  612.1040   24.4920 N.am  289  ALA289     -0.1977
     66  CA      -107.3380  611.3950   24.5740 C.3   289  ALA289      0.1597
     67  C       -108.0170  611.6200   25.9370 C.2   289  ALA289      0.2287
     68  O       -107.3730  611.3990   26.9710 O.2   289  ALA289     -0.2864
     69  CB      -107.1360  609.9090   24.3540 C.3   289  ALA289      0.0319
     70  N       -109.5130  614.8000   26.5890 N.3   291  HIS291     -0.1241
     71  CA      -109.4760  616.2630   26.7790 C.3   291  HIS291      0.1621
     72  C       -110.8270  616.9540   26.4780 C.2   291  HIS291      0.2264
     73  O       -111.0980  618.0280   27.0290 O.2   291  HIS291     -0.2867
     74  CB      -108.3470  616.8920   25.9310 C.3   291  HIS291      0.0745
     75  CG      -108.6410  616.9440   24.4600 C.ar  291  HIS291      0.0817
     76  ND1     -109.1800  618.0660   23.8810 N.ar  291  HIS291     -0.2268
     77  CD2     -108.4950  615.9960   23.5050 C.ar  291  HIS291      0.1154
     78  CE1     -109.3610  617.7570   22.6040 C.ar  291  HIS291      0.1986
     79  NE2     -108.9580  616.5270   22.3400 N.ar  291  HIS291     -0.2212
     80  N       -100.7580  617.1820   20.7330 N.3   321  HIS321     -0.1241
     81  CA      -101.7970  617.2530   19.7190 C.3   321  HIS321      0.1621
     82  C       -102.5820  618.5430   19.9410 C.2   321  HIS321      0.2264
     83  O       -102.8790  618.9010   21.0720 O.2   321  HIS321     -0.2867
     84  CB      -102.7210  616.0370   19.7850 C.3   321  HIS321      0.0745
     85  CG      -102.1250  614.7640   19.2760 C.ar  321  HIS321      0.0817
     86  ND1     -102.6510  614.1230   18.1840 N.ar  321  HIS321     -0.2268
     87  CD2     -101.0770  614.0510   19.7320 C.ar  321  HIS321      0.1154
     88  CE1     -101.9050  613.0430   17.9940 C.ar  321  HIS321      0.1986
     89  NE2     -100.9430  612.9630   18.9010 N.ar  321  HIS321     -0.2212
     90  N       -104.9660  619.6130   17.1150 N.3   323  GLY323     -0.1225
     91  CA      -106.1230  619.5160   16.2360 C.3   323  GLY323      0.1811
     92  C       -105.9240  620.0530   14.8330 C.2   323  GLY323      0.2280
     93  O       -104.9900  620.8030   14.5570 O.2   323  GLY323     -0.2866
     94  N       -111.8730  614.9610   11.5240 N.3   329  LYS329     -0.1231
     95  CA      -112.9870  614.3880   12.2940 C.3   329  LYS329      0.1693
     96  C       -113.2000  614.9140   13.7310 C.2   329  LYS329      0.2591
     97  O       -114.1840  614.5010   14.3690 O.2   329  LYS329     -0.2718
     98  CB      -112.8430  612.8470   12.3410 C.3   329  LYS329      0.0285
     99  CG      -111.9170  612.2940   13.4330 C.3   329  LYS329      0.0035
    100  CD      -111.6090  610.8550   13.1470 C.3   329  LYS329      0.0206
    101  CE      -110.6230  610.2740   14.1150 C.3   329  LYS329      0.1093
    102  NZ      -110.1370  608.9460   13.6560 N.3   329  LYS329     -0.1314
    103  N       -112.3110  615.7880   14.2540 N.am  330  MET330     -0.1979
    104  CA      -112.4640  616.3180   15.6190 C.3   330  MET330      0.1605
    105  C       -112.8850  617.7720   15.5990 C.2   330  MET330      0.2287
    106  O       -112.7070  618.4550   14.6020 O.2   330  MET330     -0.2864
    107  CB      -111.1640  616.1630   16.4350 C.3   330  MET330      0.0413
    108  CG      -110.5980  614.7610   16.4590 C.3   330  MET330      0.0598
    109  SD      -111.6020  613.5750   17.3940 S.3   330  MET330     -0.1393
    110  CE      -110.6700  612.1290   17.1940 C.3   330  MET330      0.0692
    111  N       -103.3910  615.6590   13.9210 N.3   398  SER398     -0.1202
    112  CA      -103.9600  614.3550   13.6540 C.3   398  SER398      0.2020
    113  C       -105.4740  614.4200   13.7370 C.2   398  SER398      0.2619
    114  O       -105.9920  615.3850   14.2930 O.2   398  SER398     -0.2717
    115  CB      -103.4090  613.3870   14.7040 C.3   398  SER398      0.2103
    116  OG      -103.5930  612.0260   14.3610 O.3   398  SER398     -0.2182
    117  N       -106.1520  613.3750   13.2310 N.am  399  GLY399     -0.1942
    118  CA      -107.6130  613.2260   13.2820 C.3   399  GLY399      0.2014
    119  C       -108.3950  613.3490   11.9830 C.2   399  GLY399      0.2639
    120  O       -108.9970  614.3710   11.7180 O.2   399  GLY399     -0.2714
    121  N       -108.4720  612.2810   11.2220 N.am  400  GLY400     -0.1939
    122  CA      -109.2870  612.2030   10.0190 C.3   400  GLY400      0.2014
    123  C       -108.7990  612.9760    8.8260 C.2   400  GLY400      0.2638
    124  O       -109.6070  613.4030    8.0040 O.2   400  GLY400     -0.2714
    125  N       -107.4780  613.0990    8.6860 N.am  401  LEU401     -0.1977
    126  CA      -106.8630  613.8100    7.5610 C.3   401  LEU401      0.1596
    127  C       -106.4630  612.8330    6.5040 C.2   401  LEU401      0.2287
    128  O       -106.1250  611.7040    6.8330 O.2   401  LEU401     -0.2864
    129  CB      -105.5900  614.4940    8.0130 C.3   401  LEU401      0.0297
    130  CG      -105.7190  615.5490    9.0690 C.3   401  LEU401      0.0022
    131  CD1     -104.3870  615.7420    9.7840 C.3   401  LEU401      0.0001
    132  CD2     -106.2490  616.8380    8.4780 C.3   401  LEU401      0.0001
    133  N        -99.9330  613.2680   11.4080 N.3   421  THR421     -0.1203
    134  CA      -100.1120  611.8330   11.3540 C.3   421  THR421      0.1994
    135  C       -101.4380  611.5340   10.7140 C.2   421  THR421      0.2618
    136  O       -102.4580  612.0990   11.0940 O.2   421  THR421     -0.2717
    137  CB       -99.8940  611.1560   12.7070 C.3   421  THR421      0.1784
    138  OG1     -100.5820  611.8600   13.7230 O.3   421  THR421     -0.2211
    139  CG2      -98.4300  611.0480   13.0570 C.3   421  THR421      0.0376
    140  N       -101.3980  610.6810    9.6920 N.am  422  MET422     -0.1965
    141  CA      -102.5650  610.2120    8.9620 C.3   422  MET422      0.1736
    142  C       -102.6220  608.6620    9.0230 C.2   422  MET422      0.2617
    143  O       -101.7860  607.9860    8.4190 O.2   422  MET422     -0.2715
    144  CB      -102.4690  610.7170    7.5240 C.3   422  MET422      0.0427
    145  CG      -102.2280  612.1650    7.4660 C.3   422  MET422      0.0599
    146  SD      -102.5940  612.7800    5.8250 S.3   422  MET422     -0.1393
    147  CE      -102.5020  614.5260    6.1300 C.3   422  MET422      0.0692
    148  N       -103.5770  608.1300    9.7910 N.am  423  GLY423     -0.1940
    149  CA      -103.7960  606.6850    9.9090 C.3   423  GLY423      0.2014
    150  C       -104.7460  606.2050    8.8210 C.2   423  GLY423      0.2640
    151  O       -104.3230  605.5460    7.8690 O.2   423  GLY423     -0.2714
    152  N       -106.0310  606.5770    8.9210 N.am  424  SER424     -0.1935
    153  CA      -107.0280  606.2080    7.9050 C.3   424  SER424      0.2055
    154  C       -106.6870  606.8470    6.5360 C.2   424  SER424      0.2643
    155  O       -106.8670  606.2080    5.5090 O.2   424  SER424     -0.2714
    156  CB      -108.4490  606.5690    8.3550 C.3   424  SER424      0.2130
    157  OG      -108.7250  607.9610    8.3260 O.3   424  SER424     -0.2179
    158  N       -106.1030  608.0440    6.5390 N.am  425  GLY425     -0.1954
    159  CA      -105.6920  608.7080    5.3070 C.3   425  GLY425      0.1869
    160  C       -104.5010  608.0890    4.5990 C.2   425  GLY425      0.2309
    161  O       -104.0600  608.6330    3.5930 O.2   425  GLY425     -0.2863
@<TRIPOS>BOND
     1   161   160    2
     2   160   159    1
     3   159   158    1
     4   155   154    2
     5   146   147    1
     6   146   145    1
     7   127   128    2
     8   127   126    1
     9   154   158   am
    10   154   153    1
    11   145   144    1
    12   144   141    1
    13   126   129    1
    14   126   125    1
    15   151   150    2
    16   153   156    1
    17   153   152    1
    18   124   123    2
    19   129   130    1
    20   157   156    1
    21   143   142    2
    22   132   130    1
    23   125   123   am
    24   150   152   am
    25   150   149    1
    26   123   122    1
    27   141   142    1
    28   141   140    1
    29   142   148   am
    30   130   131    1
    31   140   135   am
    32   148   149    1
    33   122   121    1
    34   135   136    2
    35   135   134    1
    36    12    11    2
    37   121   119   am
    38    13    14    1
    39    13    10    1
    40   134   133    1
    41   134   137    1
    42    94    95    1
    43     4     3    2
    44    11    10    1
    45    14    15    1
    46   120   119    2
    47     1     2    1
    48   119   118    1
    49     9    10    1
    50    95    98    1
    51    95    96    1
    52    98    99    1
    53     3     2    1
    54   137   139    1
    55   137   138    1
    56     8     6    1
    57    15    16    1
    58   100    99    1
    59   100   101    1
    60     2     5    1
    61   117   118    1
    62   117   113   am
    63    16    17    1
    64   112   113    1
    65   112   111    1
    66   112   115    1
    67   102   101    1
    68    96   103   am
    69    96    97    2
    70   113   114    2
    71     5     6    1
    72     5     7    1
    73   103   104    1
    74   116   115    1
    75    93    92    2
    76   106   105    2
    77    92    91    1
    78    18    19    1
    79   105   104    1
    80   104   107    1
    81    91    90    1
    82    34    32   ar
    83   107   108    1
    84   108   109    1
    85    19    22    1
    86    19    20    1
    87    22    23    1
    88    32    31    1
    89    32    33   ar
    90   110   109    1
    91    20    21    2
    92    31    28    1
    93    25    26    1
    94    25    24    1
    95    27    28    1
    96    88    86   ar
    97    88    89   ar
    98    86    85   ar
    99    28    29    1
   100    23    24    1
   101    89    87   ar
   102    85    87   ar
   103    85    84    1
   104    64    62    1
   105    81    84    1
   106    81    82    1
   107    81    80    1
   108    42    41   ar
   109    29    35   am
   110    29    30    2
   111    82    83    2
   112    53    51   ar
   113    53    52   ar
   114    43    41   ar
   115    35    36    1
   116    41    40    1
   117    51    49   ar
   118    62    61    2
   119    62    63    1
   120    61    60    1
   121    52    50   ar
   122    36    39    1
   123    36    37    1
   124    49    50   ar
   125    49    48    1
   126    40    39    1
   127    79    78   ar
   128    79    77   ar
   129    60    59    1
   130    78    76   ar
   131    37    38    2
   132    59    58    1
   133    48    45    1
   134    45    44    1
   135    45    46    1
   136    77    75   ar
   137    76    75   ar
   138    54    46   am
   139    54    55    1
   140    58    55    1
   141    46    47    2
   142    69    66    1
   143    75    74    1
   144    65    66    1
   145    65    56   am
   146    66    67    1
   147    55    56    1
   148    56    57    2
   149    74    71    1
   150    67    68    2
   151    72    71    1
   152    72    73    2
   153    70    71    1
