@<TRIPOS>MOLECULE
tmp/5madC01.pdb
 102 101 0 0 0
SMALL
GASTEIGER

@<TRIPOS>ATOM
      1  N         84.7800    5.7140  108.1640 N.3    45  TRP45      -0.1241
      2  CA        83.9800    6.7740  107.5630 C.3    45  TRP45       0.1605
      3  C         84.6340    8.1390  107.6420 C.2    45  TRP45       0.2264
      4  O         84.0060    9.1280  107.2540 O.2    45  TRP45      -0.2867
      5  CB        82.5960    6.8220  108.2260 C.3    45  TRP45       0.0550
      6  CG        81.8130    5.5730  107.9490 C.ar   45  TRP45       0.0003
      7  CD1       81.8460    4.4150  108.6570 C.ar   45  TRP45       0.0946
      8  CD2       80.9070    5.3490  106.8590 C.ar   45  TRP45       0.0152
      9  NE1       81.0270    3.4840  108.0840 N.ar   45  TRP45      -0.2442
     10  CE2       80.4420    4.0300  106.9730 C.ar   45  TRP45       0.0810
     11  CE3       80.4530    6.1330  105.8080 C.ar   45  TRP45       0.0012
     12  CZ2       79.5280    3.4850  106.0870 C.ar   45  TRP45       0.0191
     13  CZ3       79.5430    5.5980  104.9300 C.ar   45  TRP45       0.0001
     14  CH2       79.1010    4.2780  105.0590 C.ar   45  TRP45       0.0015
     15  N         80.9880   -6.4180  104.0850 N.3    69  TYR69      -0.1241
     16  CA        81.8180   -5.2460  103.8320 C.3    69  TYR69       0.1605
     17  C         82.9910   -5.1660  104.8000 C.2    69  TYR69       0.2264
     18  O         82.8120   -5.2780  106.0200 O.2    69  TYR69      -0.2867
     19  CB        81.0080   -3.9620  103.9350 C.3    69  TYR69       0.0534
     20  CG        79.7690   -3.9260  103.0510 C.ar   69  TYR69      -0.0201
     21  CD1       79.7700   -4.4760  101.7780 C.ar   69  TYR69      -0.0009
     22  CD2       78.5930   -3.3700  103.5230 C.ar   69  TYR69      -0.0009
     23  CE1       78.6270   -4.4480  100.9870 C.ar   69  TYR69       0.0417
     24  CE2       77.4670   -3.3230  102.7460 C.ar   69  TYR69       0.0417
     25  CZ        77.4810   -3.8670  101.4900 C.ar   69  TYR69       0.1957
     26  OH        76.3320   -3.8290  100.7320 O.3    69  TYR69      -0.2866
     27  N         86.0190   -1.3700  101.9760 N.3    73  HIS73      -0.1226
     28  CA        84.7820   -1.0740  101.2480 C.3    73  HIS73       0.1752
     29  C         84.1770    0.2300  101.7390 C.2    73  HIS73       0.2595
     30  O         83.7420    1.0710  100.9490 O.2    73  HIS73      -0.2718
     31  CB        83.7430   -2.1690  101.4450 C.3    73  HIS73       0.0759
     32  CG        83.9760   -3.4210  100.6710 C.ar   73  HIS73       0.0818
     33  ND1       84.4300   -4.5780  101.2610 N.ar   73  HIS73      -0.2268
     34  CD2       83.7570   -3.7240   99.3680 C.ar   73  HIS73       0.1154
     35  CE1       84.5120   -5.5350  100.3530 C.ar   73  HIS73       0.1986
     36  NE2       84.1070   -5.0420   99.1950 N.ar   73  HIS73      -0.2212
     37  N         84.0830    0.3850  103.0600 N.am   74  LEU74      -0.1980
     38  CA        83.4200    1.5670  103.6090 C.3    74  LEU74       0.1596
     39  C         84.2160    2.8310  103.3060 C.2    74  LEU74       0.2287
     40  O         83.6430    3.8870  103.0170 O.2    74  LEU74      -0.2864
     41  CB        83.2110    1.3840  105.1200 C.3    74  LEU74       0.0297
     42  CG        82.3650    0.1680  105.5080 C.3    74  LEU74       0.0022
     43  CD1       82.1950    0.0780  107.0280 C.3    74  LEU74       0.0001
     44  CD2       81.0100    0.1810  104.8280 C.3    74  LEU74       0.0001
     45  N         83.4950    3.6540   99.6320 N.3    77  PHE77      -0.1241
     46  CA        82.1290    4.1590   99.5170 C.3    77  PHE77       0.1605
     47  C         82.0260    5.5990  100.0000 C.2    77  PHE77       0.2264
     48  O         81.3010    6.4050   99.4010 O.2    77  PHE77      -0.2867
     49  CB        81.1830    3.2570  100.3060 C.3    77  PHE77       0.0534
     50  CG        79.7620    3.7810  100.4000 C.ar   77  PHE77      -0.0203
     51  CD1       78.8770    3.5760   99.3670 C.ar   77  PHE77      -0.0042
     52  CD2       79.3320    4.4840  101.5200 C.ar   77  PHE77      -0.0042
     53  CE1       77.5670    4.0480   99.4460 C.ar   77  PHE77      -0.0003
     54  CE2       78.0300    4.9600  101.6200 C.ar   77  PHE77      -0.0003
     55  CZ        77.1460    4.7480  100.5700 C.ar   77  PHE77      -0.0000
     56  N         80.5850   -6.4140   95.5350 N.3   102  PHE102     -0.1241
     57  CA        81.4310   -5.4010   94.9280 C.3   102  PHE102      0.1605
     58  C         82.8170   -5.5720   95.5300 C.2   102  PHE102      0.2264
     59  O         82.9470   -5.9560   96.7000 O.2   102  PHE102     -0.2867
     60  CB        80.9830   -3.9610   95.2400 C.3   102  PHE102      0.0534
     61  CG        79.5560   -3.6530   94.9380 C.ar  102  PHE102     -0.0203
     62  CD1       79.1860   -3.2460   93.6670 C.ar  102  PHE102     -0.0042
     63  CD2       78.5980   -3.7020   95.9300 C.ar  102  PHE102     -0.0042
     64  CE1       77.8770   -2.9340   93.3790 C.ar  102  PHE102     -0.0003
     65  CE2       77.2900   -3.3800   95.6580 C.ar  102  PHE102     -0.0003
     66  CZ        76.9240   -2.9940   94.3790 C.ar  102  PHE102     -0.0000
     67  N         83.3500    0.1840   93.9430 N.3   107  LEU107     -0.1245
     68  CA        82.7760    1.2970   94.6870 C.3   107  LEU107      0.1561
     69  C         83.4520    2.6050   94.3210 C.2   107  LEU107      0.2260
     70  O         82.7910    3.6150   94.0820 O.2   107  LEU107     -0.2867
     71  CB        82.8800    1.0280   96.1960 C.3   107  LEU107      0.0270
     72  CG        82.0830   -0.1730   96.6880 C.3   107  LEU107      0.0019
     73  CD1       82.4100   -0.4290   98.1730 C.3   107  LEU107      0.0001
     74  CD2       80.6070    0.0530   96.4870 C.3   107  LEU107      0.0001
     75  N         82.1050    3.5920   90.9450 N.3   110  ILE110     -0.1231
     76  CA        80.7130    4.0390   90.9750 C.3   110  ILE110      0.1692
     77  C         80.6330    5.5100   91.3420 C.2   110  ILE110      0.2592
     78  O         79.8210    6.2560   90.7900 O.2   110  ILE110     -0.2718
     79  CB        79.9040    3.1750   91.9620 C.3   110  ILE110      0.0266
     80  CG1       79.6950    1.7710   91.3880 C.3   110  ILE110      0.0019
     81  CG2       78.5570    3.8370   92.3050 C.3   110  ILE110      0.0020
     82  CD1       79.2310    0.7430   92.4200 C.3   110  ILE110      0.0001
     83  N         81.4430    5.9440   92.3100 N.am  111  PHE111     -0.1976
     84  CA        81.3590    7.2980   92.8210 C.3   111  PHE111      0.1639
     85  C         82.4250    8.2210   92.2540 C.2   111  PHE111      0.2290
     86  O         82.5620    9.3510   92.7290 O.2   111  PHE111     -0.2864
     87  CB        81.3790    7.2410   94.3420 C.3   111  PHE111      0.0560
     88  CG        80.2500    6.4200   94.8710 C.ar  111  PHE111     -0.0200
     89  CD1       78.9480    6.8470   94.6810 C.ar  111  PHE111     -0.0042
     90  CD2       80.4730    5.1930   95.4440 C.ar  111  PHE111     -0.0042
     91  CE1       77.9040    6.0850   95.1070 C.ar  111  PHE111     -0.0003
     92  CE2       79.4340    4.4180   95.8780 C.ar  111  PHE111     -0.0003
     93  CZ        78.1300    4.8660   95.6980 C.ar  111  PHE111     -0.0000
     94  N         78.0500   -7.7450   91.4260 N.3   132  LYS132     -0.1245
     95  CA        76.8800   -8.6210   91.4320 C.3   132  LYS132      0.1561
     96  C         75.9550   -8.3780   90.2460 C.2   132  LYS132      0.2260
     97  O         75.0710   -9.2040   89.9940 O.2   132  LYS132     -0.2867
     98  CB        76.1000   -8.4650   92.7410 C.3   132  LYS132      0.0271
     99  CG        75.6260   -7.0530   93.0490 C.3   132  LYS132      0.0035
    100  CD        74.7800   -7.0330   94.3080 C.3   132  LYS132      0.0206
    101  CE        74.4980   -5.6130   94.7670 C.3   132  LYS132      0.1093
    102  NZ        73.9470   -5.5570   96.1600 N.3   132  LYS132     -0.1314
@<TRIPOS>BOND
     1    97    96    2
     2    96    95    1
     3    78    77    2
     4    75    76    1
     5    76    77    1
     6    76    79    1
     7    77    83   am
     8    80    79    1
     9    80    82    1
    10    94    95    1
    11    95    98    1
    12    79    81    1
    13    85    86    2
    14    85    84    1
    15    83    84    1
    16    98    99    1
    17    84    87    1
    18    99   100    1
    19    64    62   ar
    20    64    66   ar
    21    62    61   ar
    22    67    68    1
    23    70    69    2
    24   100   101    1
    25    69    68    1
    26    87    88    1
    27    66    65   ar
    28    89    88   ar
    29    89    91   ar
    30    68    71    1
    31   101   102    1
    32    88    90   ar
    33    57    60    1
    34    57    58    1
    35    57    56    1
    36    61    60    1
    37    61    63   ar
    38    91    93   ar
    39    90    92   ar
    40    58    59    2
    41    65    63   ar
    42    93    92   ar
    43    71    72    1
    44    74    72    1
    45    72    73    1
    46    36    34   ar
    47    36    35   ar
    48    51    53   ar
    49    51    50   ar
    50    34    32   ar
    51    48    47    2
    52    53    55   ar
    53    46    45    1
    54    46    47    1
    55    46    49    1
    56    49    50    1
    57    35    33   ar
    58    50    52   ar
    59    55    54   ar
    60    32    33   ar
    61    32    31    1
    62    26    25    1
    63    30    29    2
    64    23    25   ar
    65    23    21   ar
    66    28    31    1
    67    28    29    1
    68    28    27    1
    69    25    24   ar
    70    52    54   ar
    71    29    37   am
    72    21    20   ar
    73    24    22   ar
    74    40    39    2
    75    20    22   ar
    76    20    19    1
    77    37    38    1
    78    39    38    1
    79    38    41    1
    80    16    19    1
    81    16    15    1
    82    16    17    1
    83    17    18    2
    84    44    42    1
    85    13    14   ar
    86    13    11   ar
    87    14    12   ar
    88    41    42    1
    89    42    43    1
    90    11     8   ar
    91    12    10   ar
    92     8    10   ar
    93     8     6   ar
    94    10     9   ar
    95     4     3    2
    96     2     3    1
    97     2     1    1
    98     2     5    1
    99     6     5    1
   100     6     7   ar
   101     9     7   ar
