@<TRIPOS>MOLECULE
tmp/5maeA00.pdb
 92 90 0 0 0
SMALL
GASTEIGER

@<TRIPOS>ATOM
      1  N         -9.9470    7.7300   10.8520 N.3    25  CYS25      -0.1221
      2  CA        -9.7170    6.2790   10.6810 C.3    25  CYS25       0.1808
      3  C        -10.8000    5.4680   11.4120 C.2    25  CYS25       0.2601
      4  O        -11.1800    4.3730   10.9670 O.2    25  CYS25      -0.2717
      5  CB        -8.3460    5.8690   11.2060 C.3    25  CYS25       0.0970
      6  SG        -8.0940    6.2000   12.9420 S.3    25  CYS25      -0.0800
      7  N        -11.2630    5.9330   12.5900 N.am   26  TRP26      -0.1976
      8  CA       -12.2400    5.2560   13.3660 C.3    26  TRP26       0.1640
      9  C        -13.5180    5.0830   12.5990 C.2    26  TRP26       0.2290
     10  O        -14.2320    4.0790   12.8120 O.2    26  TRP26      -0.2864
     11  CB       -12.4820    6.0600   14.6800 C.3    26  TRP26       0.0576
     12  CG       -12.8990    7.5190   14.3940 C.ar   26  TRP26       0.0006
     13  CD1      -12.0700    8.5930   14.2100 C.ar   26  TRP26       0.0946
     14  CD2      -14.2360    8.0140   14.1930 C.ar   26  TRP26       0.0152
     15  NE1      -12.7860    9.7310   13.9610 N.ar   26  TRP26      -0.2442
     16  CE2      -14.1380    9.3930   13.8850 C.ar   26  TRP26       0.0810
     17  CE3      -15.5010    7.4050   14.1870 C.ar   26  TRP26       0.0012
     18  CZ2      -15.2480   10.1750   13.5670 C.ar   26  TRP26       0.0191
     19  CZ3      -16.6070    8.1500   13.8560 C.ar   26  TRP26       0.0001
     20  CH2      -16.4900    9.5550   13.6030 C.ar   26  TRP26       0.0015
     21  N        -10.5660   12.9120   15.7150 N.3    67  GLY67      -0.1210
     22  CA       -10.5140   11.5310   16.3630 C.3    67  GLY67       0.1956
     23  C        -11.9200   11.0740   16.7510 C.2    67  GLY67       0.2612
     24  O        -12.9480   11.8060   16.6150 O.2    67  GLY67      -0.2717
     25  N        -11.9480    9.8840   17.2720 N.am   68  GLY68      -0.1942
     26  CA       -13.2040    9.1900   17.5880 C.3    68  GLY68       0.2014
     27  C        -12.8910    7.7610   17.8750 C.2    68  GLY68       0.2639
     28  O        -11.6770    7.3200   17.8630 O.2    68  GLY68      -0.2714
     29  N        -13.9070    6.9600   18.1070 N.am   69  LEU69      -0.1963
     30  CA       -13.7640    5.5200   18.4170 C.3    69  LEU69       0.1728
     31  C        -14.7870    4.7320   17.6270 C.2    69  LEU69       0.2616
     32  O        -15.9470    5.1650   17.4890 O.2    69  LEU69      -0.2715
     33  CB       -13.9370    5.2310   19.8930 C.3    69  LEU69       0.0311
     34  CG       -12.8740    5.7670   20.8260 C.3    69  LEU69       0.0022
     35  CD1      -13.2290    5.4790   22.2200 C.3    69  LEU69       0.0001
     36  CD2      -11.4820    5.1260   20.4930 C.3    69  LEU69       0.0001
     37  N        -14.4360    3.5310   17.2660 N.am   70  MET70      -0.1977
     38  CA       -15.3710    2.6770   16.5570 C.3    70  MET70       0.1605
     39  C        -16.5960    2.3400   17.4200 C.2    70  MET70       0.2287
     40  O        -17.7010    2.3950   16.8540 O.2    70  MET70      -0.2864
     41  CB       -14.6740    1.3660   16.1030 C.3    70  MET70       0.0413
     42  CG       -13.5860    1.6000   15.0540 C.3    70  MET70       0.0598
     43  SD       -11.9950    2.2370   15.6820 S.3    70  MET70      -0.1393
     44  CE       -11.2380    0.7120   16.2090 C.3    70  MET70       0.0692
     45  N         -7.8330   -1.4320   17.1450 N.3   135  ALA135     -0.1245
     46  CA        -6.8790   -0.3000   17.2900 C.3   135  ALA135      0.1562
     47  C         -5.4740   -0.8700   17.3780 C.2   135  ALA135      0.2260
     48  O         -5.2260   -1.9020   17.9900 O.2   135  ALA135     -0.2867
     49  CB        -7.1950    0.3790   18.6090 C.3   135  ALA135      0.0290
     50  N         -0.5610    1.2360   23.8150 N.3   160  ASP160     -0.1225
     51  CA        -0.5980    2.6470   23.3300 C.3   160  ASP160      0.1805
     52  C         -0.9720    2.6840   21.9030 C.2   160  ASP160      0.2598
     53  O         -0.2330    2.9320   21.0150 O.2   160  ASP160     -0.2718
     54  CB         0.8190    3.1920   23.5740 C.3   160  ASP160      0.1424
     55  CG         1.0360    4.6630   23.2400 C.2   160  ASP160      0.3668
     56  OD1        0.0900    5.4380   23.1190 O.co2 160  ASP160     -0.2456
     57  OD2        2.2560    5.1380   23.2860 O.co2 160  ASP160     -0.2456
     58  N         -2.2890    2.4410   21.6180 N.am  161  MET161     -0.1965
     59  CA        -2.7930    2.4170   20.2310 C.3   161  MET161      0.1736
     60  C         -3.2340    3.8710   19.7850 C.2   161  MET161      0.2616
     61  O         -3.7990    4.5780   20.5890 O.2   161  MET161     -0.2715
     62  CB        -3.9560    1.4450   20.0800 C.3   161  MET161      0.0427
     63  CG        -3.5580   -0.0460   20.5210 C.3   161  MET161      0.0599
     64  SD        -3.6710   -0.4250   22.1920 S.3   161  MET161     -0.1393
     65  CE        -5.4760   -0.4520   22.1320 C.3   161  MET161      0.0692
     66  N         -3.0640    4.1270   18.5280 N.am  162  ASP162     -0.1957
     67  CA        -3.3120    5.4870   17.9780 C.3   162  ASP162      0.1840
     68  C         -3.9390    5.4700   16.5990 C.2   162  ASP162      0.2622
     69  O         -4.0550    6.5100   15.9990 O.2   162  ASP162     -0.2715
     70  CB        -2.0090    6.2840   17.9480 C.3   162  ASP162      0.1450
     71  CG        -0.9620    5.7620   17.0410 C.2   162  ASP162      0.3671
     72  OD1       -1.2040    4.7530   16.4030 O.co2 162  ASP162     -0.2456
     73  OD2        0.1050    6.4460   16.9060 O.co2 162  ASP162     -0.2456
     74  N         -4.4170    4.2660   16.1440 N.am  163  HIS163     -0.1959
     75  CA        -4.9690    4.1940   14.7840 C.3   163  HIS163      0.1787
     76  C         -5.9800    3.0620   14.7530 C.2   163  HIS163      0.2620
     77  O         -5.7360    2.0050   15.3320 O.2   163  HIS163     -0.2715
     78  CB        -3.8060    3.9230   13.7760 C.3   163  HIS163      0.0785
     79  CG        -4.1830    4.0440   12.3580 C.ar  163  HIS163      0.0821
     80  ND1       -4.8310    5.1670   11.8150 N.ar  163  HIS163     -0.2267
     81  CD2       -4.0080    3.1720   11.3400 C.ar  163  HIS163      0.1154
     82  CE1       -4.9860    4.9750   10.5320 C.ar  163  HIS163      0.1986
     83  NE2       -4.5590    3.7220   10.2220 N.ar  163  HIS163     -0.2212
     84  N         -7.0940    3.2560   14.1050 N.am  164  GLY164     -0.1954
     85  CA        -8.1250    2.2150   13.9410 C.3   164  GLY164      0.1869
     86  C         -8.1530    1.7130   12.5530 C.2   164  GLY164      0.2309
     87  O         -8.1300    2.4480   11.5860 O.2   164  GLY164     -0.2863
     88  N         -8.2050   -3.4860   21.8140 N.3   211  ALA211     -0.1245
     89  CA        -9.4470   -2.6690   21.7190 C.3   211  ALA211      0.1562
     90  C        -10.1730   -3.0910   20.4290 C.2   211  ALA211      0.2260
     91  O        -10.4390   -2.2550   19.5570 O.2   211  ALA211     -0.2867
     92  CB        -9.1190   -1.1760   21.7770 C.3   211  ALA211      0.0290
@<TRIPOS>BOND
     1    83    82   ar
     2    83    81   ar
     3    82    80   ar
     4     2     1    1
     5     2     5    1
     6     2     3    1
     7     4     3    2
     8     5     6    1
     9    81    79   ar
    10     3     7   am
    11    87    86    2
    12    80    79   ar
    13    79    78    1
    14    86    85    1
    15     7     8    1
    16     9    10    2
    17     9     8    1
    18     8    11    1
    19    18    20   ar
    20    18    16   ar
    21    20    19   ar
    22    78    75    1
    23    19    17   ar
    24    16    15   ar
    25    16    14   ar
    26    85    84    1
    27    15    13   ar
    28    84    76   am
    29    17    14   ar
    30    14    12   ar
    31    13    12   ar
    32    12    11    1
    33    76    75    1
    34    76    77    2
    35    75    74    1
    36    42    43    1
    37    42    41    1
    38    43    44    1
    39    21    22    1
    40    69    68    2
    41    41    38    1
    42    74    68   am
    43    22    23    1
    44    72    71   ar
    45    38    37    1
    46    38    39    1
    47    68    67    1
    48    24    23    2
    49    23    25   am
    50    40    39    2
    51    73    71   ar
    52    71    70    1
    53    45    46    1
    54    37    31   am
    55    25    26    1
    56    46    47    1
    57    46    49    1
    58    47    48    2
    59    32    31    2
    60    26    27    1
    61    31    30    1
    62    28    27    2
    63    27    29   am
    64    70    67    1
    65    67    66    1
    66    29    30    1
    67    30    33    1
    68    66    60   am
    69    91    90    2
    70    60    59    1
    71    60    61    2
    72    33    34    1
    73    62    59    1
    74    62    63    1
    75    59    58    1
    76    90    89    1
    77    36    34    1
    78    63    64    1
    79    34    35    1
    80    53    52    2
    81    58    52   am
    82    89    92    1
    83    89    88    1
    84    52    51    1
    85    65    64    1
    86    56    55   ar
    87    55    57   ar
    88    55    54    1
    89    51    54    1
    90    51    50    1
