@<TRIPOS>MOLECULE
tmp/5mafA00.pdb
 182 172 0 0 0
SMALL
GASTEIGER

@<TRIPOS>ATOM
      1  N         22.9510   15.0250   88.4240 N.3    15  GLU15      -0.1245
      2  CA        22.1010   16.0960   88.9680 C.3    15  GLU15       0.1567
      3  C         21.4730   15.7520   90.3240 C.2    15  GLU15       0.2260
      4  O         21.3860   14.5810   90.7060 O.2    15  GLU15      -0.2867
      5  CB        21.0040   16.5160   87.9560 C.3    15  GLU15       0.0388
      6  CG        19.8010   15.5750   87.7720 C.3    15  GLU15       0.1160
      7  CD        19.9570   14.5680   86.6350 C.2    15  GLU15       0.3649
      8  OE1       21.0730   14.0430   86.4390 O.co2  15  GLU15      -0.2457
      9  OE2       18.9500   14.2860   85.9430 O.co2  15  GLU15      -0.2457
     10  N         18.4510   14.9180   91.9640 N.3    17  ILE17      -0.1231
     11  CA        17.2010   14.2780   91.5030 C.3    17  ILE17       0.1692
     12  C         16.0370   14.4690   92.4800 C.2    17  ILE17       0.2593
     13  O         14.9180   14.0520   92.2010 O.2    17  ILE17      -0.2718
     14  CB        17.3800   12.7690   91.1860 C.3    17  ILE17       0.0266
     15  CG1       17.9210   11.9830   92.3930 C.3    17  ILE17       0.0019
     16  CG2       18.2880   12.5930   89.9770 C.3    17  ILE17       0.0020
     17  CD1       17.9090   10.4790   92.2060 C.3    17  ILE17       0.0001
     18  N         16.3010   15.0930   93.6200 N.am   18  GLY18      -0.1942
     19  CA        15.2470   15.4490   94.5540 C.3    18  GLY18       0.2014
     20  C         15.8090   16.1570   95.7670 C.2    18  GLY18       0.2639
     21  O         17.0180   16.1460   96.0010 O.2    18  GLY18      -0.2714
     22  N         14.9250   16.7790   96.5380 N.am   19  THR19      -0.1950
     23  CA        15.3460   17.5800   97.6840 C.3    19  THR19       0.1897
     24  C         14.2030   17.8100   98.6840 C.2    19  THR19       0.2313
     25  O         13.3520   18.6770   98.4840 O.2    19  THR19      -0.2863
     26  CB        15.9860   18.9230   97.2250 C.3    19  THR19       0.1794
     27  OG1       16.0200   19.8550   98.3140 O.3    19  THR19      -0.2208
     28  CG2       15.2290   19.5420   96.0380 C.3    19  THR19       0.0378
     29  N         19.3640   14.7720   97.5480 N.3    25  VAL25      -0.1245
     30  CA        19.7750   13.5050   96.9720 C.3    25  VAL25       0.1561
     31  C         20.2160   13.7560   95.5320 C.2    25  VAL25       0.2260
     32  O         19.5210   14.4360   94.7800 O.2    25  VAL25      -0.2867
     33  CB        18.6310   12.4660   97.0160 C.3    25  VAL25       0.0252
     34  CG1       19.1360   11.0900   96.6090 C.3    25  VAL25       0.0019
     35  CG2       18.0100   12.4070   98.4080 C.3    25  VAL25       0.0019
     36  N         21.7050   11.7890   91.9130 N.3    27  LEU27      -0.1245
     37  CA        22.0260   10.6010   91.1210 C.3    27  LEU27       0.1561
     38  C         23.5360   10.5330   90.9320 C.2    27  LEU27       0.2260
     39  O         24.1840   11.5590   90.7120 O.2    27  LEU27      -0.2867
     40  CB        21.3500   10.6700   89.7500 C.3    27  LEU27       0.0270
     41  CG        21.5680    9.5200   88.7690 C.3    27  LEU27       0.0019
     42  CD1       21.0690    8.2090   89.3540 C.3    27  LEU27       0.0001
     43  CD2       20.8670    9.8170   87.4520 C.3    27  LEU27       0.0001
     44  N         21.7120    6.4340   94.4070 N.3    38  ALA38      -0.1245
     45  CA        21.2510    7.7180   94.9300 C.3    38  ALA38       0.1562
     46  C         22.0880    8.0570   96.1520 C.2    38  ALA38       0.2260
     47  O         22.2810    7.2090   97.0170 O.2    38  ALA38      -0.2867
     48  CB        19.7800    7.6420   95.2960 C.3    38  ALA38       0.0290
     49  N         22.2920   10.5130   99.2880 N.3    40  LYS40      -0.1245
     50  CA        21.6720   11.5050  100.1590 C.3    40  LYS40       0.1561
     51  C         22.7720   12.3010  100.8370 C.2    40  LYS40       0.2260
     52  O         23.6900   11.7210  101.4140 O.2    40  LYS40      -0.2867
     53  CB        20.7570   10.8430  101.1960 C.3    40  LYS40       0.0271
     54  CG        19.8240   11.8240  101.8980 C.3    40  LYS40       0.0035
     55  CD        18.4100   11.2860  102.0990 C.3    40  LYS40       0.0206
     56  CE        18.2530   10.4440  103.3620 C.3    40  LYS40       0.1093
     57  NZ        16.8200   10.1400  103.6600 N.3    40  LYS40      -0.1314
     58  N         18.5100    6.9560  111.1660 N.3    55  GLU55      -0.1245
     59  CA        18.2890    6.3880  109.8430 C.3    55  GLU55       0.1567
     60  C         19.3830    5.4060  109.4500 C.2    55  GLU55       0.2260
     61  O         19.0860    4.3380  108.9230 O.2    55  GLU55      -0.2867
     62  CB        18.1820    7.4920  108.7890 C.3    55  GLU55       0.0388
     63  CG        17.8450    6.9840  107.3930 C.3    55  GLU55       0.1160
     64  CD        17.3650    8.0700  106.4450 C.2    55  GLU55       0.3649
     65  OE1       17.7050    9.2520  106.6480 O.co2  55  GLU55      -0.2457
     66  OE2       16.6420    7.7380  105.4810 O.co2  55  GLU55      -0.2457
     67  N         18.9770    1.4080  108.9170 N.3    59  LEU59      -0.1245
     68  CA        19.2780    0.7740  107.6280 C.3    59  LEU59       0.1561
     69  C         20.3180   -0.3470  107.7220 C.2    59  LEU59       0.2260
     70  O         20.2000   -1.3480  107.0110 O.2    59  LEU59      -0.2867
     71  CB        19.7090    1.8120  106.5860 C.3    59  LEU59       0.0270
     72  CG        18.5920    2.7160  106.0530 C.3    59  LEU59       0.0019
     73  CD1       19.1940    3.8690  105.2660 C.3    59  LEU59       0.0001
     74  CD2       17.5880    1.9470  105.1980 C.3    59  LEU59       0.0001
     75  N         14.8510    0.0840  100.9090 N.3    68  CYS68      -0.1235
     76  CA        15.9170    0.6600  100.1140 C.3    68  CYS68       0.1677
     77  C         17.2660    0.3380  100.7500 C.2    68  CYS68       0.2270
     78  O         17.4840    0.6170  101.9270 O.2    68  CYS68      -0.2867
     79  CB        15.7210    2.1660  100.0110 C.3    68  CYS68       0.0956
     80  SG        16.7750    2.9730   98.7990 S.3    68  CYS68      -0.0801
     81  N         22.9400    5.1100   98.4990 N.3    84  LEU84      -0.1231
     82  CA        21.7480    4.2780   98.6150 C.3    84  LEU84       0.1693
     83  C         21.3680    3.6590   97.2780 C.2    84  LEU84       0.2592
     84  O         21.8840    4.0420   96.2290 O.2    84  LEU84      -0.2718
     85  CB        20.5810    5.1310   99.1160 C.3    84  LEU84       0.0284
     86  CG        20.7020    5.7020  100.5340 C.3    84  LEU84       0.0019
     87  CD1       19.8960    6.9860  100.6850 C.3    84  LEU84       0.0001
     88  CD2       20.2690    4.6610  101.5520 C.3    84  LEU84       0.0001
     89  N         20.4470    2.7040   97.3380 N.am   85  GLU85      -0.1966
     90  CA        19.8700    2.0790   96.1540 C.3    85  GLU85       0.1733
     91  C         19.0840    3.1080   95.3470 C.2    85  GLU85       0.2616
     92  O         18.1890    3.7620   95.8840 O.2    85  GLU85      -0.2715
     93  CB        18.9580    0.9210   96.5740 C.3    85  GLU85       0.0429
     94  CG        18.4060    0.0820   95.4330 C.3    85  GLU85       0.1163
     95  CD        17.4930   -1.0450   95.9010 C.2    85  GLU85       0.3649
     96  OE1       17.4160   -1.3330   97.1220 O.co2  85  GLU85      -0.2457
     97  OE2       16.8480   -1.6560   95.0230 O.co2  85  GLU85      -0.2457
     98  N         19.4330    3.2510   94.0670 N.am   86  TYR86      -0.1960
     99  CA        18.7150    4.1440   93.1520 C.3    86  TYR86       0.1771
    100  C         17.4470    3.4690   92.6280 C.2    86  TYR86       0.2620
    101  O         17.5030    2.3670   92.0810 O.2    86  TYR86      -0.2715
    102  CB        19.6150    4.5770   91.9880 C.3    86  TYR86       0.0574
    103  CG        18.9070    5.3400   90.8830 C.ar   86  TYR86      -0.0198
    104  CD1       18.2260    6.5290   91.1480 C.ar   86  TYR86      -0.0009
    105  CD2       18.9320    4.8780   89.5700 C.ar   86  TYR86      -0.0009
    106  CE1       17.5820    7.2260   90.1380 C.ar   86  TYR86       0.0417
    107  CE2       18.2940    5.5710   88.5520 C.ar   86  TYR86       0.0417
    108  CZ        17.6210    6.7420   88.8380 C.ar   86  TYR86       0.1957
    109  OH        16.9960    7.4150   87.8120 O.3    86  TYR86      -0.2866
    110  N         16.3160    4.1580   92.7850 N.am   87  CYS87      -0.1954
    111  CA        14.9990    3.6450   92.4070 C.3    87  CYS87       0.1828
    112  C         14.4000    4.4850   91.2700 C.2    87  CYS87       0.2467
    113  O         13.6580    5.4300   91.5360 O.2    87  CYS87      -0.2730
    114  CB        14.0840    3.6710   93.6290 C.3    87  CYS87       0.0996
    115  SG        14.5780    2.4790   94.8850 S.3    87  CYS87      -0.0797
    116  N         14.7040    4.1340   90.0020 N.am   88  PRO88      -0.2715
    117  CA        14.3900    4.9940   88.8430 C.3    88  PRO88       0.1536
    118  C         12.8980    5.2470   88.5900 C.2    88  PRO88       0.2599
    119  O         12.5510    6.2360   87.9430 O.2    88  PRO88      -0.2715
    120  CB        15.0090    4.2340   87.6640 C.3    88  PRO88       0.0310
    121  CG        14.9850    2.8090   88.0910 C.3    88  PRO88       0.0237
    122  CD        15.2160    2.8180   89.5730 C.3    88  PRO88       0.0939
    123  N         12.0310    4.3670   89.0880 N.am   89  GLY89      -0.1941
    124  CA        10.5910    4.5810   89.0170 C.3    89  GLY89       0.2014
    125  C         10.0830    5.7780   89.8060 C.2    89  GLY89       0.2639
    126  O          8.9680    6.2290   89.5730 O.2    89  GLY89      -0.2714
    127  N         10.8770    6.2870   90.7490 N.am   90  GLY90      -0.1939
    128  CA        10.5390    7.5140   91.4690 C.3    90  GLY90       0.2014
    129  C          9.4560    7.2880   92.5030 C.2    90  GLY90       0.2638
    130  O          9.1460    6.1490   92.8250 O.2    90  GLY90      -0.2714
    131  N          8.8700    8.3740   93.0040 N.am   91  GLU91      -0.1977
    132  CA         7.8920    8.3030   94.0940 C.3    91  GLU91       0.1602
    133  C          6.5880    7.6270   93.6850 C.2    91  GLU91       0.2287
    134  O          6.1270    7.7760   92.5600 O.2    91  GLU91      -0.2864
    135  CB         7.5680    9.6990   94.6380 C.3    91  GLU91       0.0415
    136  CG         8.7330   10.4080   95.3110 C.3    91  GLU91       0.1163
    137  CD         8.3220   11.6990   96.0110 C.2    91  GLU91       0.3649
    138  OE1        7.1780   12.1670   95.8200 O.co2  91  GLU91      -0.2457
    139  OE2        9.1520   12.2620   96.7570 O.co2  91  GLU91      -0.2457
    140  N          3.8180   10.2210   92.7140 N.3    94  ASP94      -0.1239
    141  CA         3.7680   10.6890   91.3200 C.3    94  ASP94       0.1674
    142  C          2.9970    9.7410   90.4000 C.2    94  ASP94       0.2266
    143  O          2.3330   10.1820   89.4640 O.2    94  ASP94      -0.2867
    144  CB         5.1840   10.9130   90.7750 C.3    94  ASP94       0.1410
    145  CG         5.9630   11.9550   91.5690 C.2    94  ASP94       0.3668
    146  OD1        5.3620   12.9490   92.0370 O.co2  94  ASP94      -0.2456
    147  OD2        7.1870   11.7740   91.7280 O.co2  94  ASP94      -0.2456
    148  N          9.2500    4.2110   96.8660 N.3   137  LEU137     -0.1245
    149  CA         9.7860    4.4110   95.5140 C.3   137  LEU137      0.1561
    150  C          9.7080    3.1380   94.7030 C.2   137  LEU137      0.2260
    151  O          9.8770    2.0500   95.2500 O.2   137  LEU137     -0.2867
    152  CB        11.2530    4.8320   95.5800 C.3   137  LEU137      0.0270
    153  CG        11.5880    6.0010   96.4950 C.3   137  LEU137      0.0019
    154  CD1       13.0820    6.2460   96.4500 C.3   137  LEU137      0.0001
    155  CD2       10.8080    7.2440   96.0980 C.3   137  LEU137      0.0001
    156  N         11.6960    4.1110  102.1400 N.3   147  ILE147     -0.1231
    157  CA        12.8140    5.0440  102.3480 C.3   147  ILE147      0.1692
    158  C         12.5550    5.9670  103.5520 C.2   147  ILE147      0.2592
    159  O         11.5120    5.8650  104.1970 O.2   147  ILE147     -0.2718
    160  CB        13.0910    5.8800  101.0640 C.3   147  ILE147      0.0266
    161  CG1       11.8470    6.6520  100.6040 C.3   147  ILE147      0.0019
    162  CG2       13.5710    4.9840   99.9310 C.3   147  ILE147      0.0020
    163  CD1       12.1580    7.9230   99.8460 C.3   147  ILE147      0.0001
    164  N         13.5090    6.8540  103.8440 N.am  148  ASP148     -0.1960
    165  CA        13.4000    7.8570  104.9160 C.3   148  ASP148      0.1840
    166  C         13.0680    7.2290  106.2730 C.2   148  ASP148      0.2622
    167  O         11.9380    7.3080  106.7590 O.2   148  ASP148     -0.2715
    168  CB        12.3980    8.9670  104.5450 C.3   148  ASP148      0.1450
    169  CG        12.8920    9.8650  103.4010 C.2   148  ASP148      0.3671
    170  OD1       14.0070    9.6560  102.8690 O.co2 148  ASP148     -0.2456
    171  OD2       12.1530   10.8030  103.0340 O.co2 148  ASP148     -0.2456
    172  N         14.0820    6.6020  106.8670 N.am  149  PHE149     -0.1974
    173  CA        13.9610    5.9420  108.1710 C.3   149  PHE149      0.1639
    174  C         14.4180    6.8330  109.3320 C.2   149  PHE149      0.2290
    175  O         14.7700    6.3330  110.4050 O.2   149  PHE149     -0.2864
    176  CB        14.7470    4.6220  108.1520 C.3   149  PHE149      0.0560
    177  CG        14.2100    3.6210  107.1740 C.ar  149  PHE149     -0.0200
    178  CD1       14.5740    3.6790  105.8360 C.ar  149  PHE149     -0.0042
    179  CD2       13.3270    2.6270  107.5860 C.ar  149  PHE149     -0.0042
    180  CE1       14.0740    2.7650  104.9280 C.ar  149  PHE149     -0.0003
    181  CE2       12.8230    1.7090  106.6810 C.ar  149  PHE149     -0.0003
    182  CZ        13.1960    1.7780  105.3500 C.ar  149  PHE149     -0.0000
@<TRIPOS>BOND
     1     9     7   ar
     2     8     7   ar
     3     7     6    1
     4    43    41    1
     5   120   121    1
     6   120   117    1
     7     6     5    1
     8   109   108    1
     9   119   118    2
    10     5     2    1
    11   121   122    1
    12     1     2    1
    13   107   108   ar
    14   107   105   ar
    15   118   117    1
    16   118   123   am
    17    41    42    1
    18    41    40    1
    19   108   106   ar
    20   117   116    1
    21     2     3    1
    22   124   123    1
    23   124   125    1
    24   143   142    2
    25   105   103   ar
    26   122   116    1
    27   126   125    2
    28    40    37    1
    29   125   127   am
    30    16    14    1
    31   116   112   am
    32   106   104   ar
    33     3     4    2
    34   142   141    1
    35    39    38    2
    36   127   128    1
    37   144   141    1
    38   144   145    1
    39   103   104   ar
    40   103   102    1
    41    38    37    1
    42    37    36    1
    43    14    11    1
    44    14    15    1
    45   112   113    2
    46   112   111    1
    47   141   140    1
    48   128   129    1
    49    11    10    1
    50    11    12    1
    51   145   147   ar
    52   145   146   ar
    53   102    99    1
    54   101   100    2
    55    13    12    2
    56    17    15    1
    57   111   110    1
    58   111   114    1
    59    12    18   am
    60   129   130    2
    61   129   131   am
    62   134   133    2
    63   100   110   am
    64   100    99    1
    65   131   132    1
    66    99    98    1
    67    18    19    1
    68   114   115    1
    69   133   132    1
    70    98    91   am
    71   132   135    1
    72    44    45    1
    73    19    20    1
    74   135   136    1
    75   150   151    2
    76   150   149    1
    77    32    31    2
    78    45    48    1
    79    45    46    1
    80    97    95   ar
    81   136   137    1
    82    91    92    2
    83    91    90    1
    84    94    95    1
    85    94    93    1
    86   149   152    1
    87   149   148    1
    88    31    30    1
    89   152   153    1
    90    20    21    2
    91    20    22   am
    92   138   137   ar
    93    95    96   ar
    94   137   139   ar
    95    28    26    1
    96   155   153    1
    97    46    47    2
    98    90    93    1
    99    90    89    1
   100    84    83    2
   101   154   153    1
   102    22    23    1
   103    34    33    1
   104    30    33    1
   105    30    29    1
   106    33    35    1
   107    26    23    1
   108    26    27    1
   109    83    89   am
   110    83    82    1
   111    23    24    1
   112    25    24    2
   113    81    82    1
   114    82    85    1
   115    80    79    1
   116    85    86    1
   117    49    50    1
   118   163   161    1
   119   162   160    1
   120    79    76    1
   121    76    77    1
   122    76    75    1
   123    50    51    1
   124    50    53    1
   125    86    87    1
   126    86    88    1
   127   161   160    1
   128    77    78    2
   129    51    52    2
   130   160   157    1
   131    53    54    1
   132    54    55    1
   133    55    56    1
   134   156   157    1
   135   157   158    1
   136   170   169   ar
   137   171   169   ar
   138    56    57    1
   139   169   168    1
   140   158   164   am
   141   158   159    2
   142   164   165    1
   143   168   165    1
   144   165   166    1
   145   180   182   ar
   146   180   178   ar
   147    74    72    1
   148    73    72    1
   149   182   181   ar
   150    66    64   ar
   151   178   177   ar
   152    72    71    1
   153   166   167    2
   154   166   172   am
   155    64    65   ar
   156    64    63    1
   157    71    68    1
   158   181   179   ar
   159   172   173    1
   160    70    69    2
   161   177   179   ar
   162   177   176    1
   163    63    62    1
   164    68    69    1
   165    68    67    1
   166   176   173    1
   167   173   174    1
   168    62    59    1
   169    61    60    2
   170   174   175    2
   171    60    59    1
   172    59    58    1
