@<TRIPOS>MOLECULE
tmp/5magA00.pdb
 164 155 0 0 0
SMALL
GASTEIGER

@<TRIPOS>ATOM
      1  N        -20.1300   15.5000   -1.0110 N.3    15  ILE15      -0.1231
      2  CA       -18.7500   15.2110   -0.5340 C.3    15  ILE15       0.1692
      3  C        -17.6380   15.5160   -1.5480 C.2    15  ILE15       0.2593
      4  O        -16.4620   15.2430   -1.2980 O.2    15  ILE15      -0.2718
      5  CB       -18.6090   13.7460   -0.0400 C.3    15  ILE15       0.0266
      6  CG1      -18.7620   12.7300   -1.2000 C.3    15  ILE15       0.0019
      7  CG2      -19.6090   13.4870    1.0780 C.3    15  ILE15       0.0020
      8  CD1      -18.8120   11.2780   -0.7690 C.3    15  ILE15       0.0001
      9  N        -18.0140   16.0770   -2.6880 N.am   16  GLY16      -0.1942
     10  CA       -17.0510   16.4890   -3.6840 C.3    16  GLY16       0.2014
     11  C        -17.7340   17.3370   -4.7260 C.2    16  GLY16       0.2640
     12  O        -18.8770   17.0750   -5.0980 O.2    16  GLY16      -0.2714
     13  N        -17.0340   18.3540   -5.2010 N.am   17  THR17      -0.1936
     14  CA       -17.5700   19.2270   -6.2310 C.3    17  THR17       0.2028
     15  C        -16.4320   19.6580   -7.1580 C.2    17  THR17       0.2642
     16  O        -15.3960   20.1320   -6.6970 O.2    17  THR17      -0.2714
     17  CB       -18.3340   20.4160   -5.5910 C.3    17  THR17       0.1808
     18  OG1      -18.7450   21.3320   -6.6100 O.3    17  THR17      -0.2208
     19  CG2      -17.4830   21.1490   -4.5330 C.3    17  THR17       0.0379
     20  N        -16.6160   19.4290   -8.4560 N.am   18  GLY18      -0.1954
     21  CA       -15.6050   19.7190   -9.4770 C.3    18  GLY18       0.1869
     22  C        -16.2080   20.5620  -10.5710 C.2    18  GLY18       0.2309
     23  O        -17.2820   21.1220  -10.4010 O.2    18  GLY18      -0.2863
     24  N        -18.8810   18.0990  -12.6130 N.3    20  ALA20      -0.1245
     25  CA       -19.8600   17.3510  -11.7980 C.3    20  ALA20       0.1562
     26  C        -19.6650   17.5170  -10.2940 C.2    20  ALA20       0.2260
     27  O        -18.6590   18.0500   -9.8460 O.2    20  ALA20      -0.2867
     28  CB       -19.7800   15.8680  -12.1380 C.3    20  ALA20       0.0290
     29  N        -20.6100   15.2110   -6.3390 N.3    22  VAL22      -0.1245
     30  CA       -20.8170   13.9120   -5.7650 C.3    22  VAL22       0.1561
     31  C        -21.5940   14.0670   -4.4710 C.2    22  VAL22       0.2260
     32  O        -21.1930   14.8350   -3.5940 O.2    22  VAL22      -0.2867
     33  CB       -19.4670   13.2210   -5.5010 C.3    22  VAL22       0.0252
     34  CG1      -19.6510   11.9010   -4.7800 C.3    22  VAL22       0.0019
     35  CG2      -18.7550   12.9830   -6.8230 C.3    22  VAL22       0.0019
     36  N        -22.8570    6.3620   -3.8110 N.3    35  ALA35      -0.1245
     37  CA       -22.2930    7.6530   -4.1560 C.3    35  ALA35       0.1562
     38  C        -22.8090    8.0790   -5.5130 C.2    35  ALA35       0.2260
     39  O        -22.5170    7.4460   -6.5290 O.2    35  ALA35      -0.2867
     40  CB       -20.7800    7.5660   -4.1580 C.3    35  ALA35       0.0290
     41  N        -23.0400   10.6010   -8.5540 N.3    37  LYS37      -0.1245
     42  CA       -22.3820   11.6460   -9.3080 C.3    37  LYS37       0.1561
     43  C        -23.4840   12.3760  -10.0890 C.2    37  LYS37       0.2260
     44  O        -24.2580   11.7440  -10.8110 O.2    37  LYS37      -0.2867
     45  CB       -21.3270   11.0430  -10.2470 C.3    37  LYS37       0.0271
     46  CG       -20.3920   12.0660  -10.8760 C.3    37  LYS37       0.0035
     47  CD       -19.7290   11.5720  -12.1600 C.3    37  LYS37       0.0206
     48  CE       -18.3690   10.9460  -11.9030 C.3    37  LYS37       0.1093
     49  NZ       -17.7430   10.4640  -13.1670 N.3    37  LYS37      -0.1314
     50  N        -15.0340    0.4800  -10.0070 N.3    65  CYS65      -0.1235
     51  CA       -16.1380    1.0820   -9.2630 C.3    65  CYS65       0.1677
     52  C        -17.4290    0.8920  -10.0470 C.2    65  CYS65       0.2270
     53  O        -17.5110    1.2450  -11.2050 O.2    65  CYS65      -0.2867
     54  CB       -15.8600    2.5620   -9.0110 C.3    65  CYS65       0.0956
     55  SG       -17.0860    3.3960   -7.9820 S.3    65  CYS65      -0.0801
     56  N        -23.2750    5.1700   -8.1150 N.3    81  LEU81      -0.1231
     57  CA       -22.0870    4.3390   -8.1500 C.3    81  LEU81       0.1693
     58  C        -21.7640    3.8330   -6.7760 C.2    81  LEU81       0.2592
     59  O        -22.2990    4.3130   -5.7870 O.2    81  LEU81      -0.2718
     60  CB       -20.8910    5.1350   -8.6600 C.3    81  LEU81       0.0284
     61  CG       -20.9470    5.5630  -10.1210 C.3    81  LEU81       0.0019
     62  CD1      -20.4760    6.9910  -10.3010 C.3    81  LEU81       0.0001
     63  CD2      -20.1230    4.6090  -10.9860 C.3    81  LEU81       0.0001
     64  N        -20.8710    2.8530   -6.7470 N.am   82  GLU82      -0.1966
     65  CA       -20.3180    2.3110   -5.5210 C.3    82  GLU82       0.1733
     66  C        -19.6580    3.4050   -4.6600 C.2    82  GLU82       0.2616
     67  O        -18.9340    4.2660   -5.1810 O.2    82  GLU82      -0.2715
     68  CB       -19.3120    1.2250   -5.8880 C.3    82  GLU82       0.0429
     69  CG       -18.7510    0.4100   -4.7290 C.3    82  GLU82       0.1163
     70  CD       -17.9050   -0.7730   -5.2030 C.2    82  GLU82       0.3649
     71  OE1      -17.9510   -1.1590   -6.4110 O.co2  82  GLU82      -0.2457
     72  OE2      -17.1820   -1.3320   -4.3460 O.co2  82  GLU82      -0.2457
     73  N        -19.9420    3.3660   -3.3580 N.am   83  TYR83      -0.1960
     74  CA       -19.3140    4.2400   -2.3810 C.3    83  TYR83       0.1771
     75  C        -18.0430    3.5820   -1.8650 C.2    83  TYR83       0.2620
     76  O        -18.0820    2.5120   -1.2400 O.2    83  TYR83      -0.2715
     77  CB       -20.2580    4.5570   -1.2170 C.3    83  TYR83       0.0574
     78  CG       -19.6450    5.4150   -0.1210 C.ar   83  TYR83      -0.0198
     79  CD1      -19.0620    6.6490   -0.4100 C.ar   83  TYR83      -0.0009
     80  CD2      -19.6600    4.9900    1.2120 C.ar   83  TYR83      -0.0009
     81  CE1      -18.5040    7.4270    0.5910 C.ar   83  TYR83       0.0417
     82  CE2      -19.1100    5.7630    2.2280 C.ar   83  TYR83       0.0417
     83  CZ       -18.5320    6.9750    1.9140 C.ar   83  TYR83       0.1957
     84  OH       -17.9820    7.7330    2.9230 O.3    83  TYR83      -0.2866
     85  N        -16.9190    4.2020   -2.2200 N.am   84  CYS84      -0.1954
     86  CA       -15.5980    3.9220   -1.6940 C.3    84  CYS84       0.1828
     87  C        -15.1950    4.8860   -0.5670 C.2    84  CYS84       0.2467
     88  O        -14.7960    6.0210   -0.8450 O.2    84  CYS84      -0.2730
     89  CB       -14.5990    3.9910   -2.8580 C.3    84  CYS84       0.0996
     90  SG       -15.0980    2.9110   -4.2220 S.3    84  CYS84      -0.0797
     91  N        -15.2780    4.4300    0.7020 N.am   85  PRO85      -0.2715
     92  CA       -14.9700    5.2920    1.8480 C.3    85  PRO85       0.1536
     93  C        -13.4870    5.6350    2.0620 C.2    85  PRO85       0.2599
     94  O        -13.1800    6.6500    2.6980 O.2    85  PRO85      -0.2715
     95  CB       -15.4880    4.4800    3.0420 C.3    85  PRO85       0.0310
     96  CG       -15.4110    3.0680    2.6030 C.3    85  PRO85       0.0237
     97  CD       -15.7640    3.1080    1.1420 C.3    85  PRO85       0.0939
     98  N        -12.5840    4.8050    1.5540 N.am   86  GLY86      -0.1941
     99  CA       -11.1550    4.9740    1.8090 C.3    86  GLY86       0.2014
    100  C        -10.4830    6.1470    1.1140 C.2    86  GLY86       0.2639
    101  O         -9.3480    6.4720    1.4330 O.2    86  GLY86      -0.2714
    102  N        -11.1590    6.7670    0.1540 N.am   87  GLY87      -0.1939
    103  CA       -10.6030    7.9050   -0.5760 C.3    87  GLY87       0.2014
    104  C         -9.6320    7.5120   -1.6920 C.2    87  GLY87       0.2638
    105  O         -9.4320    6.3290   -1.9670 O.2    87  GLY87      -0.2714
    106  N         -9.0350    8.5330   -2.3030 N.am   88  GLU88      -0.1977
    107  CA        -8.1350    8.4020   -3.4330 C.3    88  GLU88       0.1602
    108  C         -6.7860    7.8040   -3.0440 C.2    88  GLU88       0.2287
    109  O         -6.2450    8.0860   -1.9710 O.2    88  GLU88      -0.2864
    110  CB        -7.8880    9.7760   -4.1040 C.3    88  GLU88       0.0415
    111  CG        -9.1070   10.3830   -4.7840 C.3    88  GLU88       0.1163
    112  CD        -8.8660   11.7680   -5.3910 C.2    88  GLU88       0.3649
    113  OE1       -7.8290   12.4140   -5.1060 O.co2  88  GLU88      -0.2457
    114  OE2       -9.7380   12.2200   -6.1770 O.co2  88  GLU88      -0.2457
    115  N         -4.3880    7.4300  -13.3780 N.3   129  LYS129     -0.1245
    116  CA        -3.5960    8.1930  -12.4010 C.3   129  LYS129      0.1561
    117  C         -4.1540    7.9190  -11.0010 C.2   129  LYS129      0.2260
    118  O         -5.2380    7.3730  -10.8930 O.2   129  LYS129     -0.2867
    119  CB        -3.6010    9.6860  -12.7400 C.3   129  LYS129      0.0271
    120  CG        -4.9550   10.3400  -12.7830 C.3   129  LYS129      0.0035
    121  CD        -4.8450   11.8160  -13.1350 C.3   129  LYS129      0.0206
    122  CE        -6.2270   12.3680  -13.4160 C.3   129  LYS129      0.1093
    123  NZ        -6.2910   13.8350  -13.6400 N.3   129  LYS129     -0.1314
    124  N         -5.4840    9.6790   -8.5310 N.3   131  GLU131     -0.1231
    125  CA        -6.8030   10.2930   -8.3310 C.3   131  GLU131      0.1699
    126  C         -7.9620    9.4600   -8.8670 C.2   131  GLU131      0.2592
    127  O         -9.0800    9.6150   -8.3970 O.2   131  GLU131     -0.2718
    128  CB        -6.8810   11.6760   -9.0130 C.3   131  GLU131      0.0402
    129  CG        -5.9610   12.7480   -8.4230 C.3   131  GLU131      0.1161
    130  CD        -4.7160   13.0130   -9.2630 C.2   131  GLU131      0.3649
    131  OE1       -4.0170   12.0440   -9.6610 O.co2 131  GLU131     -0.2457
    132  OE2       -4.4370   14.2060   -9.5220 O.co2 131  GLU131     -0.2457
    133  N         -7.7120    8.6230   -9.8740 N.am  132  ASN132     -0.1974
    134  CA        -8.7500    7.7850  -10.4660 C.3   132  ASN132      0.1688
    135  C         -8.7850    6.3530   -9.9210 C.2   132  ASN132      0.2292
    136  O         -9.4140    5.4720  -10.5220 O.2   132  ASN132     -0.2864
    137  CB        -8.6330    7.8010  -11.9970 C.3   132  ASN132      0.1181
    138  CG        -9.0440    9.1360  -12.6000 C.2   132  ASN132      0.2629
    139  OD1       -9.6450    9.9860  -11.9370 O.2   132  ASN132     -0.2716
    140  ND2       -8.7340    9.3190  -13.8740 N.am  132  ASN132     -0.0877
    141  N         -9.7330    4.5180   -6.1310 N.3   134  LEU134     -0.1245
    142  CA       -10.2980    4.7270   -4.7920 C.3   134  LEU134      0.1561
    143  C        -10.2480    3.4540   -3.9530 C.2   134  LEU134      0.2260
    144  O        -10.4610    2.3600   -4.4730 O.2   134  LEU134     -0.2867
    145  CB       -11.7620    5.1310   -4.8970 C.3   134  LEU134      0.0270
    146  CG       -12.1450    6.2880   -5.7990 C.3   134  LEU134      0.0019
    147  CD1      -13.6380    6.5330   -5.6660 C.3   134  LEU134      0.0001
    148  CD2      -11.3800    7.5680   -5.4580 C.3   134  LEU134      0.0001
    149  N        -11.8920    4.2820  -11.4190 N.3   144  ILE144     -0.1231
    150  CA       -12.9680    5.2100  -11.8040 C.3   144  ILE144      0.1692
    151  C        -12.5880    6.1010  -13.0100 C.2   144  ILE144      0.2592
    152  O        -11.4280    6.0920  -13.4960 O.2   144  ILE144     -0.2718
    153  CB       -13.3680    6.1530  -10.6330 C.3   144  ILE144      0.0266
    154  CG1      -12.2080    7.0570  -10.1960 C.3   144  ILE144      0.0019
    155  CG2      -13.8530    5.3650   -9.4310 C.3   144  ILE144      0.0020
    156  CD1      -12.6560    8.2580   -9.3810 C.3   144  ILE144      0.0001
    157  N        -13.5820    6.8720  -13.4550 N.am  145  ASP145     -0.1974
    158  CA       -13.4370    7.9510  -14.4420 C.3   145  ASP145      0.1709
    159  C        -13.1040    7.4630  -15.8560 C.2   145  ASP145      0.2293
    160  O        -11.9820    7.6180  -16.3430 O.2   145  ASP145     -0.2864
    161  CB       -12.4510    9.0330  -13.9730 C.3   145  ASP145      0.1436
    162  CG       -12.6250   10.3600  -14.7350 C.2   145  ASP145      0.3671
    163  OD1      -13.1840   10.3820  -15.8610 O.co2 145  ASP145     -0.2456
    164  OD2      -12.2020   11.4050  -14.2080 O.co2 145  ASP145     -0.2456
@<TRIPOS>BOND
     1   160   159    2
     2   163   162   ar
     3   159   158    1
     4   162   164   ar
     5   162   161    1
     6   158   161    1
     7   158   157    1
     8   140   138   am
     9   123   122    1
    10   152   151    2
    11   157   151   am
    12   122   121    1
    13   115   116    1
    14    49    48    1
    15   121   120    1
    16   151   150    1
    17   120   119    1
    18   119   116    1
    19    24    25    1
    20   138   137    1
    21   138   139    2
    22   116   117    1
    23    47    48    1
    24    47    46    1
    25    28    25    1
    26   137   134    1
    27   150   149    1
    28   150   153    1
    29    25    26    1
    30    53    52    2
    31   117   118    2
    32    63    61    1
    33    46    45    1
    34    44    43    2
    35   153   154    1
    36   153   155    1
    37    22    23    2
    38    22    21    1
    39   136   135    2
    40   134   135    1
    41   134   133    1
    42    62    61    1
    43    26    27    2
    44    45    42    1
    45   154   156    1
    46    61    60    1
    47    43    42    1
    48    52    51    1
    49    50    51    1
    50   133   126   am
    51   131   130   ar
    52   132   130   ar
    53    21    20    1
    54    42    41    1
    55    51    54    1
    56   130   129    1
    57   128   129    1
    58   128   125    1
    59    54    55    1
    60   126   127    2
    61   126   125    1
    62    60    57    1
    63   124   125    1
    64    20    15   am
    65    57    56    1
    66    57    58    1
    67    15    16    2
    68    15    14    1
    69    35    33    1
    70    58    64   am
    71    58    59    2
    72    64    65    1
    73    18    17    1
    74    39    38    2
    75    71    70   ar
    76    29    30    1
    77    14    17    1
    78    14    13    1
    79   114   112   ar
    80   141   142    1
    81    68    65    1
    82    68    69    1
    83   146   147    1
    84   146   148    1
    85   146   145    1
    86    30    33    1
    87    30    31    1
    88    17    19    1
    89    65    66    1
    90    38    37    1
    91    33    34    1
    92   112   113   ar
    93   112   111    1
    94    70    69    1
    95    70    72   ar
    96    13    11   am
    97    67    66    2
    98    12    11    2
    99   145   142    1
   100   142   143    1
   101   111   110    1
   102    11    10    1
   103    66    73   am
   104   144   143    2
   105    31    32    2
   106    90    89    1
   107    40    37    1
   108    37    36    1
   109   110   107    1
   110    10     9    1
   111   107   108    1
   112   107   106    1
   113    73    74    1
   114   108   109    2
   115    89    86    1
   116     9     3   am
   117    74    75    1
   118    74    77    1
   119   106   104   am
   120    85    75   am
   121    85    86    1
   122   105   104    2
   123    75    76    2
   124    86    87    1
   125   104   103    1
   126     3     4    2
   127     3     2    1
   128    77    78    1
   129     6     8    1
   130     6     5    1
   131     1     2    1
   132    88    87    2
   133   103   102    1
   134    87    91   am
   135     2     5    1
   136    79    78   ar
   137    79    81   ar
   138    78    80   ar
   139     5     7    1
   140   102   100   am
   141    81    83   ar
   142    91    97    1
   143    91    92    1
   144   100   101    2
   145   100    99    1
   146    97    96    1
   147    80    82   ar
   148    98    99    1
   149    98    93   am
   150    92    93    1
   151    92    95    1
   152    83    82   ar
   153    83    84    1
   154    93    94    2
   155    96    95    1
