@<TRIPOS>MOLECULE
tmp/5mahA00.pdb
 168 157 0 0 0
SMALL
GASTEIGER

@<TRIPOS>ATOM
      1  N        -22.4270   14.9450    2.9060 N.3    14  GLU14      -0.1245
      2  CA       -21.4060   15.8950    2.4160 C.3    14  GLU14       0.1567
      3  C        -20.8660   15.5820    1.0030 C.2    14  GLU14       0.2260
      4  O        -20.8200   14.4190    0.5900 O.2    14  GLU14      -0.2867
      5  CB       -20.2410   15.9980    3.4250 C.3    14  GLU14       0.0388
      6  CG       -19.3740   14.7430    3.6100 C.3    14  GLU14       0.1160
      7  CD       -19.8510   13.7940    4.6980 C.2    14  GLU14       0.3649
      8  OE1      -21.0690   13.7380    4.9540 O.co2  14  GLU14      -0.2457
      9  OE2      -19.0150   13.0710    5.2790 O.co2  14  GLU14      -0.2457
     10  N        -17.9110   14.8730   -1.2190 N.3    16  ILE16      -0.1231
     11  CA       -16.6150   14.2490   -0.9120 C.3    16  ILE16       0.1692
     12  C        -15.5670   14.5090   -1.9760 C.2    16  ILE16       0.2593
     13  O        -14.4180   14.1620   -1.7790 O.2    16  ILE16      -0.2718
     14  CB       -16.6960   12.7350   -0.6130 C.3    16  ILE16       0.0266
     15  CG1      -17.4010   11.9600   -1.7430 C.3    16  ILE16       0.0019
     16  CG2      -17.3670   12.5110    0.7310 C.3    16  ILE16       0.0020
     17  CD1      -17.5000   10.4720   -1.4960 C.3    16  ILE16       0.0001
     18  N        -15.9530   15.1260   -3.0840 N.am   17  GLY17      -0.1942
     19  CA       -15.0080   15.4440   -4.1380 C.3    17  GLY17       0.2014
     20  C        -15.6530   16.2930   -5.1990 C.2    17  GLY17       0.2640
     21  O        -16.8470   16.1810   -5.4630 O.2    17  GLY17      -0.2714
     22  N        -14.8510   17.1570   -5.7970 N.am   18  THR18      -0.1936
     23  CA       -15.2630   17.9360   -6.9460 C.3    18  THR18       0.2028
     24  C        -14.1580   17.7880   -7.9710 C.2    18  THR18       0.2642
     25  O        -12.9840   17.7560   -7.6230 O.2    18  THR18      -0.2714
     26  CB       -15.5230   19.4040   -6.5540 C.3    18  THR18       0.1808
     27  OG1      -16.5480   19.4300   -5.5570 O.3    18  THR18      -0.2208
     28  CG2      -15.9910   20.2290   -7.7420 C.3    18  THR18       0.0379
     29  N        -14.5480   17.6150   -9.2220 N.am   19  GLY19      -0.1954
     30  CA       -13.6040   17.5100  -10.3130 C.3    19  GLY19       0.1869
     31  C        -13.9910   18.5320  -11.3460 C.2    19  GLY19       0.2309
     32  O        -14.7890   19.4320  -11.0770 O.2    19  GLY19      -0.2863
     33  N        -17.7020   16.7610  -12.6040 N.3    22  ALA22      -0.1245
     34  CA       -18.6630   16.1880  -11.6690 C.3    22  ALA22       0.1562
     35  C        -18.3490   16.6100  -10.2560 C.2    22  ALA22       0.2260
     36  O        -17.2120   16.9660   -9.9460 O.2    22  ALA22      -0.2867
     37  CB       -18.6430   14.6620  -11.7470 C.3    22  ALA22       0.0290
     38  N        -19.2440   14.8150   -6.3330 N.3    24  VAL24      -0.1245
     39  CA       -19.6500   13.6020   -5.7480 C.3    24  VAL24       0.1561
     40  C        -20.0130   13.7620   -4.2940 C.2    24  VAL24       0.2260
     41  O        -19.2420   14.2380   -3.5180 O.2    24  VAL24      -0.2867
     42  CB       -18.5000   12.5810   -5.8510 C.3    24  VAL24       0.0252
     43  CG1      -18.8580   11.2720   -5.2260 C.3    24  VAL24       0.0019
     44  CG2      -18.0260   12.3880   -7.2760 C.3    24  VAL24       0.0019
     45  N        -21.7060    6.5440   -3.3020 N.3    37  ALA37      -0.1245
     46  CA       -21.1280    7.7850   -3.7830 C.3    37  ALA37       0.1562
     47  C        -21.9140    8.2140   -5.0000 C.2    37  ALA37       0.2260
     48  O        -21.9960    7.4740   -5.9870 O.2    37  ALA37      -0.2867
     49  CB       -19.6550    7.5900   -4.1470 C.3    37  ALA37       0.0290
     50  N        -22.2760   10.6200   -8.1260 N.3    39  LYS39      -0.1245
     51  CA       -21.6290   11.4940   -9.0640 C.3    39  LYS39       0.1561
     52  C        -22.6980   12.3080   -9.7490 C.2    39  LYS39       0.2260
     53  O        -23.6190   11.7510  -10.3560 O.2    39  LYS39      -0.2867
     54  CB       -20.8660   10.6450  -10.0830 C.3    39  LYS39       0.0271
     55  CG       -19.8900   11.3830  -10.9690 C.3    39  LYS39       0.0035
     56  CD       -18.7940   10.4260  -11.4550 C.3    39  LYS39       0.0206
     57  CE       -18.0210   10.9870  -12.6290 C.3    39  LYS39       0.1093
     58  NZ       -16.8910   10.1060  -13.0370 N.3    39  LYS39      -0.1314
     59  N        -14.6820    0.1060   -9.3970 N.3    69  CYS69      -0.1235
     60  CA       -15.7830    0.7330   -8.6940 C.3    69  CYS69       0.1677
     61  C        -17.1090    0.4360   -9.3970 C.2    69  CYS69       0.2270
     62  O        -17.2860    0.7370  -10.5200 O.2    69  CYS69      -0.2867
     63  CB       -15.5300    2.2160   -8.5460 C.3    69  CYS69       0.0956
     64  SG       -16.6400    3.0330   -7.4250 S.3    69  CYS69      -0.0801
     65  N        -22.5620    5.1970   -7.3520 N.3    85  LEU85      -0.1231
     66  CA       -21.4270    4.3040   -7.3940 C.3    85  LEU85       0.1693
     67  C        -21.0730    3.8160   -6.0130 C.2    85  LEU85       0.2592
     68  O        -21.4930    4.3610   -4.9980 O.2    85  LEU85      -0.2718
     69  CB       -20.2220    5.0430   -7.9650 C.3    85  LEU85       0.0284
     70  CG       -20.3730    5.5700   -9.3830 C.3    85  LEU85       0.0019
     71  CD1      -19.5530    6.8340   -9.5950 C.3    85  LEU85       0.0001
     72  CD2      -19.9610    4.4880  -10.3800 C.3    85  LEU85       0.0001
     73  N        -20.2460    2.7910   -6.0100 N.am   86  GLU86      -0.1966
     74  CA       -19.6720    2.2250   -4.8190 C.3    86  GLU86       0.1733
     75  C        -18.8390    3.2770   -4.0900 C.2    86  GLU86       0.2616
     76  O        -17.9780    3.9200   -4.7040 O.2    86  GLU86      -0.2715
     77  CB       -18.8080    1.0490   -5.2560 C.3    86  GLU86       0.0429
     78  CG       -17.9930    0.3820   -4.1820 C.3    86  GLU86       0.1163
     79  CD       -17.1720   -0.7590   -4.7200 C.2    86  GLU86       0.3649
     80  OE1      -17.2360   -1.0760   -5.9520 O.co2  86  GLU86      -0.2457
     81  OE2      -16.4520   -1.3360   -3.8910 O.co2  86  GLU86      -0.2457
     82  N        -19.0980    3.4350   -2.7920 N.am   87  TYR87      -0.1960
     83  CA       -18.4020    4.4110   -1.9600 C.3    87  TYR87       0.1771
     84  C        -17.1300    3.7570   -1.4280 C.2    87  TYR87       0.2620
     85  O        -17.2060    2.6870   -0.8520 O.2    87  TYR87      -0.2715
     86  CB       -19.2930    4.8360   -0.7940 C.3    87  TYR87       0.0574
     87  CG       -18.5820    5.6850    0.2340 C.ar   87  TYR87      -0.0198
     88  CD1      -17.9410    6.8620   -0.1430 C.ar   87  TYR87      -0.0009
     89  CD2      -18.5450    5.3040    1.5810 C.ar   87  TYR87      -0.0009
     90  CE1      -17.2720    7.6390    0.7810 C.ar   87  TYR87       0.0417
     91  CE2      -17.8880    6.0880    2.5230 C.ar   87  TYR87       0.0417
     92  CZ       -17.2560    7.2470    2.1130 C.ar   87  TYR87       0.1957
     93  OH       -16.6110    8.0330    3.0210 O.3    87  TYR87      -0.2866
     94  N        -15.9810    4.3990   -1.6160 N.am   88  CYS88      -0.1954
     95  CA       -14.7080    3.8840   -1.1130 C.3    88  CYS88       0.1828
     96  C        -14.2850    4.7540    0.0660 C.2    88  CYS88       0.2467
     97  O        -13.8390    5.8880   -0.1470 O.2    88  CYS88      -0.2730
     98  CB       -13.6850    3.9120   -2.2370 C.3    88  CYS88       0.0996
     99  SG       -14.2130    2.8520   -3.6220 S.3    88  CYS88      -0.0797
    100  N        -14.4690    4.2560    1.3050 N.am   89  PRO89      -0.2726
    101  CA       -14.2680    5.1410    2.4650 C.3    89  PRO89       0.1402
    102  C        -12.8150    5.4640    2.7700 C.2    89  PRO89       0.2269
    103  O        -12.5720    6.4040    3.5110 O.2    89  PRO89      -0.2865
    104  CB       -14.9160    4.3710    3.6310 C.3    89  PRO89       0.0296
    105  CG       -14.9060    2.9420    3.2160 C.3    89  PRO89       0.0237
    106  CD       -14.9530    2.9210    1.7070 C.3    89  PRO89       0.0939
    107  N        -10.7150    6.7560    0.6540 N.3    91  GLY91      -0.1210
    108  CA       -10.2430    7.8450   -0.1750 C.3    91  GLY91       0.1956
    109  C         -9.1660    7.4020   -1.1610 C.2    91  GLY91       0.2611
    110  O         -9.0390    6.2040   -1.4740 O.2    91  GLY91      -0.2717
    111  N         -8.3800    8.3800   -1.5930 N.am   92  GLU92      -0.1979
    112  CA        -7.4930    8.2800   -2.7500 C.3    92  GLU92       0.1602
    113  C         -6.1560    7.6760   -2.4210 C.2    92  GLU92       0.2287
    114  O         -5.5510    8.0070   -1.4130 O.2    92  GLU92      -0.2864
    115  CB        -7.1840    9.6540   -3.3180 C.3    92  GLU92       0.0415
    116  CG        -8.3350   10.3280   -4.0100 C.3    92  GLU92       0.1163
    117  CD        -7.9650   11.7080   -4.5210 C.2    92  GLU92       0.3649
    118  OE1       -6.7560   12.0310   -4.6040 O.co2  92  GLU92      -0.2457
    119  OE2       -8.8930   12.4800   -4.8370 O.co2  92  GLU92      -0.2457
    120  N         -3.5190   10.4870   -1.7630 N.3    95  ASP95      -0.1239
    121  CA        -3.4220   11.0040   -0.3890 C.3    95  ASP95       0.1674
    122  C         -2.7880    9.9920    0.5290 C.2    95  ASP95       0.2266
    123  O         -2.0670   10.3650    1.4570 O.2    95  ASP95      -0.2867
    124  CB        -4.7800   11.4780    0.1490 C.3    95  ASP95       0.1410
    125  CG        -5.3340   12.6290   -0.6580 C.2    95  ASP95       0.3668
    126  OD1       -4.5620   13.5220   -1.0570 O.co2  95  ASP95      -0.2456
    127  OD2       -6.5360   12.6330   -0.9480 O.co2  95  ASP95      -0.2456
    128  N         -5.1300    9.5580   -8.1640 N.3   135  GLU135     -0.1231
    129  CA        -6.3820   10.1860   -7.8010 C.3   135  GLU135      0.1699
    130  C         -7.5720    9.3060   -8.2020 C.2   135  GLU135      0.2592
    131  O         -8.6310    9.3780   -7.5690 O.2   135  GLU135     -0.2718
    132  CB        -6.5250   11.5830   -8.4480 C.3   135  GLU135      0.0402
    133  CG        -5.5360   12.6330   -7.9430 C.3   135  GLU135      0.1161
    134  CD        -4.1570   12.5990   -8.6060 C.2   135  GLU135      0.3649
    135  OE1       -3.8480   11.7020   -9.4250 O.co2 135  GLU135     -0.2457
    136  OE2       -3.3370   13.4800   -8.2770 O.co2 135  GLU135     -0.2457
    137  N         -7.3900    8.4660   -9.2350 N.am  136  ASN136     -0.1974
    138  CA        -8.4410    7.5890   -9.7640 C.3   136  ASN136      0.1688
    139  C         -8.4180    6.1660   -9.2470 C.2   136  ASN136      0.2292
    140  O         -9.0500    5.2590   -9.8430 O.2   136  ASN136     -0.2864
    141  CB        -8.3780    7.5860  -11.2950 C.3   136  ASN136      0.1181
    142  CG        -8.9540    8.8450  -11.8910 C.2   136  ASN136      0.2629
    143  OD1       -9.7220    9.5480  -11.2400 O.2   136  ASN136     -0.2716
    144  ND2       -8.5860    9.1450  -13.1210 N.am  136  ASN136     -0.0877
    145  N         -9.0440    4.3140   -5.5210 N.3   138  LEU138     -0.1245
    146  CA        -9.5680    4.5430   -4.1790 C.3   138  LEU138      0.1561
    147  C         -9.4710    3.3030   -3.3000 C.2   138  LEU138      0.2260
    148  O         -9.5190    2.1770   -3.7850 O.2   138  LEU138     -0.2867
    149  CB       -11.0350    4.9950   -4.2610 C.3   138  LEU138      0.0270
    150  CG       -11.3520    6.1240   -5.2350 C.3   138  LEU138      0.0019
    151  CD1      -12.8420    6.4600   -5.2140 C.3   138  LEU138      0.0001
    152  CD2      -10.4960    7.3510   -4.9590 C.3   138  LEU138      0.0001
    153  N        -11.5970    4.1060  -10.6390 N.3   148  ILE148     -0.1231
    154  CA       -12.7220    4.9790  -11.0030 C.3   148  ILE148      0.1692
    155  C        -12.4390    5.8050  -12.2870 C.2   148  ILE148      0.2592
    156  O        -11.3070    5.8430  -12.8290 O.2   148  ILE148     -0.2718
    157  CB       -13.0870    5.9620   -9.8350 C.3   148  ILE148      0.0266
    158  CG1      -11.9200    6.9060   -9.5160 C.3   148  ILE148      0.0019
    159  CG2      -13.4540    5.2080   -8.5580 C.3   148  ILE148      0.0020
    160  CD1      -12.3300    8.1580   -8.7440 C.3   148  ILE148      0.0001
    161  N        -13.4970    6.4740  -12.7320 N.am  149  ASP149     -0.1974
    162  CA       -13.4670    7.5260  -13.7580 C.3   149  ASP149      0.1709
    163  C        -13.1580    6.9870  -15.1340 C.2   149  ASP149      0.2293
    164  O        -12.0540    7.1340  -15.6400 O.2   149  ASP149     -0.2864
    165  CB       -12.5210    8.7000  -13.4050 C.3   149  ASP149      0.1436
    166  CG       -12.8520    9.9730  -14.1990 C.2   149  ASP149      0.3671
    167  OD1      -13.5940    9.8910  -15.2110 O.co2 149  ASP149     -0.2456
    168  OD2      -12.3930   11.0610  -13.7920 O.co2 149  ASP149     -0.2456
@<TRIPOS>BOND
     1   164   163    2
     2   167   166   ar
     3   163   162    1
     4   166   168   ar
     5   166   165    1
     6   162   165    1
     7   162   161    1
     8   144   142   am
     9    58    57    1
    10   156   155    2
    11   161   155   am
    12    57    56    1
    13    33    34    1
    14   155   154    1
    15   142   141    1
    16   142   143    2
    17    37    34    1
    18    34    35    1
    19    56    55    1
    20    31    32    2
    21    31    30    1
    22   141   138    1
    23   154   153    1
    24   154   157    1
    25    55    54    1
    26    62    61    2
    27    72    70    1
    28    53    52    2
    29    30    29    1
    30    35    36    2
    31    54    51    1
    32   140   139    2
    33   157   158    1
    34   157   159    1
    35   138   139    1
    36   138   137    1
    37    52    51    1
    38    71    70    1
    39   158   160    1
    40   135   134   ar
    41    61    60    1
    42    59    60    1
    43    70    69    1
    44   137   130   am
    45    29    24   am
    46    51    50    1
    47    60    63    1
    48   134   136   ar
    49   134   133    1
    50    63    64    1
    51   132   133    1
    52   132   129    1
    53   130   129    1
    54   130   131    2
    55   128   129    1
    56    24    25    2
    57    24    23    1
    58    69    66    1
    59    28    26    1
    60    66    65    1
    61    66    67    1
    62    44    42    1
    63    23    26    1
    64    23    22    1
    65    26    27    1
    66    38    39    1
    67    67    73   am
    68    67    68    2
    69    73    74    1
    70    48    47    2
    71    80    79   ar
    72    42    39    1
    73    42    43    1
    74    22    20   am
    75    39    40    1
    76   145   146    1
    77    21    20    2
    78    77    74    1
    79    77    78    1
    80   150   151    1
    81   150   152    1
    82   150   149    1
    83    20    19    1
    84    47    46    1
    85   119   117   ar
    86    74    75    1
    87    79    78    1
    88    79    81   ar
    89    76    75    2
    90   118   117   ar
    91   117   116    1
    92    40    41    2
    93   149   146    1
    94   146   147    1
    95    49    46    1
    96    19    18    1
    97    75    82   am
    98   116   115    1
    99   148   147    2
   100    46    45    1
   101    99    98    1
   102   115   112    1
   103    18    12   am
   104    82    83    1
   105   112   113    1
   106   112   111    1
   107   113   114    2
   108    98    95    1
   109    12    13    2
   110    12    11    1
   111    83    84    1
   112    83    86    1
   113   120   121    1
   114    15    17    1
   115    15    14    1
   116    94    84   am
   117    94    95    1
   118   111   109   am
   119   110   109    2
   120    84    85    2
   121    10    11    1
   122   109   108    1
   123    95    96    1
   124   126   125   ar
   125   127   125   ar
   126    11    14    1
   127    86    87    1
   128   125   124    1
   129    14    16    1
   130   121   124    1
   131   121   122    1
   132   108   107    1
   133    97    96    2
   134    88    87   ar
   135    88    90   ar
   136    96   100   am
   137    87    89   ar
   138   122   123    2
   139     4     3    2
   140    90    92   ar
   141     3     2    1
   142   100   106    1
   143   100   101    1
   144    89    91   ar
   145   106   105    1
   146    92    91   ar
   147    92    93    1
   148     2     1    1
   149     2     5    1
   150   101   102    1
   151   101   104    1
   152   102   103    2
   153   105   104    1
   154     5     6    1
   155     6     7    1
   156     7     8   ar
   157     7     9   ar
