@<TRIPOS>MOLECULE
tmp/5maiA00.pdb
 204 192 0 0 0
SMALL
GASTEIGER

@<TRIPOS>ATOM
      1  N        -21.6120  -12.7590    6.4090 N.3    15  GLU15      -0.1245
      2  CA       -20.9310  -11.6420    5.7460 C.3    15  GLU15       0.1567
      3  C        -19.5260  -11.9840    5.2390 C.2    15  GLU15       0.2260
      4  O        -18.8090  -12.8180    5.8170 O.2    15  GLU15      -0.2867
      5  CB       -20.8900  -10.4250    6.6790 C.3    15  GLU15       0.0388
      6  CG       -19.8260  -10.4160    7.7890 C.3    15  GLU15       0.1160
      7  CD       -20.2710  -11.0400    9.0970 C.2    15  GLU15       0.3649
      8  OE1      -21.1800  -11.8990    9.0680 O.co2  15  GLU15      -0.2457
      9  OE2      -19.7050  -10.6620   10.1580 O.co2  15  GLU15      -0.2457
     10  N        -15.6800  -11.2350    4.9320 N.3    17  ILE17      -0.1231
     11  CA       -14.8260  -10.8230    6.0590 C.3    17  ILE17       0.1692
     12  C        -13.3900  -10.6800    5.6360 C.2    17  ILE17       0.2592
     13  O        -12.4900  -10.6640    6.4790 O.2    17  ILE17      -0.2718
     14  CB       -14.8790  -11.8470    7.2280 C.3    17  ILE17       0.0266
     15  CG1      -14.8530  -13.2800    6.6630 C.3    17  ILE17       0.0019
     16  CG2      -16.0890  -11.5920    8.1070 C.3    17  ILE17       0.0020
     17  CD1      -14.7120  -14.3620    7.6890 C.3    17  ILE17       0.0001
     18  N        -13.1690  -10.5210    4.3390 N.am   18  GLY18      -0.1957
     19  CA       -11.8450  -10.7270    3.7850 C.3    18  GLY18       0.1869
     20  C        -11.9330  -10.9590    2.2960 C.2    18  GLY18       0.2309
     21  O        -12.3890  -12.0110    1.8410 O.2    18  GLY18      -0.2863
     22  N        -13.0760  -14.6520    1.7110 N.3    25  VAL25      -0.1245
     23  CA       -13.3680  -15.3170    2.9490 C.3    25  VAL25       0.1561
     24  C        -14.7230  -14.8040    3.4350 C.2    25  VAL25       0.2260
     25  O        -14.9210  -13.5800    3.6170 O.2    25  VAL25      -0.2867
     26  CB       -12.2780  -15.1010    4.0120 C.3    25  VAL25       0.0252
     27  CG1      -12.5370  -16.0090    5.2050 C.3    25  VAL25       0.0019
     28  CG2      -10.8980  -15.4140    3.4510 C.3    25  VAL25       0.0019
     29  N        -17.9670  -15.5940    6.3230 N.3    27  LEU27      -0.1245
     30  CA       -18.3990  -16.1650    7.5770 C.3    27  LEU27       0.1561
     31  C        -19.6580  -17.0040    7.2580 C.2    27  LEU27       0.2260
     32  O        -20.4470  -16.6570    6.3620 O.2    27  LEU27      -0.2867
     33  CB       -18.6580  -15.0320    8.5670 C.3    27  LEU27       0.0270
     34  CG       -18.1120  -15.1900    9.9860 C.3    27  LEU27       0.0019
     35  CD1      -18.7380  -16.4070   10.5990 C.3    27  LEU27       0.0001
     36  CD2      -16.6000  -15.3150   10.1000 C.3    27  LEU27       0.0001
     37  N        -15.4530  -20.4870    8.9190 N.3    38  ALA38      -0.1245
     38  CA       -14.9830  -19.5590    7.8760 C.3    38  ALA38       0.1562
     39  C        -14.8670  -20.3000    6.5570 C.2    38  ALA38       0.2260
     40  O        -14.3650  -21.4130    6.5040 O.2    38  ALA38      -0.2867
     41  CB       -13.6470  -18.9610    8.2610 C.3    38  ALA38       0.0290
     42  N        -13.4620  -20.1260    2.7040 N.3    40  LYS40      -0.1245
     43  CA       -12.5730  -19.5420    1.7110 C.3    40  LYS40       0.1561
     44  C        -13.1600  -19.9880    0.3800 C.2    40  LYS40       0.2260
     45  O        -13.3980  -21.1810    0.1820 O.2    40  LYS40      -0.2867
     46  CB       -11.1440  -20.0770    1.8910 C.3    40  LYS40       0.0271
     47  CG       -10.0950  -19.0280    2.1570 C.3    40  LYS40       0.0035
     48  CD        -8.7790  -19.6510    2.5870 C.3    40  LYS40       0.0206
     49  CE        -7.6830  -18.6180    2.7330 C.3    40  LYS40       0.1093
     50  NZ        -6.5490  -19.1380    3.5490 N.3    40  LYS40      -0.1314
     51  N         -2.8170  -29.2900    3.5360 N.3    61  LEU61      -0.1245
     52  CA        -3.5770  -28.7090    4.6430 C.3    61  LEU61       0.1561
     53  C         -4.4710  -29.7180    5.3700 C.2    61  LEU61       0.2260
     54  O         -4.7380  -29.5360    6.5660 O.2    61  LEU61      -0.2867
     55  CB        -4.4080  -27.5050    4.1860 C.3    61  LEU61       0.0270
     56  CG        -3.6020  -26.3070    3.6530 C.3    61  LEU61       0.0019
     57  CD1       -4.5460  -25.2050    3.2080 C.3    61  LEU61       0.0001
     58  CD2       -2.6240  -25.7570    4.6750 C.3    61  LEU61       0.0001
     59  N         -2.6680  -30.9250    8.3800 N.3    64  LEU64      -0.1245
     60  CA        -2.3970  -29.9820    9.4560 C.3    64  LEU64       0.1561
     61  C         -3.4480  -30.1190   10.5440 C.2    64  LEU64       0.2260
     62  O         -4.4480  -29.3530   10.5690 O.2    64  LEU64      -0.2867
     63  CB        -2.3330  -28.5380    8.9490 C.3    64  LEU64       0.0270
     64  CG        -1.1860  -28.1660    7.9980 C.3    64  LEU64       0.0019
     65  CD1       -1.0430  -26.6480    8.0050 C.3    64  LEU64       0.0001
     66  CD2        0.1470  -28.8390    8.3030 C.3    64  LEU64       0.0001
     67  N         -3.3590  -24.7520   15.1010 N.3    69  ILE69      -0.1231
     68  CA        -3.6170  -24.4770   13.6960 C.3    69  ILE69       0.1692
     69  C         -5.1160  -24.5680   13.4150 C.2    69  ILE69       0.2592
     70  O         -5.7660  -25.5470   13.7970 O.2    69  ILE69      -0.2718
     71  CB        -2.8630  -25.4750   12.8170 C.3    69  ILE69       0.0266
     72  CG1       -1.3540  -25.2940   13.0450 C.3    69  ILE69       0.0019
     73  CG2       -3.2510  -25.3290   11.3370 C.3    69  ILE69       0.0020
     74  CD1       -0.4980  -26.3180   12.3560 C.3    69  ILE69       0.0001
     75  N         -5.6630  -23.5440   12.7370 N.am   70  CYS70      -0.1956
     76  CA        -7.0480  -23.5780   12.2550 C.3    70  CYS70       0.1843
     77  C         -7.2450  -24.7430   11.3320 C.2    70  CYS70       0.2625
     78  O         -6.5560  -24.8550   10.3520 O.2    70  CYS70      -0.2714
     79  CB        -7.4640  -22.3030   11.5050 C.3    70  CYS70       0.0997
     80  SG        -8.1080  -21.0800   12.6430 S.3    70  CYS70      -0.0797
     81  N         -8.2280  -25.5700   11.6480 N.am   71  GLN71      -0.1963
     82  CA        -8.4260  -26.8610   11.0050 C.3    71  GLN71       0.1733
     83  C         -9.2680  -26.7640    9.7590 C.2    71  GLN71       0.2616
     84  O        -10.2520  -26.0460    9.7310 O.2    71  GLN71      -0.2715
     85  CB        -9.0800  -27.8260   12.0070 C.3    71  GLN71       0.0408
     86  CG        -9.7610  -29.0650   11.4300 C.3    71  GLN71       0.0908
     87  CD        -8.8800  -30.2880   11.3370 C.2    71  GLN71       0.2608
     88  OE1       -8.5820  -30.8800   12.3660 O.2    71  GLN71      -0.2717
     89  NE2       -8.5190  -30.7200   10.1020 N.am   71  GLN71      -0.0878
     90  N         -8.9270  -27.5660    8.7540 N.am   72  LEU72      -0.1977
     91  CA        -9.7450  -27.6690    7.5740 C.3    72  LEU72       0.1596
     92  C        -10.8290  -28.7490    7.8500 C.2    72  LEU72       0.2287
     93  O        -10.5320  -29.8140    8.3690 O.2    72  LEU72      -0.2864
     94  CB        -8.8710  -27.9490    6.3490 C.3    72  LEU72       0.0297
     95  CG        -9.6190  -28.3170    5.0820 C.3    72  LEU72       0.0022
     96  CD1      -10.3270  -27.0850    4.5470 C.3    72  LEU72       0.0001
     97  CD2       -8.6540  -28.9210    4.0740 C.3    72  LEU72       0.0001
     98  N        -13.4620  -23.9590    0.6410 N.3    84  MET84      -0.1245
     99  CA       -12.7500  -24.5690    1.7500 C.3    84  MET84       0.1570
    100  C        -13.3500  -24.0800    3.0460 C.2    84  MET84       0.2261
    101  O        -13.3090  -22.9030    3.3090 O.2    84  MET84      -0.2867
    102  CB       -11.2850  -24.1920    1.7180 C.3    84  MET84       0.0387
    103  CG       -10.4650  -24.8950    0.6540 C.3    84  MET84       0.0595
    104  SD        -8.8000  -24.1650    0.6450 S.3    84  MET84      -0.1393
    105  CE        -8.0210  -24.8870    2.0880 C.3    84  MET84       0.0692
    106  N        -13.3770  -23.8970    7.1180 N.3    86  LEU86      -0.1231
    107  CA       -12.3090  -23.8350    8.0990 C.3    86  LEU86       0.1693
    108  C        -12.8240  -23.4810    9.4810 C.2    86  LEU86       0.2592
    109  O        -13.9100  -22.8960    9.6380 O.2    86  LEU86      -0.2718
    110  CB       -11.2750  -22.7930    7.6620 C.3    86  LEU86       0.0284
    111  CG       -10.5100  -23.1970    6.3990 C.3    86  LEU86       0.0019
    112  CD1      -10.3160  -22.0040    5.4670 C.3    86  LEU86       0.0001
    113  CD2       -9.1720  -23.7960    6.8090 C.3    86  LEU86       0.0001
    114  N        -12.0210  -23.8230   10.4770 N.am   87  GLU87      -0.1966
    115  CA       -12.3350  -23.5370   11.8760 C.3    87  GLU87       0.1733
    116  C        -12.4560  -22.0080   12.1160 C.2    87  GLU87       0.2616
    117  O        -11.5530  -21.2290   11.7300 O.2    87  GLU87      -0.2715
    118  CB       -11.2410  -24.1330   12.7620 C.3    87  GLU87       0.0429
    119  CG       -11.4150  -23.9350   14.2530 C.3    87  GLU87       0.1163
    120  CD       -10.2650  -24.5220   15.0580 C.2    87  GLU87       0.3649
    121  OE1       -9.3450  -25.1640   14.4900 O.co2  87  GLU87      -0.2457
    122  OE2      -10.2920  -24.3530   16.2920 O.co2  87  GLU87      -0.2457
    123  N        -13.5710  -21.6070   12.7410 N.am   88  TYR88      -0.1960
    124  CA       -13.8240  -20.1940   13.0960 C.3    88  TYR88       0.1771
    125  C        -13.1030  -19.8330   14.3960 C.2    88  TYR88       0.2620
    126  O        -13.1540  -20.5890   15.3790 O.2    88  TYR88      -0.2715
    127  CB       -15.3310  -19.9470   13.2140 C.3    88  TYR88       0.0574
    128  CG       -15.7390  -18.5610   13.6920 C.ar   88  TYR88      -0.0198
    129  CD1      -15.4160  -17.4110   12.9580 C.ar   88  TYR88      -0.0009
    130  CD2      -16.4730  -18.4040   14.8710 C.ar   88  TYR88      -0.0009
    131  CE1      -15.7930  -16.1420   13.4080 C.ar   88  TYR88       0.0417
    132  CE2      -16.8620  -17.1530   15.3160 C.ar   88  TYR88       0.0417
    133  CZ       -16.5140  -16.0290   14.5880 C.ar   88  TYR88       0.1957
    134  OH       -16.8870  -14.7930   15.0470 O.3    88  TYR88      -0.2866
    135  N        -12.3950  -18.7040   14.4050 N.am   89  CYS89      -0.1954
    136  CA       -11.7810  -18.1940   15.6390 C.3    89  CYS89       0.1828
    137  C        -12.4120  -16.8510   16.0010 C.2    89  CYS89       0.2467
    138  O        -12.0440  -15.8180   15.4240 O.2    89  CYS89      -0.2730
    139  CB       -10.2810  -18.0160   15.4610 C.3    89  CYS89       0.0996
    140  SG        -9.4120  -19.5330   15.0200 S.3    89  CYS89      -0.0797
    141  N        -13.3630  -16.8480   16.9500 N.am   90  PRO90      -0.2726
    142  CA       -14.0900  -15.5920   17.2670 C.3    90  PRO90       0.1402
    143  C        -13.2220  -14.4520   17.8690 C.2    90  PRO90       0.2269
    144  O        -13.5220  -13.2770   17.6680 O.2    90  PRO90      -0.2865
    145  CB       -15.1260  -16.0530   18.3020 C.3    90  PRO90       0.0296
    146  CG       -14.4620  -17.1950   18.9880 C.3    90  PRO90       0.0237
    147  CD       -13.7050  -17.9200   17.9060 C.3    90  PRO90       0.0939
    148  N        -10.5830  -12.8700   17.1510 N.3    92  GLY92      -0.1210
    149  CA        -9.8500  -11.8840   16.3630 C.3    92  GLY92       0.1956
    150  C         -8.3330  -12.0230   16.4370 C.2    92  GLY92       0.2611
    151  O         -7.7890  -12.9430   17.0680 O.2    92  GLY92      -0.2717
    152  N         -7.6420  -11.0900   15.7910 N.am   93  GLU93      -0.1979
    153  CA        -6.2110  -11.2370   15.5430 C.3    93  GLU93       0.1602
    154  C         -5.3890  -10.8790   16.7490 C.2    93  GLU93       0.2287
    155  O         -5.7810  -10.0870   17.5790 O.2    93  GLU93      -0.2864
    156  CB        -5.7540  -10.3660   14.3660 C.3    93  GLU93       0.0415
    157  CG        -6.4030  -10.7060   13.0400 C.3    93  GLU93       0.1163
    158  CD        -6.1330   -9.6560   11.9800 C.2    93  GLU93       0.3649
    159  OE1       -5.3060   -8.7350   12.2150 O.co2  93  GLU93      -0.2457
    160  OE2       -6.7560   -9.7600   10.9080 O.co2  93  GLU93      -0.2457
    161  N         -1.2450  -10.5840   12.1290 N.3   136  GLU136     -0.1245
    162  CA        -2.4990  -10.6920   11.3970 C.3   136  GLU136      0.1567
    163  C         -2.8630  -12.1340   11.0620 C.2   136  GLU136      0.2260
    164  O         -4.0160  -12.4030   10.7490 O.2   136  GLU136     -0.2867
    165  CB        -2.4380   -9.8860   10.0860 C.3   136  GLU136      0.0388
    166  CG        -2.2810   -8.3650   10.2760 C.3   136  GLU136      0.1160
    167  CD        -0.8320   -7.8620   10.4410 C.2   136  GLU136      0.3649
    168  OE1        0.1230   -8.6750   10.5620 O.co2 136  GLU136     -0.2457
    169  OE2       -0.6420   -6.6190   10.4680 O.co2 136  GLU136     -0.2457
    170  N         -4.7940  -15.9910   15.2270 N.3   139  LEU139     -0.1245
    171  CA        -6.1240  -15.7100   15.7950 C.3   139  LEU139      0.1561
    172  C         -6.3280  -16.3250   17.1760 C.2   139  LEU139      0.2260
    173  O         -5.7880  -17.3900   17.4820 O.2   139  LEU139     -0.2867
    174  CB        -7.1990  -16.2430   14.8630 C.3   139  LEU139      0.0270
    175  CG        -7.1010  -15.8200   13.4100 C.3   139  LEU139      0.0019
    176  CD1       -8.3290  -16.3060   12.6570 C.3   139  LEU139      0.0001
    177  CD2       -6.9810  -14.3030   13.2600 C.3   139  LEU139      0.0001
    178  N         -3.2280  -19.1830   10.8980 N.3   149  ILE149     -0.1231
    179  CA        -4.0070  -19.2170    9.6570 C.3   149  ILE149      0.1692
    180  C         -3.1400  -18.8670    8.4760 C.2   149  ILE149      0.2592
    181  O         -2.0020  -18.4230    8.6440 O.2   149  ILE149     -0.2718
    182  CB        -5.2130  -18.2420    9.7090 C.3   149  ILE149      0.0266
    183  CG1       -4.7580  -16.7770    9.8700 C.3   149  ILE149      0.0019
    184  CG2       -6.1430  -18.6140   10.8640 C.3   149  ILE149      0.0020
    185  CD1       -5.8250  -15.7540    9.5280 C.3   149  ILE149      0.0001
    186  N         -3.7080  -19.0530    7.2820 N.am  150  ASP150     -0.1960
    187  CA        -3.1770  -18.5540    6.0040 C.3   150  ASP150      0.1840
    188  C         -1.8210  -19.1170    5.6460 C.2   150  ASP150      0.2622
    189  O         -0.8050  -18.4250    5.6650 O.2   150  ASP150     -0.2715
    190  CB        -3.1940  -17.0130    5.9370 C.3   150  ASP150      0.1450
    191  CG        -4.5650  -16.4500    5.5390 C.2   150  ASP150      0.3671
    192  OD1       -5.5160  -17.2220    5.2580 O.co2 150  ASP150     -0.2456
    193  OD2       -4.6690  -15.2150    5.5040 O.co2 150  ASP150     -0.2456
    194  N         -1.8570  -20.3940    5.3020 N.am  151  PHE151     -0.1974
    195  CA        -0.7380  -21.1050    4.7450 C.3   151  PHE151      0.1639
    196  C         -0.8740  -21.0610    3.2330 C.2   151  PHE151      0.2290
    197  O          0.0470  -20.6600    2.5260 O.2   151  PHE151     -0.2864
    198  CB        -0.8020  -22.5520    5.1990 C.3   151  PHE151      0.0560
    199  CG        -0.5810  -22.7360    6.6660 C.ar  151  PHE151     -0.0200
    200  CD1       -1.6130  -22.5040    7.5780 C.ar  151  PHE151     -0.0042
    201  CD2        0.6560  -23.1460    7.1390 C.ar  151  PHE151     -0.0042
    202  CE1       -1.4150  -22.6720    8.9340 C.ar  151  PHE151     -0.0003
    203  CE2        0.8610  -23.3240    8.5030 C.ar  151  PHE151     -0.0003
    204  CZ        -0.1800  -23.0910    9.4030 C.ar  151  PHE151     -0.0000
@<TRIPOS>BOND
     1    45    44    2
     2    44    43    1
     3    98    99    1
     4   104   103    1
     5   104   105    1
     6   103   102    1
     7    43    46    1
     8    43    42    1
     9    22    23    1
    10   102    99    1
    11    99   100    1
    12    21    20    2
    13    46    47    1
    14    47    48    1
    15    20    19    1
    16   197   196    2
    17    48    49    1
    18    49    50    1
    19    23    24    1
    20    23    26    1
    21   100   101    2
    22    57    56    1
    23   196   195    1
    24    24    25    2
    25    28    26    1
    26    51    52    1
    27    56    55    1
    28    56    58    1
    29    19    18    1
    30    26    27    1
    31    97    95    1
    32    55    52    1
    33    18    12   am
    34    96    95    1
    35    52    53    1
    36   195   198    1
    37   195   194    1
    38    10    11    1
    39    95    94    1
    40   198   199    1
    41     3     2    1
    42     3     4    2
    43   192   191   ar
    44   194   188   am
    45    53    54    2
    46   112   111    1
    47   193   191   ar
    48   191   190    1
    49    12    11    1
    50    12    13    2
    51   188   189    2
    52   188   187    1
    53     2     1    1
    54     2     5    1
    55   190   187    1
    56   187   186    1
    57    11    14    1
    58    29    30    1
    59    94    91    1
    60    32    31    2
    61   111   113    1
    62   111   110    1
    63    40    39    2
    64    39    38    1
    65    15    14    1
    66    15    17    1
    67   199   201   ar
    68   199   200   ar
    69     5     6    1
    70   106   107    1
    71   201   203   ar
    72    14    16    1
    73    31    30    1
    74   186   180   am
    75    91    92    1
    76    91    90    1
    77    30    33    1
    78   200   202   ar
    79   110   107    1
    80     6     7    1
    81    92    93    2
    82    38    41    1
    83    38    37    1
    84    64    65    1
    85    64    66    1
    86    64    63    1
    87   107   108    1
    88    59    60    1
    89   180   181    2
    90   180   179    1
    91   203   204   ar
    92    33    34    1
    93    90    83   am
    94   202   204   ar
    95    63    60    1
    96     8     7   ar
    97     7     9   ar
    98    60    61    1
    99   108   109    2
   100   108   114   am
   101   185   183    1
   102   179   182    1
   103   179   178    1
   104   182   183    1
   105   182   184    1
   106    84    83    2
   107    83    82    1
   108    34    36    1
   109    34    35    1
   110   165   166    1
   111   165   162    1
   112    89    87   am
   113   166   167    1
   114    78    77    2
   115   167   169   ar
   116   167   168   ar
   117   114   115    1
   118    61    62    2
   119   164   163    2
   120   160   158   ar
   121    82    81    1
   122    82    85    1
   123   163   162    1
   124    77    81   am
   125    77    76    1
   126    73    71    1
   127    87    86    1
   128    87    88    2
   129   162   161    1
   130    86    85    1
   131    79    76    1
   132    79    80    1
   133   117   116    2
   134   115   116    1
   135   115   118    1
   136   158   159   ar
   137   158   157    1
   138   116   123   am
   139    76    75    1
   140    74    72    1
   141   176   175    1
   142    75    69   am
   143   123   124    1
   144   118   119    1
   145    71    72    1
   146    71    68    1
   147   129   131   ar
   148   129   128   ar
   149   157   156    1
   150   124   127    1
   151   124   125    1
   152   127   128    1
   153   177   175    1
   154   131   133   ar
   155   175   174    1
   156    69    68    1
   157    69    70    2
   158   128   130   ar
   159    68    67    1
   160   119   120    1
   161   156   153    1
   162   125   135   am
   163   125   126    2
   164   135   136    1
   165   121   120   ar
   166   133   134    1
   167   133   132   ar
   168   174   171    1
   169   130   132   ar
   170   140   139    1
   171   120   122   ar
   172   170   171    1
   173   138   137    2
   174   139   136    1
   175   153   152    1
   176   153   154    1
   177   136   137    1
   178   152   150   am
   179   171   172    1
   180   137   141   am
   181   149   150    1
   182   149   148    1
   183   150   151    2
   184   154   155    2
   185   141   142    1
   186   141   147    1
   187   172   173    2
   188   142   143    1
   189   142   145    1
   190   144   143    2
   191   147   146    1
   192   145   146    1
