@<TRIPOS>MOLECULE
tmp/5majA00.pdb
 131 126 0 0 0
SMALL
GASTEIGER

@<TRIPOS>ATOM
      1  N         -9.1360    8.1360    3.8970 N.3    19  GLN19      -0.1245
      2  CA        -9.6120    9.1720    4.8480 C.3    19  GLN19       0.1566
      3  C         -9.0800   10.5430    4.5550 C.2    19  GLN19       0.2260
      4  O         -9.6060   11.5530    5.0880 O.2    19  GLN19      -0.2867
      5  CB        -9.3160    8.7720    6.2840 C.3    19  GLN19       0.0367
      6  CG        -7.8030    8.8350    6.5940 C.3    19  GLN19       0.0905
      7  CD        -7.5310    8.2620    7.9410 C.2    19  GLN19       0.2608
      8  OE1       -7.4150    7.0810    8.1790 O.2    19  GLN19      -0.2717
      9  NE2       -7.4820    9.2040    8.9310 N.am   19  GLN19      -0.0878
     10  N         -8.8430   13.2630   10.7430 N.3    23  GLY23      -0.1225
     11  CA        -8.7160   12.2620   11.7530 C.3    23  GLY23       0.1811
     12  C         -9.9790   11.3690   11.9500 C.2    23  GLY23       0.2280
     13  O        -10.5380   11.2890   13.0440 O.2    23  GLY23      -0.2866
     14  N        -10.2100    8.0240   10.9400 N.3    25  CYS25      -0.1221
     15  CA        -9.9610    6.5700   10.8530 C.3    25  CYS25       0.1808
     16  C        -11.0160    5.7700   11.6030 C.2    25  CYS25       0.2601
     17  O        -11.3880    4.6660   11.1340 O.2    25  CYS25      -0.2717
     18  CB        -8.5860    6.2410   11.4060 C.3    25  CYS25       0.0970
     19  SG        -8.3580    6.7590   13.1690 S.3    25  CYS25      -0.0800
     20  N        -11.4710    6.2450   12.7580 N.am   26  TRP26      -0.1976
     21  CA       -12.4910    5.5600   13.5480 C.3    26  TRP26       0.1640
     22  C        -13.7750    5.3610   12.7600 C.2    26  TRP26       0.2290
     23  O        -14.4650    4.3510   12.9580 O.2    26  TRP26      -0.2864
     24  CB       -12.7390    6.4300   14.8230 C.3    26  TRP26       0.0576
     25  CG       -13.1530    7.8160   14.5010 C.ar   26  TRP26       0.0006
     26  CD1      -12.3350    8.9230   14.3130 C.ar   26  TRP26       0.0946
     27  CD2      -14.4950    8.3200   14.3310 C.ar   26  TRP26       0.0152
     28  NE1      -13.0660   10.0120   13.9990 N.ar   26  TRP26      -0.2442
     29  CE2      -14.4060    9.6900   14.0300 C.ar   26  TRP26       0.0810
     30  CE3      -15.7630    7.6960   14.3400 C.ar   26  TRP26       0.0012
     31  CZ2      -15.5360   10.4700   13.7050 C.ar   26  TRP26       0.0191
     32  CZ3      -16.8940    8.4600   14.0330 C.ar   26  TRP26       0.0001
     33  CH2      -16.7700    9.8320   13.7140 C.ar   26  TRP26       0.0015
     34  N        -19.8490   11.2500   21.4560 N.3    61  GLY61      -0.1225
     35  CA       -18.4550   11.4240   21.8830 C.3    61  GLY61       0.1811
     36  C        -17.4740   11.6210   20.7350 C.2    61  GLY61       0.2280
     37  O        -16.2420   11.7670   21.0490 O.2    61  GLY61      -0.2866
     38  N        -15.4610   13.3570   17.5440 N.3    63  GLU63      -0.1245
     39  CA       -14.9540   14.6850   17.3320 C.3    63  GLU63       0.1567
     40  C        -14.5680   14.8970   15.8860 C.2    63  GLU63       0.2260
     41  O        -13.6160   15.6560   15.5640 O.2    63  GLU63      -0.2867
     42  CB       -13.8310   15.0100   18.3280 C.3    63  GLU63       0.0388
     43  CG       -14.3040   15.0360   19.7540 C.3    63  GLU63       0.1160
     44  CD       -13.1060   15.5020   20.6610 C.2    63  GLU63       0.3649
     45  OE1      -12.3790   16.5220   20.3940 O.co2  63  GLU63      -0.2457
     46  OE2      -13.0710   14.9660   21.7550 O.co2  63  GLU63      -0.2457
     47  N        -12.9970   15.2690   12.4960 N.3    65  CYS65      -0.1221
     48  CA       -11.6220   15.1300   12.0690 C.3    65  CYS65       0.1808
     49  C        -10.6180   15.1970   13.2100 C.2    65  CYS65       0.2601
     50  O         -9.3960   15.0340   12.9450 O.2    65  CYS65      -0.2717
     51  CB       -11.2610   16.1520   10.9770 C.3    65  CYS65       0.0970
     52  SG       -12.1630   15.8730    9.4250 S.3    65  CYS65      -0.0800
     53  N        -11.0640   15.3860   14.4210 N.am   66  ASN66      -0.1960
     54  CA       -10.2410   15.3800   15.6190 C.3    66  ASN66       0.1819
     55  C        -10.3270   14.0330   16.3670 C.2    66  ASN66       0.2622
     56  O         -9.9530   13.9730   17.5530 O.2    66  ASN66      -0.2715
     57  CB       -10.5990   16.4960   16.5960 C.3    66  ASN66       0.1195
     58  CG       -10.2370   17.8680   16.0850 C.2    66  ASN66       0.2630
     59  OD1       -9.4600   17.9610   15.1250 O.2    66  ASN66      -0.2716
     60  ND2      -10.7640   18.9090   16.7050 N.am   66  ASN66      -0.0877
     61  N        -10.7510   12.9710   15.6830 N.am   67  GLY67      -0.1940
     62  CA       -10.7910   11.6770   16.2680 C.3    67  GLY67       0.2014
     63  C        -12.1490   11.2640   16.8050 C.2    67  GLY67       0.2639
     64  O        -13.1100   12.0650   16.7690 O.2    67  GLY67      -0.2714
     65  N        -12.1840   10.0680   17.3300 N.am   68  GLY68      -0.1939
     66  CA       -13.4590    9.4690   17.7520 C.3    68  GLY68       0.2014
     67  C        -13.1800    8.0180   18.0290 C.2    68  GLY68       0.2639
     68  O        -12.0080    7.5550   17.9730 O.2    68  GLY68      -0.2714
     69  N        -14.2280    7.2250   18.3290 N.am   69  LEU69      -0.1963
     70  CA       -14.0750    5.8210   18.6270 C.3    69  LEU69       0.1728
     71  C        -15.1260    5.0000   17.8770 C.2    69  LEU69       0.2616
     72  O        -16.2940    5.4460   17.7090 O.2    69  LEU69      -0.2715
     73  CB       -14.2200    5.5040   20.1010 C.3    69  LEU69       0.0311
     74  CG       -13.1390    5.9900   21.0350 C.3    69  LEU69       0.0022
     75  CD1      -13.5050    5.6140   22.4610 C.3    69  LEU69       0.0001
     76  CD2      -11.7900    5.3530   20.6530 C.3    69  LEU69       0.0001
     77  N        -14.7570    3.8070   17.4720 N.am   70  MET70      -0.1977
     78  CA       -15.6640    2.9430   16.7660 C.3    70  MET70       0.1605
     79  C        -16.8940    2.6440   17.6410 C.2    70  MET70       0.2287
     80  O        -18.0360    2.6540   17.0850 O.2    70  MET70      -0.2864
     81  CB       -14.9530    1.6650   16.3260 C.3    70  MET70       0.0413
     82  CG       -13.8740    1.9180   15.2840 C.3    70  MET70       0.0598
     83  SD       -12.3040    2.6090   15.9030 S.3    70  MET70      -0.1393
     84  CE       -11.4760    1.1040   16.4830 C.3    70  MET70       0.0692
     85  N        -18.3310    4.5140   19.7890 N.3    72  TYR72      -0.1241
     86  CA       -19.2070    5.6970   19.7590 C.3    72  TYR72       0.1605
     87  C        -19.9870    5.7600   18.4660 C.2    72  TYR72       0.2264
     88  O        -21.1600    6.1370   18.4200 O.2    72  TYR72      -0.2867
     89  CB       -18.3890    6.9730   19.9580 C.3    72  TYR72       0.0534
     90  CG       -17.6630    7.1250   21.2500 C.ar   72  TYR72      -0.0201
     91  CD1      -17.8890    6.3130   22.3560 C.ar   72  TYR72      -0.0009
     92  CD2      -16.7140    8.1910   21.3550 C.ar   72  TYR72      -0.0009
     93  CE1      -17.1910    6.5250   23.5190 C.ar   72  TYR72       0.0417
     94  CE2      -16.0330    8.4590   22.5180 C.ar   72  TYR72       0.0417
     95  CZ       -16.2790    7.6170   23.6060 C.ar   72  TYR72       0.1957
     96  OH       -15.6140    7.7820   24.8220 O.3    72  TYR72      -0.2866
     97  N         -8.1600   -0.8940   17.4280 N.3   135  ALA135     -0.1245
     98  CA        -7.2170    0.2150   17.5710 C.3   135  ALA135      0.1562
     99  C         -5.8060   -0.3210   17.6450 C.2   135  ALA135      0.2260
    100  O         -5.5580   -1.3430   18.2960 O.2   135  ALA135     -0.2867
    101  CB        -7.5290    0.9690   18.8550 C.3   135  ALA135      0.0290
    102  N         -2.8560    3.2650   21.8620 N.3   161  MET161     -0.1230
    103  CA        -3.2390    3.1640   20.4490 C.3   161  MET161      0.1702
    104  C         -3.6390    4.5160   19.9150 C.2   161  MET161      0.2592
    105  O         -4.2680    5.2910   20.6710 O.2   161  MET161     -0.2718
    106  CB        -4.2990    2.0740   20.2520 C.3   161  MET161      0.0401
    107  CG        -3.8560    0.6290   20.7200 C.3   161  MET161      0.0596
    108  SD        -4.0610    0.2530   22.4460 S.3   161  MET161     -0.1393
    109  CE        -5.8750    0.0860   22.2470 C.3   161  MET161      0.0692
    110  N         -3.4220    4.7350   18.6420 N.am  162  ASP162     -0.1960
    111  CA        -3.6490    6.0570   18.0890 C.3   162  ASP162      0.1840
    112  C         -4.2470    5.9970   16.7120 C.2   162  ASP162      0.2622
    113  O         -4.3270    7.0410   16.0360 O.2   162  ASP162     -0.2715
    114  CB        -2.3360    6.9220   18.0630 C.3   162  ASP162      0.1450
    115  CG        -1.2880    6.2980   17.1720 C.2   162  ASP162      0.3671
    116  OD1       -1.5170    5.2340   16.5670 O.co2 162  ASP162     -0.2456
    117  OD2       -0.2260    6.9990   16.9800 O.co2 162  ASP162     -0.2456
    118  N         -4.7670    4.8100   16.2730 N.am  163  HIS163     -0.1959
    119  CA        -5.2910    4.6840   14.9220 C.3   163  HIS163      0.1787
    120  C         -6.2930    3.5560   14.9080 C.2   163  HIS163      0.2620
    121  O         -6.0390    2.4830   15.5050 O.2   163  HIS163     -0.2715
    122  CB        -4.1210    4.3870   13.9360 C.3   163  HIS163      0.0785
    123  CG        -4.4920    4.4580   12.5160 C.ar  163  HIS163      0.0821
    124  ND1       -5.0880    5.5910   11.9580 N.ar  163  HIS163     -0.2267
    125  CD2       -4.2750    3.5530   11.5170 C.ar  163  HIS163      0.1154
    126  CE1       -5.2640    5.2770   10.6860 C.ar  163  HIS163      0.1986
    127  NE2       -4.8290    4.0550   10.3650 N.ar  163  HIS163     -0.2212
    128  N         -7.4230    3.7060   14.2250 N.am  164  GLY164     -0.1954
    129  CA        -8.4750    2.6970   14.1250 C.3   164  GLY164      0.1869
    130  C         -8.4380    2.0920   12.7670 C.2   164  GLY164      0.2309
    131  O         -8.4190    2.8210   11.7640 O.2   164  GLY164     -0.2863
@<TRIPOS>BOND
     1     1     2    1
     2     3     2    1
     3     3     4    2
     4     2     5    1
     5     5     6    1
     6     6     7    1
     7     7     8    2
     8     7     9   am
     9    52    51    1
    10   127   126   ar
    11   127   125   ar
    12   126   124   ar
    13    10    11    1
    14    15    14    1
    15    15    18    1
    16    15    16    1
    17    51    48    1
    18    17    16    2
    19    18    19    1
    20   125   123   ar
    21    16    20   am
    22    11    12    1
    23   131   130    2
    24    12    13    2
    25   124   123   ar
    26    48    47    1
    27    48    49    1
    28   123   122    1
    29    20    21    1
    30    22    23    2
    31    22    21    1
    32   130   129    1
    33    50    49    2
    34    49    53   am
    35    21    24    1
    36    31    33   ar
    37    31    29   ar
    38    33    32   ar
    39   122   119    1
    40    28    29   ar
    41    28    26   ar
    42    29    27   ar
    43    32    30   ar
    44   129   128    1
    45   128   120   am
    46    26    25   ar
    47    27    30   ar
    48    27    25   ar
    49    53    54    1
    50    25    24    1
    51   120   119    1
    52   120   121    2
    53   119   118    1
    54    59    58    2
    55    82    83    1
    56    82    81    1
    57    41    40    2
    58    54    55    1
    59    54    57    1
    60    61    62    1
    61    61    55   am
    62    40    39    1
    63    83    84    1
    64   113   112    2
    65    58    57    1
    66    58    60   am
    67    62    63    1
    68   118   112   am
    69    81    78    1
    70    55    56    2
    71   116   115   ar
    72   112   111    1
    73    78    77    1
    74    78    79    1
    75    64    63    2
    76    63    65   am
    77   117   115   ar
    78    80    79    2
    79   115   114    1
    80    65    66    1
    81    39    38    1
    82    39    42    1
    83    97    98    1
    84    77    71   am
    85    98    99    1
    86    98   101    1
    87    99   100    2
    88    72    71    2
    89    66    67    1
    90    71    70    1
    91    68    67    2
    92    67    69   am
    93   114   111    1
    94   111   110    1
    95    42    43    1
    96    69    70    1
    97    88    87    2
    98    87    86    1
    99    70    73    1
   100   110   104   am
   101    43    44    1
   102    86    85    1
   103    86    89    1
   104   104   103    1
   105   104   105    2
   106    89    90    1
   107    73    74    1
   108   106   103    1
   109   106   107    1
   110    45    44   ar
   111   103   102    1
   112    76    74    1
   113    44    46   ar
   114   107   108    1
   115    36    37    2
   116    36    35    1
   117    74    75    1
   118    90    92   ar
   119    90    91   ar
   120    92    94   ar
   121    34    35    1
   122   109   108    1
   123    91    93   ar
   124    94    95   ar
   125    93    95   ar
   126    95    96    1
