@<TRIPOS>MOLECULE
tmp/5manA00.pdb
 195 189 0 0 0
SMALL
GASTEIGER

@<TRIPOS>ATOM
      1  N        -13.6060  -12.3660  -14.1130 N.3    50  ASP50      -0.1239
      2  CA       -12.8940  -13.5570  -14.5610 C.3    50  ASP50       0.1674
      3  C        -12.2720  -13.3690  -15.9450 C.2    50  ASP50       0.2266
      4  O        -12.1140  -14.3340  -16.6960 O.2    50  ASP50      -0.2867
      5  CB       -13.8340  -14.7620  -14.5540 C.3    50  ASP50       0.1410
      6  CG       -13.0920  -16.0860  -14.5520 C.2    50  ASP50       0.3668
      7  OD1      -11.8640  -16.0900  -14.3250 O.co2  50  ASP50      -0.2456
      8  OD2      -13.7430  -17.1280  -14.7650 O.co2  50  ASP50      -0.2456
      9  N        -14.1890  -14.8270  -19.0630 N.3    53  PHE53      -0.1241
     10  CA       -14.9350  -16.0630  -18.8700 C.3    53  PHE53       0.1605
     11  C        -16.2340  -15.8530  -18.1050 C.2    53  PHE53       0.2264
     12  O        -16.9550  -16.8250  -17.8490 O.2    53  PHE53      -0.2867
     13  CB       -14.0610  -17.0990  -18.1580 C.3    53  PHE53       0.0534
     14  CG       -13.0240  -17.7150  -19.0510 C.ar   53  PHE53      -0.0203
     15  CD1      -13.3220  -18.8310  -19.8110 C.ar   53  PHE53      -0.0042
     16  CD2      -11.7590  -17.1670  -19.1470 C.ar   53  PHE53      -0.0042
     17  CE1      -12.3730  -19.3940  -20.6380 C.ar   53  PHE53      -0.0003
     18  CE2      -10.8090  -17.7280  -19.9760 C.ar   53  PHE53      -0.0003
     19  CZ       -11.1170  -18.8340  -20.7230 C.ar   53  PHE53      -0.0000
     20  N        -22.8360  -22.5800  -18.0980 N.3    88  HIS88      -0.1241
     21  CA       -23.4720  -21.5250  -17.3230 C.3    88  HIS88       0.1621
     22  C        -23.4500  -20.2210  -18.1100 C.2    88  HIS88       0.2264
     23  O        -22.8420  -20.1250  -19.1790 O.2    88  HIS88      -0.2867
     24  CB       -22.7590  -21.3430  -15.9830 C.3    88  HIS88       0.0745
     25  CG       -21.2750  -21.2080  -16.1130 C.ar   88  HIS88       0.0817
     26  ND1      -20.3990  -22.1830  -15.6870 N.ar   88  HIS88      -0.2268
     27  CD2      -20.5130  -20.2230  -16.6440 C.ar   88  HIS88       0.1154
     28  CE1      -19.1600  -21.7960  -15.9340 C.ar   88  HIS88       0.1986
     29  NE2      -19.2020  -20.6110  -16.5170 N.ar   88  HIS88      -0.2212
     30  N        -15.5220  -27.6460   -7.8910 N.3   134  PRO134     -0.2102
     31  CA       -14.2900  -26.8790   -8.1150 C.3   134  PRO134      0.1504
     32  C        -14.1600  -25.7330   -7.1270 C.2   134  PRO134      0.2575
     33  O        -13.0710  -25.1870   -6.9260 O.2   134  PRO134     -0.2718
     34  CB       -14.4550  -26.3700   -9.5490 C.3   134  PRO134      0.0282
     35  CG       -15.9250  -26.2090   -9.7050 C.3   134  PRO134      0.0208
     36  CD       -16.5750  -27.2780   -8.8540 C.3   134  PRO134      0.0893
     37  N        -15.2770  -25.3620   -6.5080 N.am  135  ARG135     -0.1980
     38  CA       -15.3200  -24.2890   -5.5310 C.3   135  ARG135      0.1597
     39  C        -15.9750  -24.7920   -4.2540 C.2   135  ARG135      0.2287
     40  O        -16.7850  -25.7220   -4.2950 O.2   135  ARG135     -0.2864
     41  CB       -16.0990  -23.0800   -6.0720 C.3   135  ARG135      0.0334
     42  CG       -15.6030  -22.5710   -7.4240 C.3   135  ARG135      0.0492
     43  CD       -14.1770  -22.0380   -7.3470 C.3   135  ARG135      0.2205
     44  NE       -13.7490  -21.4170   -8.6020 N.pl3 135  ARG135     -0.0865
     45  CZ       -13.0650  -22.0300   -9.5670 C.cat 135  ARG135      0.5346
     46  NH1      -12.7090  -23.3010   -9.4450 N.pl3 135  ARG135      0.1354
     47  NH2      -12.7320  -21.3630  -10.6660 N.pl3 135  ARG135      0.1354
     48  N        -19.7760  -22.4850  -10.2160 N.3   156  PHE156     -0.1241
     49  CA       -18.5960  -21.6890   -9.9010 C.3   156  PHE156      0.1605
     50  C        -18.9420  -20.5180   -8.9880 C.2   156  PHE156      0.2264
     51  O        -18.7640  -20.6130   -7.7700 O.2   156  PHE156     -0.2867
     52  CB       -17.9390  -21.2120  -11.1960 C.3   156  PHE156      0.0534
     53  CG       -17.3260  -22.3280  -11.9940 C.ar  156  PHE156     -0.0203
     54  CD1      -18.0930  -23.0650  -12.8810 C.ar  156  PHE156     -0.0042
     55  CD2      -15.9920  -22.6620  -11.8340 C.ar  156  PHE156     -0.0042
     56  CE1      -17.5350  -24.1030  -13.6070 C.ar  156  PHE156     -0.0003
     57  CE2      -15.4290  -23.6960  -12.5560 C.ar  156  PHE156     -0.0003
     58  CZ       -16.2000  -24.4170  -13.4430 C.ar  156  PHE156     -0.0000
     59  N        -22.8390  -16.8090  -11.9400 N.3   160  GLN160     -0.1245
     60  CA       -22.8420  -17.6340  -13.1490 C.3   160  GLN160      0.1566
     61  C        -23.8190  -18.7860  -12.9370 C.2   160  GLN160      0.2260
     62  O        -23.4920  -19.7720  -12.2690 O.2   160  GLN160     -0.2867
     63  CB       -21.4400  -18.1470  -13.4640 C.3   160  GLN160      0.0367
     64  CG       -20.4460  -17.0500  -13.8250 C.3   160  GLN160      0.0905
     65  CD       -19.0130  -17.5390  -13.8190 C.2   160  GLN160      0.2608
     66  OE1      -18.4810  -17.9120  -12.7750 O.2   160  GLN160     -0.2717
     67  NE2      -18.3820  -17.5470  -14.9860 N.am  160  GLN160     -0.0878
     68  N        -13.3360  -24.5370  -27.9260 N.3   190  ARG190     -0.1245
     69  CA       -12.9090  -25.0160  -26.6160 C.3   190  ARG190      0.1563
     70  C        -14.1180  -24.9810  -25.6890 C.2   190  ARG190      0.2260
     71  O        -14.6020  -23.9020  -25.3300 O.2   190  ARG190     -0.2867
     72  CB       -11.7680  -24.1460  -26.0910 C.3   190  ARG190      0.0307
     73  CG       -11.1790  -24.5620  -24.7600 C.3   190  ARG190      0.0489
     74  CD       -10.0020  -23.6550  -24.4160 C.3   190  ARG190      0.2205
     75  NE        -9.3960  -23.9740  -23.1240 N.pl3 190  ARG190     -0.0865
     76  CZ        -9.8580  -23.5440  -21.9550 C.cat 190  ARG190      0.5346
     77  NH1      -10.9390  -22.7790  -21.9090 N.pl3 190  ARG190      0.1354
     78  NH2       -9.2490  -23.8840  -20.8270 N.pl3 190  ARG190      0.1354
     79  N        -15.7870  -24.8650  -22.5400 N.3   192  ASN192     -0.1225
     80  CA       -15.3990  -24.4910  -21.1890 C.3   192  ASN192      0.1785
     81  C        -16.3790  -25.0620  -20.1720 C.2   192  ASN192      0.2597
     82  O        -17.5950  -24.8920  -20.3010 O.2   192  ASN192     -0.2718
     83  CB       -15.3340  -22.9690  -21.0660 C.3   192  ASN192      0.1169
     84  CG       -14.6330  -22.5160  -19.8020 C.2   192  ASN192      0.2627
     85  OD1      -13.4130  -22.5740  -19.7070 O.2   192  ASN192     -0.2716
     86  ND2      -15.4020  -22.0600  -18.8270 N.am  192  ASN192     -0.0877
     87  N        -15.8470  -25.7470  -19.1630 N.am  193  ALA193     -0.1979
     88  CA       -16.6410  -26.2870  -18.0600 C.3   193  ALA193      0.1597
     89  C        -17.6770  -27.3060  -18.5250 C.2   193  ALA193      0.2287
     90  O        -18.6870  -27.5200  -17.8470 O.2   193  ALA193     -0.2864
     91  CB       -17.3320  -25.1630  -17.2810 C.3   193  ALA193      0.0319
     92  N        -17.4380  -30.4060  -18.4770 N.3   195  GLY195     -0.1210
     93  CA       -17.4670  -31.5360  -17.5630 C.3   195  GLY195      0.1956
     94  C        -18.5880  -31.4580  -16.5440 C.2   195  GLY195      0.2611
     95  O        -19.0570  -32.4890  -16.0500 O.2   195  GLY195     -0.2717
     96  N        -19.0280  -30.2430  -16.2130 N.am  196  TYR196     -0.1976
     97  CA       -20.1210  -30.0300  -15.2750 C.3   196  TYR196      0.1639
     98  C        -21.4670  -29.8500  -15.9650 C.2   196  TYR196      0.2290
     99  O        -22.4790  -29.6770  -15.2810 O.2   196  TYR196     -0.2864
    100  CB       -19.8360  -28.7980  -14.3980 C.3   196  TYR196      0.0560
    101  CG       -18.5180  -28.8530  -13.6570 C.ar  196  TYR196     -0.0198
    102  CD1      -17.3430  -28.4240  -14.2600 C.ar  196  TYR196     -0.0009
    103  CD2      -18.4450  -29.3350  -12.3560 C.ar  196  TYR196     -0.0009
    104  CE1      -16.1320  -28.4750  -13.5910 C.ar  196  TYR196      0.0417
    105  CE2      -17.2360  -29.3900  -11.6780 C.ar  196  TYR196      0.0417
    106  CZ       -16.0860  -28.9580  -12.3010 C.ar  196  TYR196      0.1957
    107  OH       -14.8840  -29.0110  -11.6300 O.3   196  TYR196     -0.2866
    108  N        -20.2440  -34.7820  -12.5920 N.3   206  PHE206     -0.1241
    109  CA       -19.0140  -34.4100  -13.2790 C.3   206  PHE206      0.1605
    110  C        -18.5580  -35.5900  -14.1250 C.2   206  PHE206      0.2264
    111  O        -18.2070  -36.6460  -13.5880 O.2   206  PHE206     -0.2867
    112  CB       -17.9270  -34.0000  -12.2880 C.3   206  PHE206      0.0534
    113  CG       -16.6430  -33.5920  -12.9450 C.ar  206  PHE206     -0.0203
    114  CD1      -16.5220  -32.3510  -13.5430 C.ar  206  PHE206     -0.0042
    115  CD2      -15.5590  -34.4490  -12.9660 C.ar  206  PHE206     -0.0042
    116  CE1      -15.3420  -31.9720  -14.1540 C.ar  206  PHE206     -0.0003
    117  CE2      -14.3760  -34.0780  -13.5730 C.ar  206  PHE206     -0.0003
    118  CZ       -14.2680  -32.8360  -14.1690 C.ar  206  PHE206     -0.0000
    119  N        -11.7180  -29.1060  -22.1140 N.3   232  GLU232     -0.1231
    120  CA       -10.7260  -28.7610  -21.1050 C.3   232  GLU232      0.1699
    121  C        -11.1710  -29.3840  -19.7890 C.2   232  GLU232      0.2592
    122  O        -12.2790  -29.1140  -19.3110 O.2   232  GLU232     -0.2718
    123  CB       -10.5600  -27.2440  -20.9810 C.3   232  GLU232      0.0402
    124  CG       -11.8400  -26.4710  -20.6440 C.3   232  GLU232      0.1161
    125  CD       -12.0930  -26.3530  -19.1520 C.2   232  GLU232      0.3649
    126  OE1      -11.1290  -26.4850  -18.3680 O.co2 232  GLU232     -0.2457
    127  OE2      -13.2600  -26.1350  -18.7640 O.co2 232  GLU232     -0.2457
    128  N        -10.3290  -30.2480  -19.2310 N.am  233  VAL233     -0.1966
    129  CA       -10.6640  -30.9680  -18.0090 C.3   233  VAL233      0.1727
    130  C         -9.3990  -31.1610  -17.1850 C.2   233  VAL233      0.2616
    131  O         -8.4440  -31.8040  -17.6350 O.2   233  VAL233     -0.2715
    132  CB       -11.3260  -32.3250  -18.3180 C.3   233  VAL233      0.0290
    133  CG1      -11.6370  -33.0830  -17.0310 C.3   233  VAL233      0.0023
    134  CG2      -12.5940  -32.1380  -19.1330 C.3   233  VAL233      0.0023
    135  N         -9.3860  -30.5950  -15.9810 N.am  234  HIS234     -0.1973
    136  CA        -8.3540  -30.8600  -14.9840 C.3   234  HIS234      0.1656
    137  C         -8.8840  -31.9180  -14.0260 C.2   234  HIS234      0.2291
    138  O         -9.9240  -31.7120  -13.3900 O.2   234  HIS234     -0.2864
    139  CB        -7.9900  -29.5910  -14.2130 C.3   234  HIS234      0.0771
    140  CG        -7.2200  -28.5890  -15.0140 C.ar  234  HIS234      0.0820
    141  ND1       -5.8420  -28.5430  -15.0210 N.ar  234  HIS234     -0.2267
    142  CD2       -7.6340  -27.5840  -15.8210 C.ar  234  HIS234      0.1154
    143  CE1       -5.4410  -27.5580  -15.8050 C.ar  234  HIS234      0.1986
    144  NE2       -6.5090  -26.9600  -16.3020 N.ar  234  HIS234     -0.2212
    145  N         -3.3440  -19.4900  -19.6930 N.3   289  HIS289     -0.1226
    146  CA        -3.7610  -18.2390  -19.0740 C.3   289  HIS289      0.1752
    147  C         -4.0620  -18.3950  -17.5890 C.2   289  HIS289      0.2596
    148  O         -4.2240  -17.3850  -16.8940 O.2   289  HIS289     -0.2718
    149  CB        -4.9920  -17.6820  -19.7910 C.3   289  HIS289      0.0759
    150  CG        -6.1910  -18.5700  -19.6980 C.ar  289  HIS289      0.0818
    151  ND1       -6.2610  -19.7920  -20.3310 N.ar  289  HIS289     -0.2268
    152  CD2       -7.3640  -18.4200  -19.0390 C.ar  289  HIS289      0.1154
    153  CE1       -7.4260  -20.3560  -20.0670 C.ar  289  HIS289      0.1986
    154  NE2       -8.1140  -19.5440  -19.2850 N.ar  289  HIS289     -0.2212
    155  N         -4.1490  -19.6260  -17.0900 N.am  290  ASP290     -0.1974
    156  CA        -4.3130  -19.8920  -15.6720 C.3   290  ASP290      0.1709
    157  C         -2.9700  -20.3050  -15.0700 C.2   290  ASP290      0.2293
    158  O         -1.9340  -20.3060  -15.7390 O.2   290  ASP290     -0.2864
    159  CB        -5.3790  -20.9710  -15.4550 C.3   290  ASP290      0.1436
    160  CG        -6.7690  -20.5070  -15.8530 C.2   290  ASP290      0.3671
    161  OD1       -7.0830  -19.3160  -15.6420 O.co2 290  ASP290     -0.2456
    162  OD2       -7.5460  -21.3310  -16.3790 O.co2 290  ASP290     -0.2456
    163  N         -3.6090  -24.9600   -8.4250 N.3   345  PHE345     -0.1241
    164  CA        -2.6440  -24.3740   -9.3420 C.3   345  PHE345      0.1605
    165  C         -1.6330  -23.5460   -8.5620 C.2   345  PHE345      0.2264
    166  O         -1.8650  -23.1610   -7.4130 O.2   345  PHE345     -0.2867
    167  CB        -3.3340  -23.4910  -10.3910 C.3   345  PHE345      0.0534
    168  CG        -4.5290  -24.1330  -11.0420 C.ar  345  PHE345     -0.0203
    169  CD1       -4.3730  -25.0260  -12.0880 C.ar  345  PHE345     -0.0042
    170  CD2       -5.8120  -23.8300  -10.6140 C.ar  345  PHE345     -0.0042
    171  CE1       -5.4740  -25.6140  -12.6910 C.ar  345  PHE345     -0.0003
    172  CE2       -6.9160  -24.4130  -11.2140 C.ar  345  PHE345     -0.0003
    173  CZ        -6.7450  -25.3050  -12.2540 C.ar  345  PHE345     -0.0000
    174  N         -3.7020  -14.6110  -10.7060 N.3   399  ARG399     -0.1245
    175  CA        -3.3730  -15.0860  -12.0430 C.3   399  ARG399      0.1563
    176  C         -2.8060  -13.9930  -12.9440 C.2   399  ARG399      0.2260
    177  O         -2.2590  -14.3160  -14.0050 O.2   399  ARG399     -0.2867
    178  CB        -4.6130  -15.7140  -12.6840 C.3   399  ARG399      0.0307
    179  CG        -4.9460  -17.0980  -12.1320 C.3   399  ARG399      0.0489
    180  CD        -6.2660  -17.6200  -12.6660 C.3   399  ARG399      0.2205
    181  NE        -7.4090  -16.8860  -12.1320 N.pl3 399  ARG399     -0.0865
    182  CZ        -8.6680  -17.0880  -12.5070 C.cat 399  ARG399      0.5346
    183  NH1       -8.9530  -18.0030  -13.4260 N.pl3 399  ARG399      0.1354
    184  NH2       -9.6450  -16.3700  -11.9690 N.pl3 399  ARG399      0.1354
    185  N         -0.1830  -12.7180  -16.8660 N.3   403  ARG403     -0.1245
    186  CA        -1.0780  -12.1040  -17.8490 C.3   403  ARG403      0.1563
    187  C         -0.6250  -10.6790  -18.1610 C.2   403  ARG403      0.2260
    188  O         -1.4120   -9.7310  -18.1490 O.2   403  ARG403     -0.2867
    189  CB        -2.5230  -12.1090  -17.3510 C.3   403  ARG403      0.0307
    190  CG        -3.1070  -13.4970  -17.0980 C.3   403  ARG403      0.0489
    191  CD        -4.5160  -13.3940  -16.5430 C.3   403  ARG403      0.2205
    192  NE        -5.1420  -14.7010  -16.3680 N.pl3 403  ARG403     -0.0865
    193  CZ        -6.3670  -14.8860  -15.8840 C.cat 403  ARG403      0.5346
    194  NH1       -7.1080  -13.8480  -15.5210 N.pl3 403  ARG403      0.1354
    195  NH2       -6.8560  -16.1120  -15.7650 N.pl3 403  ARG403      0.1354
@<TRIPOS>BOND
     1    68    69    1
     2    69    72    1
     3    69    70    1
     4    72    73    1
     5    70    71    2
     6    73    74    1
     7    74    75    1
     8    75    76    2
     9    79    80    1
    10   119   120    1
    11    76    77    1
    12    76    78    1
    13    80    83    1
    14    80    81    1
    15   120   123    1
    16   120   121    1
    17    83    84    1
    18   123   124    1
    19    19    17   ar
    20    19    18   ar
    21   124   125    1
    22    17    15   ar
    23   151   153   ar
    24   151   150   ar
    25    82    81    2
    26    81    87   am
    27   153   154   ar
    28    18    16   ar
    29    15    14   ar
    30    84    85    2
    31    84    86   am
    32   149   150    1
    33   149   146    1
    34   121   122    2
    35   121   128   am
    36   150   152   ar
    37   145   146    1
    38   154   152   ar
    39   128   129    1
    40    23    22    2
    41    87    88    1
    42   125   127   ar
    43   125   126   ar
    44    16    14   ar
    45   134   132    1
    46   146   147    1
    47     9    10    1
    48    14    13    1
    49    10    13    1
    50    10    11    1
    51    89    88    1
    52    89    90    2
    53    92    93    1
    54   132   129    1
    55   132   133    1
    56   187   188    2
    57   187   186    1
    58    22    21    1
    59    11    12    2
    60    20    21    1
    61    88    91    1
    62   129   130    1
    63   186   189    1
    64   186   185    1
    65   131   130    2
    66   147   155   am
    67   147   148    2
    68    93    94    1
    69   189   190    1
    70    21    24    1
    71   130   135   am
    72   190   191    1
    73   155   156    1
    74     4     3    2
    75    27    29   ar
    76    27    25   ar
    77    94    96   am
    78    94    95    2
    79   191   192    1
    80    29    28   ar
    81   162   160   ar
    82   192   193    2
    83   144   142   ar
    84   144   143   ar
    85    96    97    1
    86    25    24    1
    87    25    26   ar
    88   135   136    1
    89    98    99    2
    90    98    97    1
    91     3     2    1
    92    28    26   ar
    93   193   195    1
    94   193   194    1
    95   160   161   ar
    96   160   159    1
    97   142   140   ar
    98   143   141   ar
    99   158   157    2
   100   156   159    1
   101   156   157    1
   102    97   100    1
   103   141   140   ar
   104   140   139    1
   105    67    65   am
   106   136   139    1
   107   136   137    1
   108     8     6   ar
   109     2     5    1
   110     2     1    1
   111     5     6    1
   112     6     7   ar
   113   100   101    1
   114   102   101   ar
   115   102   104   ar
   116   118   116   ar
   117   118   117   ar
   118   116   114   ar
   119   110   111    2
   120   110   109    1
   121   137   138    2
   122   177   176    2
   123    64    65    1
   124    64    63    1
   125    65    66    2
   126   101   103   ar
   127    56    58   ar
   128    56    54   ar
   129   104   106   ar
   130   117   115   ar
   131   114   113   ar
   132    63    60    1
   133    58    57   ar
   134   183   182    1
   135   109   108    1
   136   109   112    1
   137    60    61    1
   138    60    59    1
   139   115   113   ar
   140   113   112    1
   141   176   175    1
   142    61    62    2
   143    54    53   ar
   144   171   173   ar
   145   171   169   ar
   146   178   179    1
   147   178   175    1
   148   180   181    1
   149   180   179    1
   150    57    55   ar
   151   182   181    2
   152   182   184    1
   153   103   105   ar
   154   106   105   ar
   155   106   107    1
   156   173   172   ar
   157   169   168   ar
   158   175   174    1
   159    53    55   ar
   160    53    52    1
   161   172   170   ar
   162    52    49    1
   163   168   170   ar
   164   168   167    1
   165    47    45    1
   166   167   164    1
   167    48    49    1
   168    49    50    1
   169    35    34    1
   170    35    36    1
   171    45    46    1
   172    45    44    2
   173    34    31    1
   174   164   165    1
   175   164   163    1
   176    50    51    2
   177    36    30    1
   178    44    43    1
   179   165   166    2
   180    31    30    1
   181    31    32    1
   182    42    43    1
   183    42    41    1
   184    32    33    2
   185    32    37   am
   186    37    38    1
   187    41    38    1
   188    38    39    1
   189    40    39    2
