@<TRIPOS>MOLECULE
tmp/5maqD01.pdb
 81 77 0 0 0
SMALL
GASTEIGER

@<TRIPOS>ATOM
      1  N         30.5130  -16.7120  -11.4930 N.3    66  ASP66      -0.1225
      2  CA        31.9260  -16.7930  -11.8520 C.3    66  ASP66       0.1805
      3  C         32.0440  -16.7230  -13.4050 C.2    66  ASP66       0.2598
      4  O         31.2310  -17.3500  -14.1140 O.2    66  ASP66      -0.2718
      5  CB        32.5620  -18.0540  -11.2540 C.3    66  ASP66       0.1424
      6  CG        34.0370  -17.8750  -10.9980 C.2    66  ASP66       0.3668
      7  OD1       34.4000  -17.4040   -9.8770 O.co2  66  ASP66      -0.2456
      8  OD2       34.8360  -18.1290  -11.9360 O.co2  66  ASP66      -0.2456
      9  N         32.9760  -15.8650  -13.9080 N.am   67  ALA67      -0.1966
     10  CA        33.2030  -15.5540  -15.3370 C.3    67  ALA67       0.1728
     11  C         32.0460  -14.7210  -15.9400 C.2    67  ALA67       0.2617
     12  O         31.8830  -14.6620  -17.1560 O.2    67  ALA67      -0.2715
     13  CB        33.4570  -16.8200  -16.1470 C.3    67  ALA67       0.0334
     14  N         31.2870  -14.0530  -15.0680 N.am   68  GLY68      -0.1940
     15  CA        30.1560  -13.2080  -15.4290 C.3    68  GLY68       0.2014
     16  C         30.4930  -11.8260  -15.9640 C.2    68  GLY68       0.2639
     17  O         29.5870  -11.1020  -16.3740 O.2    68  GLY68      -0.2714
     18  N         31.7740  -11.4520  -15.9540 N.am   69  GLY69      -0.1939
     19  CA        32.2560  -10.1780  -16.4920 C.3    69  GLY69       0.2014
     20  C         32.5790   -9.0440  -15.5250 C.2    69  GLY69       0.2639
     21  O         32.6360   -7.8930  -15.9620 O.2    69  GLY69      -0.2714
     22  N         32.8180   -9.3440  -14.2090 N.am   70  LYS70      -0.1963
     23  CA        33.1560   -8.3460  -13.1650 C.3    70  LYS70       0.1728
     24  C         34.4610   -7.5980  -13.4680 C.2    70  LYS70       0.2616
     25  O         34.4230   -6.3740  -13.6310 O.2    70  LYS70      -0.2715
     26  CB        33.1680   -8.9650  -11.7630 C.3    70  LYS70       0.0311
     27  CG        31.7880   -9.4400  -11.2590 C.3    70  LYS70       0.0038
     28  CD        31.8470  -10.1310   -9.8810 C.3    70  LYS70       0.0206
     29  CE        32.6430  -11.4240   -9.8420 C.3    70  LYS70       0.1093
     30  NZ        31.9380  -12.5540  -10.5030 N.3    70  LYS70      -0.1314
     31  N         35.5950   -8.3280  -13.6330 N.am   71  ASP71      -0.1957
     32  CA        36.8800   -7.7070  -13.9880 C.3    71  ASP71       0.1840
     33  C         36.8240   -6.9340  -15.3200 C.2    71  ASP71       0.2622
     34  O         37.3110   -5.8030  -15.3910 O.2    71  ASP71      -0.2715
     35  CB        38.0600   -8.6980  -13.9590 C.3    71  ASP71       0.1450
     36  CG        39.4370   -8.0320  -13.7580 C.2    71  ASP71       0.3671
     37  OD1       39.4840   -6.8460  -13.2930 O.co2  71  ASP71      -0.2456
     38  OD2       40.4650   -8.6980  -14.0260 O.co2  71  ASP71      -0.2456
     39  N         36.1820   -7.5320  -16.3280 N.am   72  GLY72      -0.1954
     40  CA        35.9930   -6.9490  -17.6500 C.3    72  GLY72       0.1869
     41  C         35.2530   -5.6250  -17.6440 C.2    72  GLY72       0.2309
     42  O         35.6300   -4.7010  -18.3760 O.2    72  GLY72      -0.2863
     43  N         33.6800   -5.2440   -6.1360 N.3   121  ASN121     -0.1225
     44  CA        33.8300   -6.4470   -6.9670 C.3   121  ASN121      0.1785
     45  C         33.4670   -7.5720   -6.0030 C.2   121  ASN121      0.2597
     46  O         34.2940   -7.9910   -5.1920 O.2   121  ASN121     -0.2718
     47  CB        35.2760   -6.5790   -7.4450 C.3   121  ASN121      0.1169
     48  CG        35.4470   -7.5770   -8.5490 C.2   121  ASN121      0.2627
     49  OD1       34.6410   -8.5090   -8.7100 O.2   121  ASN121     -0.2716
     50  ND2       36.5090   -7.4060   -9.3290 N.am  121  ASN121     -0.0877
     51  N         32.1900   -7.9950   -6.0450 N.am  122  ARG122     -0.1979
     52  CA        31.5000   -8.8580   -5.0790 C.3   122  ARG122      0.1597
     53  C         31.2470   -7.9500   -3.8620 C.2   122  ARG122      0.2287
     54  O         31.8450   -6.8710   -3.7870 O.2   122  ARG122     -0.2864
     55  CB        32.2220  -10.1820   -4.7280 C.3   122  ARG122      0.0334
     56  CG        32.2670  -11.1520   -5.8930 C.3   122  ARG122      0.0492
     57  CD        32.7280  -12.5490   -5.4910 C.3   122  ARG122      0.2205
     58  NE        32.8780  -13.4190   -6.6630 N.pl3 122  ARG122     -0.0865
     59  CZ        31.8860  -14.0680   -7.2710 C.cat 122  ARG122      0.5346
     60  NH1       30.6390  -13.9670   -6.8200 N.pl3 122  ARG122      0.1354
     61  NH2       32.1340  -14.8270   -8.3310 N.pl3 122  ARG122      0.1354
     62  N         39.1640  -19.9530  -20.1420 N.3   182  ARG182     -0.1245
     63  CA        40.0720  -19.6030  -19.0520 C.3   182  ARG182      0.1563
     64  C         41.1320  -20.7170  -18.9000 C.2   182  ARG182      0.2260
     65  O         42.3210  -20.4250  -18.7380 O.2   182  ARG182     -0.2867
     66  CB        39.2620  -19.4300  -17.7620 C.3   182  ARG182      0.0307
     67  CG        40.0810  -19.0710  -16.5230 C.3   182  ARG182      0.0489
     68  CD        39.1930  -18.8480  -15.3140 C.3   182  ARG182      0.2205
     69  NE        38.4500  -17.5940  -15.4420 N.pl3 182  ARG182     -0.0865
     70  CZ        37.4940  -17.1900  -14.6110 C.cat 182  ARG182      0.5346
     71  NH1       37.1290  -17.9530  -13.5850 N.pl3 182  ARG182      0.1354
     72  NH2       36.8840  -16.0260  -14.8090 N.pl3 182  ARG182      0.1354
     73  N         43.5610  -17.8170  -13.0360 N.3   191  LYS191     -0.1245
     74  CA        42.3050  -17.4090  -12.4060 C.3   191  LYS191      0.1561
     75  C         41.5250  -18.6280  -11.8930 C.2   191  LYS191      0.2260
     76  O         40.7870  -18.5090  -10.9050 O.2   191  LYS191     -0.2867
     77  CB        41.4350  -16.5960  -13.3840 C.3   191  LYS191      0.0271
     78  CG        41.7270  -15.1070  -13.3660 C.3   191  LYS191      0.0035
     79  CD        40.6000  -14.3070  -14.0060 C.3   191  LYS191      0.0206
     80  CE        40.9750  -12.8540  -14.1790 C.3   191  LYS191      0.1093
     81  NZ        40.7880  -12.3830  -15.5860 N.3   191  LYS191     -0.1314
@<TRIPOS>BOND
     1    62    63    1
     2    63    64    1
     3    63    66    1
     4    64    65    2
     5    42    41    2
     6    66    67    1
     7    40    41    1
     8    40    39    1
     9    12    11    2
    10    67    68    1
    11    19    18    1
    12    19    20    1
    13    17    16    2
    14    39    33   am
    15    13    10    1
    16    16    18   am
    17    16    15    1
    18    21    20    2
    19    11    10    1
    20    11    14   am
    21    81    80    1
    22    20    22   am
    23    69    68    1
    24    69    70    2
    25    15    14    1
    26    34    33    2
    27    10     9    1
    28    33    32    1
    29    72    70    1
    30    70    71    1
    31    22    23    1
    32    80    79    1
    33     4     3    2
    34    38    36   ar
    35    79    78    1
    36    32    35    1
    37    32    31    1
    38    35    36    1
    39     9     3   am
    40    36    37   ar
    41    31    24   am
    42    25    24    2
    43    24    23    1
    44     3     2    1
    45    77    78    1
    46    77    74    1
    47    23    26    1
    48    73    74    1
    49    74    75    1
    50     8     6   ar
    51    75    76    2
    52     2     1    1
    53     2     5    1
    54    26    27    1
    55    27    28    1
    56     5     6    1
    57     6     7   ar
    58    30    29    1
    59    28    29    1
    60    50    48   am
    61    49    48    2
    62    48    47    1
    63    61    59    1
    64    47    44    1
    65    59    60    1
    66    59    58    2
    67    44    43    1
    68    44    45    1
    69    58    57    1
    70    51    45   am
    71    51    52    1
    72    45    46    2
    73    56    57    1
    74    56    55    1
    75    52    55    1
    76    52    53    1
    77    53    54    2
