@<TRIPOS>MOLECULE
tmp/5maqD00.pdb
 183 171 0 0 0
SMALL
GASTEIGER

@<TRIPOS>ATOM
      1  N         30.5130  -16.7120  -11.4930 N.3    66  ASP66      -0.1239
      2  CA        31.9260  -16.7930  -11.8520 C.3    66  ASP66       0.1674
      3  C         32.0440  -16.7230  -13.4050 C.2    66  ASP66       0.2266
      4  O         31.2310  -17.3500  -14.1140 O.2    66  ASP66      -0.2867
      5  CB        32.5620  -18.0540  -11.2540 C.3    66  ASP66       0.1410
      6  CG        34.0370  -17.8750  -10.9980 C.2    66  ASP66       0.3668
      7  OD1       34.4000  -17.4040   -9.8770 O.co2  66  ASP66      -0.2456
      8  OD2       34.8360  -18.1290  -11.9360 O.co2  66  ASP66      -0.2456
      9  N         32.8180   -9.3440  -14.2090 N.3    70  LYS70      -0.1245
     10  CA        33.1560   -8.3460  -13.1650 C.3    70  LYS70       0.1561
     11  C         34.4610   -7.5980  -13.4680 C.2    70  LYS70       0.2260
     12  O         34.4230   -6.3740  -13.6310 O.2    70  LYS70      -0.2867
     13  CB        33.1680   -8.9650  -11.7630 C.3    70  LYS70       0.0271
     14  CG        31.7880   -9.4400  -11.2590 C.3    70  LYS70       0.0035
     15  CD        31.8470  -10.1310   -9.8810 C.3    70  LYS70       0.0206
     16  CE        32.6430  -11.4240   -9.8420 C.3    70  LYS70       0.1093
     17  NZ        31.9380  -12.5540  -10.5030 N.3    70  LYS70      -0.1314
     18  N         35.7310   -8.3750   -2.4920 N.3    91  PHE91      -0.1227
     19  CA        35.3380   -9.1700   -1.3460 C.3    91  PHE91       0.1736
     20  C         35.4690  -10.6520   -1.6570 C.2    91  PHE91       0.2596
     21  O         34.7790  -11.1800   -2.5270 O.2    91  PHE91      -0.2718
     22  CB        33.9490   -8.7660   -0.8320 C.3    91  PHE91       0.0547
     23  CG        33.9300   -7.3580   -0.3000 C.ar   91  PHE91      -0.0202
     24  CD1       34.4100   -7.0720    0.9840 C.ar   91  PHE91      -0.0042
     25  CD2       33.4540   -6.3110   -1.0800 C.ar   91  PHE91      -0.0042
     26  CE1       34.4130   -5.7630    1.4760 C.ar   91  PHE91      -0.0003
     27  CE2       33.4410   -5.0000   -0.5810 C.ar   91  PHE91      -0.0003
     28  CZ        33.9300   -4.7330    0.6860 C.ar   91  PHE91      -0.0000
     29  N         36.4170  -11.2840   -0.9860 N.am   92  GLY92      -0.1942
     30  CA        36.7090  -12.7070   -1.1060 C.3    92  GLY92       0.2014
     31  C         36.2900  -13.4810    0.1300 C.2    92  GLY92       0.2639
     32  O         35.4700  -13.0100    0.9220 O.2    92  GLY92      -0.2714
     33  N         36.8440  -14.6930    0.2880 N.am   93  VAL93      -0.1963
     34  CA        36.5400  -15.5740    1.4150 C.3    93  VAL93       0.1712
     35  C         36.9360  -14.8720    2.7280 C.2    93  VAL93       0.2458
     36  O         38.0890  -14.4530    2.8920 O.2    93  VAL93      -0.2730
     37  CB        37.1620  -16.9780    1.2060 C.3    93  VAL93       0.0289
     38  CG1       38.3780  -16.8920    0.3030 C.3    93  VAL93       0.0023
     39  CG2       37.4890  -17.6820    2.5200 C.3    93  VAL93       0.0023
     40  N         35.9560  -14.6760    3.6360 N.am   94  PRO94      -0.2727
     41  CA        36.2340  -13.9480    4.8870 C.3    94  PRO94       0.1402
     42  C         37.3490  -14.5330    5.7420 C.2    94  PRO94       0.2269
     43  O         37.4670  -15.7460    5.8460 O.2    94  PRO94      -0.2865
     44  CB        34.8870  -13.9730    5.6200 C.3    94  PRO94       0.0296
     45  CG        33.8800  -14.2040    4.5770 C.3    94  PRO94       0.0237
     46  CD        34.5430  -15.0870    3.5620 C.3    94  PRO94       0.0939
     47  N         33.2750   -5.6480    7.4830 N.3   106  ARG106     -0.1245
     48  CA        34.3320   -5.5640    6.4710 C.3   106  ARG106      0.1563
     49  C         33.9400   -4.7200    5.2850 C.2   106  ARG106      0.2260
     50  O         34.8030   -4.0650    4.7010 O.2   106  ARG106     -0.2867
     51  CB        34.8430   -6.9510    6.0330 C.3   106  ARG106      0.0307
     52  CG        33.8350   -7.8510    5.3430 C.3   106  ARG106      0.0489
     53  CD        34.5130   -9.0870    4.7890 C.3   106  ARG106      0.2205
     54  NE        33.6940   -9.7380    3.7650 N.pl3 106  ARG106     -0.0865
     55  CZ        34.1460  -10.6170    2.8760 C.cat 106  ARG106      0.5346
     56  NH1       35.4230  -10.9630    2.8640 N.pl3 106  ARG106      0.1354
     57  NH2       33.3250  -11.1460    1.9880 N.pl3 106  ARG106      0.1354
     58  N         33.6800   -5.2440   -6.1360 N.3   121  ASN121     -0.1225
     59  CA        33.8300   -6.4470   -6.9670 C.3   121  ASN121      0.1785
     60  C         33.4670   -7.5720   -6.0030 C.2   121  ASN121      0.2597
     61  O         34.2940   -7.9910   -5.1920 O.2   121  ASN121     -0.2718
     62  CB        35.2760   -6.5790   -7.4450 C.3   121  ASN121      0.1169
     63  CG        35.4470   -7.5770   -8.5490 C.2   121  ASN121      0.2627
     64  OD1       34.6410   -8.5090   -8.7100 O.2   121  ASN121     -0.2716
     65  ND2       36.5090   -7.4060   -9.3290 N.am  121  ASN121     -0.0877
     66  N         32.1900   -7.9950   -6.0450 N.am  122  ARG122     -0.1979
     67  CA        31.5000   -8.8580   -5.0790 C.3   122  ARG122      0.1597
     68  C         31.2470   -7.9500   -3.8620 C.2   122  ARG122      0.2287
     69  O         31.8450   -6.8710   -3.7870 O.2   122  ARG122     -0.2864
     70  CB        32.2220  -10.1820   -4.7280 C.3   122  ARG122      0.0334
     71  CG        32.2670  -11.1520   -5.8930 C.3   122  ARG122      0.0492
     72  CD        32.7280  -12.5490   -5.4910 C.3   122  ARG122      0.2205
     73  NE        32.8780  -13.4190   -6.6630 N.pl3 122  ARG122     -0.0865
     74  CZ        31.8860  -14.0680   -7.2710 C.cat 122  ARG122      0.5346
     75  NH1       30.6390  -13.9670   -6.8200 N.pl3 122  ARG122      0.1354
     76  NH2       32.1340  -14.8270   -8.3310 N.pl3 122  ARG122      0.1354
     77  N         27.2080  -11.2620   -1.1270 N.3   126  GLU126     -0.1231
     78  CA        27.8180  -12.5960   -0.9950 C.3   126  GLU126      0.1699
     79  C         27.2760  -13.3560    0.2440 C.2   126  GLU126      0.2592
     80  O         27.1770  -14.5990    0.2350 O.2   126  GLU126     -0.2718
     81  CB        29.3570  -12.4830   -0.8720 C.3   126  GLU126      0.0402
     82  CG        30.0770  -12.2090   -2.1750 C.3   126  GLU126      0.1161
     83  CD        29.7030  -13.1210   -3.3210 C.2   126  GLU126      0.3649
     84  OE1       29.8480  -14.3590   -3.1920 O.co2 126  GLU126     -0.2457
     85  OE2       29.2590  -12.5810   -4.3590 O.co2 126  GLU126     -0.2457
     86  N         26.9030  -12.5790    1.2920 N.am  127  ASP127     -0.1974
     87  CA        26.4080  -13.0910    2.5620 C.3   127  ASP127      0.1709
     88  C         24.9570  -13.5830    2.4810 C.2   127  ASP127      0.2293
     89  O         24.4420  -14.1670    3.4440 O.2   127  ASP127     -0.2864
     90  CB        26.6470  -12.0790    3.6810 C.3   127  ASP127      0.1436
     91  CG        28.1280  -11.9410    3.9770 C.2   127  ASP127      0.3671
     92  OD1       28.7230  -12.9140    4.5000 O.co2 127  ASP127     -0.2456
     93  OD2       28.7010  -10.8630    3.6740 O.co2 127  ASP127     -0.2456
     94  N         26.6160  -17.0390   -1.8140 N.3   130  VAL130     -0.1231
     95  CA        27.4530  -18.2170   -1.5100 C.3   130  VAL130      0.1692
     96  C         27.1120  -18.7720   -0.0990 C.2   130  VAL130      0.2591
     97  O         26.9870  -19.9860    0.0700 O.2   130  VAL130     -0.2718
     98  CB        28.9860  -17.9640   -1.7380 C.3   130  VAL130      0.0266
     99  CG1       29.5090  -16.7760   -0.9180 C.3   130  VAL130      0.0020
    100  CG2       29.8180  -19.2190   -1.4790 C.3   130  VAL130      0.0020
    101  N         26.8840  -17.8760    0.8660 N.am  131  VAL131     -0.1980
    102  CA        26.5130  -18.2100    2.2410 C.3   131  VAL131      0.1595
    103  C         25.1940  -19.0290    2.2660 C.2   131  VAL131      0.2287
    104  O         25.1220  -20.0410    2.9630 O.2   131  VAL131     -0.2864
    105  CB        26.4780  -16.9400    3.1460 C.3   131  VAL131      0.0276
    106  CG1       25.7430  -17.1910    4.4440 C.3   131  VAL131      0.0022
    107  CG2       27.8780  -16.4290    3.4330 C.3   131  VAL131      0.0022
    108  N         25.6850  -22.5920   -0.0220 N.3   134  LYS134     -0.1245
    109  CA        26.5540  -23.5400    0.6770 C.3   134  LYS134      0.1561
    110  C         26.2000  -23.7270    2.1640 C.2   134  LYS134      0.2260
    111  O         26.8580  -24.5150    2.8550 O.2   134  LYS134     -0.2867
    112  CB        28.0270  -23.1440    0.4790 C.3   134  LYS134      0.0271
    113  CG        28.5050  -23.3410   -0.9560 C.3   134  LYS134      0.0035
    114  CD        29.9490  -22.9110   -1.1710 C.3   134  LYS134      0.0206
    115  CE        30.3200  -22.9850   -2.6430 C.3   134  LYS134      0.1093
    116  NZ        31.7100  -22.5220   -2.9020 N.3   134  LYS134     -0.1314
    117  N         26.4910  -21.7790    4.8670 N.3   136  LEU136     -0.1245
    118  CA        27.6320  -21.4120    5.7050 C.3   136  LEU136      0.1561
    119  C         27.1640  -20.9020    7.0590 C.2   136  LEU136      0.2260
    120  O         27.9370  -20.8730    8.0300 O.2   136  LEU136     -0.2867
    121  CB        28.5590  -20.4180    4.9780 C.3   136  LEU136      0.0270
    122  CG        29.0310  -20.8830    3.5920 C.3   136  LEU136      0.0019
    123  CD1       29.8370  -19.8280    2.9050 C.3   136  LEU136      0.0001
    124  CD2       29.7970  -22.1900    3.6770 C.3   136  LEU136      0.0001
    125  N         39.1640  -19.9530  -20.1420 N.3   182  ARG182     -0.1245
    126  CA        40.0720  -19.6030  -19.0520 C.3   182  ARG182      0.1563
    127  C         41.1320  -20.7170  -18.9000 C.2   182  ARG182      0.2260
    128  O         42.3210  -20.4250  -18.7380 O.2   182  ARG182     -0.2867
    129  CB        39.2620  -19.4300  -17.7620 C.3   182  ARG182      0.0307
    130  CG        40.0810  -19.0710  -16.5230 C.3   182  ARG182      0.0489
    131  CD        39.1930  -18.8480  -15.3140 C.3   182  ARG182      0.2205
    132  NE        38.4500  -17.5940  -15.4420 N.pl3 182  ARG182     -0.0865
    133  CZ        37.4940  -17.1900  -14.6110 C.cat 182  ARG182      0.5346
    134  NH1       37.1290  -17.9530  -13.5850 N.pl3 182  ARG182      0.1354
    135  NH2       36.8840  -16.0260  -14.8090 N.pl3 182  ARG182      0.1354
    136  N         43.5610  -17.8170  -13.0360 N.3   191  LYS191     -0.1245
    137  CA        42.3050  -17.4090  -12.4060 C.3   191  LYS191      0.1561
    138  C         41.5250  -18.6280  -11.8930 C.2   191  LYS191      0.2260
    139  O         40.7870  -18.5090  -10.9050 O.2   191  LYS191     -0.2867
    140  CB        41.4350  -16.5960  -13.3840 C.3   191  LYS191      0.0271
    141  CG        41.7270  -15.1070  -13.3660 C.3   191  LYS191      0.0035
    142  CD        40.6000  -14.3070  -14.0060 C.3   191  LYS191      0.0206
    143  CE        40.9750  -12.8540  -14.1790 C.3   191  LYS191      0.1093
    144  NZ        40.7880  -12.3830  -15.5860 N.3   191  LYS191     -0.1314
    145  N         40.3200  -22.0670  -10.1180 N.3   193  ARG193     -0.1245
    146  CA        40.3290  -22.7940   -8.8440 C.3   193  ARG193      0.1563
    147  C         39.4130  -24.0140   -9.0870 C.2   193  ARG193      0.2260
    148  O         38.5600  -23.9420   -9.9780 O.2   193  ARG193     -0.2867
    149  CB        39.7870  -21.9190   -7.6860 C.3   193  ARG193      0.0307
    150  CG        40.6800  -21.8870   -6.4180 C.3   193  ARG193      0.0489
    151  CD        41.8740  -20.9450   -6.5490 C.3   193  ARG193      0.2205
    152  NE        42.7020  -20.8740   -5.3380 N.pl3 193  ARG193     -0.0865
    153  CZ        43.8990  -21.4450   -5.2010 C.cat 193  ARG193      0.5346
    154  NH1       44.4210  -22.1600   -6.1930 N.pl3 193  ARG193      0.1354
    155  NH2       44.5800  -21.3080   -4.0700 N.pl3 193  ARG193      0.1354
    156  N         35.3790  -23.7470   -9.0590 N.3   196  ASP196     -0.1239
    157  CA        34.6790  -23.1850  -10.2330 C.3   196  ASP196      0.1674
    158  C         33.6910  -24.2220  -10.8310 C.2   196  ASP196      0.2266
    159  O         32.6530  -23.8460  -11.3810 O.2   196  ASP196     -0.2867
    160  CB        35.6930  -22.7250  -11.3180 C.3   196  ASP196      0.1410
    161  CG        36.4760  -21.4250  -11.0820 C.2   196  ASP196      0.3668
    162  OD1       36.6040  -21.0010   -9.9050 O.co2 196  ASP196     -0.2456
    163  OD2       37.0090  -20.8630  -12.0710 O.co2 196  ASP196     -0.2456
    164  N         30.6910  -24.4340   -8.1690 N.3   199  ASP199     -0.1239
    165  CA        29.8380  -23.2500   -8.3730 C.3   199  ASP199      0.1674
    166  C         29.1220  -23.2940   -9.7510 C.2   199  ASP199      0.2266
    167  O         28.2560  -22.4560  -10.0310 O.2   199  ASP199     -0.2867
    168  CB        30.6260  -21.9370   -8.1450 C.3   199  ASP199      0.1410
    169  CG        31.2060  -21.7970   -6.7430 C.2   199  ASP199      0.3668
    170  OD1       30.4500  -21.9930   -5.7620 O.co2 199  ASP199     -0.2456
    171  OD2       32.4070  -21.4620   -6.6270 O.co2 199  ASP199     -0.2456
    172  N         22.1350  -21.0340   -7.2320 N.3   206  TYR206     -0.1241
    173  CA        22.7190  -19.6920   -7.2970 C.3   206  TYR206      0.1605
    174  C         21.7690  -18.7040   -7.9790 C.2   206  TYR206      0.2264
    175  O         21.6850  -17.5450   -7.5690 O.2   206  TYR206     -0.2867
    176  CB        24.0560  -19.7230   -8.0540 C.3   206  TYR206      0.0534
    177  CG        25.2530  -19.8090   -7.1410 C.ar  206  TYR206     -0.0201
    178  CD1       25.6940  -18.6920   -6.4250 C.ar  206  TYR206     -0.0009
    179  CD2       25.9500  -21.0050   -6.9820 C.ar  206  TYR206     -0.0009
    180  CE1       26.8000  -18.7650   -5.5690 C.ar  206  TYR206      0.0417
    181  CE2       27.0560  -21.0920   -6.1270 C.ar  206  TYR206      0.0417
    182  CZ        27.4770  -19.9690   -5.4170 C.ar  206  TYR206      0.1957
    183  OH        28.5770  -20.0370   -4.5840 O.3   206  TYR206     -0.2866
@<TRIPOS>BOND
     1   125   126    1
     2   126   127    1
     3   126   129    1
     4   127   128    2
     5   129   130    1
     6   130   131    1
     7   144   143    1
     8   132   131    1
     9   132   133    2
    10   135   133    1
    11   133   134    1
    12     9    10    1
    13   143   142    1
    14     4     3    2
    15   142   141    1
    16    12    11    2
    17    11    10    1
    18     3     2    1
    19   140   141    1
    20   140   137    1
    21    10    13    1
    22   136   137    1
    23   137   138    1
    24   163   161   ar
    25     8     6   ar
    26   138   139    2
    27     2     1    1
    28     2     5    1
    29    13    14    1
    30   159   158    2
    31   160   161    1
    32   160   157    1
    33    14    15    1
    34     5     6    1
    35   161   162   ar
    36     6     7   ar
    37   158   157    1
    38    17    16    1
    39   157   156    1
    40   145   146    1
    41   167   166    2
    42   148   147    2
    43    15    16    1
    44   166   165    1
    45    65    63   am
    46   147   146    1
    47   146   149    1
    48    64    63    2
    49    63    62    1
    50   165   164    1
    51   165   168    1
    52    76    74    1
    53   168   169    1
    54   176   173    1
    55   176   177    1
    56   174   175    2
    57   174   173    1
    58   149   150    1
    59    62    59    1
    60   173   172    1
    61    74    75    1
    62    74    73    2
    63   177   179   ar
    64   177   178   ar
    65   179   181   ar
    66    59    58    1
    67    59    60    1
    68   169   171   ar
    69   169   170   ar
    70    73    72    1
    71   151   150    1
    72   151   152    1
    73   178   180   ar
    74   154   153    1
    75   181   182   ar
    76    66    60   am
    77    66    67    1
    78    60    61    2
    79    71    72    1
    80    71    70    1
    81   180   182   ar
    82   182   183    1
    83   152   153    2
    84   153   155    1
    85    67    70    1
    86    67    68    1
    87    85    83   ar
    88    68    69    2
    89    83    84   ar
    90    83    82    1
    91   116   115    1
    92   115   114    1
    93    21    20    2
    94    18    19    1
    95    82    81    1
    96    94    95    1
    97    98    95    1
    98    98   100    1
    99    98    99    1
   100    20    19    1
   101    20    29   am
   102    95    96    1
   103    19    22    1
   104   114   113    1
   105    77    78    1
   106    30    29    1
   107    30    31    1
   108    25    27   ar
   109    25    23   ar
   110    78    81    1
   111    78    79    1
   112   113   112    1
   113    22    23    1
   114    27    28   ar
   115    23    24   ar
   116    96    97    2
   117    96   101   am
   118   108   109    1
   119    31    33   am
   120    31    32    2
   121    80    79    2
   122    79    86   am
   123    33    34    1
   124    38    37    1
   125   112   109    1
   126   109   110    1
   127    28    26   ar
   128   101   102    1
   129    24    26   ar
   130    37    34    1
   131    37    39    1
   132    86    87    1
   133    34    35    1
   134    57    55    1
   135   110   111    2
   136   102   103    1
   137   102   105    1
   138   103   104    2
   139    88    87    1
   140    88    89    2
   141    87    90    1
   142    35    36    2
   143    35    40   am
   144    56    55    1
   145    55    54    2
   146   123   122    1
   147   105   107    1
   148   105   106    1
   149    46    40    1
   150    46    45    1
   151   122   124    1
   152   122   121    1
   153    40    41    1
   154    93    91   ar
   155    90    91    1
   156    54    53    1
   157    91    92   ar
   158    45    44    1
   159    50    49    2
   160    53    52    1
   161   117   118    1
   162    41    44    1
   163    41    42    1
   164   121   118    1
   165    49    48    1
   166    52    51    1
   167   118   119    1
   168    42    43    2
   169    51    48    1
   170    48    47    1
   171   119   120    2
