@<TRIPOS>MOLECULE
tmp/5marB01.pdb
 161 157 0 0 0
SMALL
GASTEIGER

@<TRIPOS>ATOM
      1  N          8.8040  -35.5560  -38.3550 N.3    40  ILE40      -0.1231
      2  CA         9.4700  -34.9490  -37.2240 C.3    40  ILE40       0.1678
      3  C          8.9730  -35.6300  -35.9540 C.2    40  ILE40       0.2434
      4  O          7.7500  -35.5980  -35.7000 O.2    40  ILE40      -0.2733
      5  CB         9.2370  -33.4340  -37.1640 C.3    40  ILE40       0.0265
      6  CG1        9.6060  -32.7830  -38.5040 C.3    40  ILE40       0.0019
      7  CG2       10.0400  -32.8060  -36.0210 C.3    40  ILE40       0.0020
      8  CD1        9.3360  -31.2870  -38.5710 C.3    40  ILE40       0.0001
      9  N          9.8260  -36.2320  -35.1400 N.am   41  PRO41      -0.2729
     10  CA         9.3450  -36.8820  -33.9210 C.3    41  PRO41       0.1401
     11  C          8.7800  -35.8610  -32.9490 C.2    41  PRO41       0.2269
     12  O          9.1890  -34.6990  -32.9350 O.2    41  PRO41      -0.2865
     13  CB        10.6000  -37.5530  -33.3560 C.3    41  PRO41       0.0296
     14  CG        11.7120  -36.6560  -33.8030 C.3    41  PRO41       0.0237
     15  CD        11.3050  -36.1730  -35.1790 C.3    41  PRO41       0.0939
     16  N          7.9550  -35.1940  -28.6720 N.3    43  PHE43      -0.1241
     17  CA         8.8320  -35.2750  -27.5130 C.3    43  PHE43       0.1605
     18  C          8.4880  -36.4210  -26.5720 C.2    43  PHE43       0.2264
     19  O          9.3900  -37.1500  -26.1470 O.2    43  PHE43      -0.2867
     20  CB         8.8020  -33.9480  -26.7440 C.3    43  PHE43       0.0534
     21  CG         9.3830  -32.8030  -27.5160 C.ar   43  PHE43      -0.0203
     22  CD1       10.7410  -32.5450  -27.4760 C.ar   43  PHE43      -0.0042
     23  CD2        8.5740  -32.0000  -28.3050 C.ar   43  PHE43      -0.0042
     24  CE1       11.2840  -31.4980  -28.2010 C.ar   43  PHE43      -0.0003
     25  CE2        9.1060  -30.9540  -29.0300 C.ar   43  PHE43      -0.0003
     26  CZ        10.4640  -30.7010  -28.9810 C.ar   43  PHE43      -0.0000
     27  N         11.1400  -37.9630  -28.8260 N.3    50  LEU50      -0.1245
     28  CA        12.5450  -37.5950  -28.7130 C.3    50  LEU50       0.1561
     29  C         13.1040  -37.9540  -27.3410 C.2    50  LEU50       0.2260
     30  O         14.2210  -38.4760  -27.2330 O.2    50  LEU50      -0.2867
     31  CB        12.7120  -36.1020  -28.9890 C.3    50  LEU50       0.0270
     32  CG        14.1510  -35.5960  -29.0380 C.3    50  LEU50       0.0019
     33  CD1       14.9130  -36.2630  -30.1760 C.3    50  LEU50       0.0001
     34  CD2       14.1790  -34.0880  -29.1840 C.3    50  LEU50       0.0001
     35  N         17.4840  -29.5000  -23.2590 N.3    66  PHE66      -0.1241
     36  CA        16.8320  -28.2260  -23.5400 C.3    66  PHE66       0.1605
     37  C         16.6970  -27.3620  -22.2880 C.2    66  PHE66       0.2264
     38  O         15.8410  -26.4760  -22.2440 O.2    66  PHE66      -0.2867
     39  CB        15.4510  -28.4500  -24.1630 C.3    66  PHE66       0.0534
     40  CG        15.4740  -29.2870  -25.4070 C.ar   66  PHE66      -0.0203
     41  CD1       16.2630  -28.9270  -26.4870 C.ar   66  PHE66      -0.0042
     42  CD2       14.6910  -30.4280  -25.5030 C.ar   66  PHE66      -0.0042
     43  CE1       16.2820  -29.6960  -27.6360 C.ar   66  PHE66      -0.0003
     44  CE2       14.7040  -31.1980  -26.6490 C.ar   66  PHE66      -0.0003
     45  CZ        15.5000  -30.8330  -27.7160 C.ar   66  PHE66      -0.0000
     46  N         23.2550  -30.6300  -27.1990 N.3    78  PHE78      -0.1241
     47  CA        22.2290  -29.9110  -27.9470 C.3    78  PHE78       0.1605
     48  C         22.6630  -29.6810  -29.3870 C.2    78  PHE78       0.2264
     49  O         21.9010  -29.9330  -30.3280 O.2    78  PHE78      -0.2867
     50  CB        21.9110  -28.5730  -27.2840 C.3    78  PHE78       0.0534
     51  CG        21.0590  -27.6850  -28.1380 C.ar   78  PHE78      -0.0203
     52  CD1       19.6840  -27.8420  -28.1600 C.ar   78  PHE78      -0.0042
     53  CD2       21.6340  -26.7210  -28.9500 C.ar   78  PHE78      -0.0042
     54  CE1       18.8940  -27.0420  -28.9610 C.ar   78  PHE78      -0.0003
     55  CE2       20.8490  -25.9160  -29.7500 C.ar   78  PHE78      -0.0003
     56  CZ        19.4770  -26.0780  -29.7570 C.ar   78  PHE78      -0.0000
     57  N         22.5850  -32.6800  -31.4150 N.3    81  LEU81      -0.1231
     58  CA        21.2140  -33.0370  -31.7540 C.3    81  LEU81       0.1693
     59  C         20.6770  -32.1610  -32.8780 C.2    81  LEU81       0.2591
     60  O         19.9910  -32.6530  -33.7820 O.2    81  LEU81      -0.2718
     61  CB        20.3260  -32.9150  -30.5170 C.3    81  LEU81       0.0284
     62  CG        18.8380  -33.1920  -30.7490 C.3    81  LEU81       0.0019
     63  CD1       18.6190  -34.6110  -31.2630 C.3    81  LEU81       0.0001
     64  CD2       18.0430  -32.9510  -29.4760 C.3    81  LEU81       0.0001
     65  N         20.9750  -30.8610  -32.8340 N.am   82  ALA82      -0.1980
     66  CA        20.4290  -29.9390  -33.8230 C.3    82  ALA82       0.1597
     67  C         20.8500  -30.3230  -35.2360 C.2    82  ALA82       0.2287
     68  O         20.0790  -30.1510  -36.1860 O.2    82  ALA82      -0.2864
     69  CB        20.8650  -28.5100  -33.5070 C.3    82  ALA82       0.0319
     70  N         21.2700  -33.2870  -36.3540 N.3    84  GLU84      -0.1231
     71  CA        20.5070  -34.4500  -36.7940 C.3    84  GLU84       0.1699
     72  C         19.1810  -34.0520  -37.4380 C.2    84  GLU84       0.2592
     73  O         18.7040  -34.7480  -38.3400 O.2    84  GLU84      -0.2718
     74  CB        20.2700  -35.4050  -35.6210 C.3    84  GLU84       0.0402
     75  CG        21.5280  -36.1400  -35.1550 C.3    84  GLU84       0.1161
     76  CD        21.2130  -37.3170  -34.2490 C.2    84  GLU84       0.3649
     77  OE1       20.0820  -37.3840  -33.7260 O.co2  84  GLU84      -0.2457
     78  OE2       22.0990  -38.1800  -34.0670 O.co2  84  GLU84      -0.2457
     79  N         18.5680  -32.9480  -36.9980 N.am   85  LEU85      -0.1980
     80  CA        17.3030  -32.5170  -37.5920 C.3    85  LEU85       0.1596
     81  C         17.5210  -31.6880  -38.8540 C.2    85  LEU85       0.2287
     82  O         16.8450  -31.8990  -39.8670 O.2    85  LEU85      -0.2864
     83  CB        16.4850  -31.7060  -36.5800 C.3    85  LEU85       0.0297
     84  CG        15.3900  -30.8130  -37.1830 C.3    85  LEU85       0.0022
     85  CD1       14.0560  -30.9620  -36.4770 C.3    85  LEU85       0.0001
     86  CD2       15.8230  -29.3500  -37.1780 C.3    85  LEU85       0.0001
     87  N          3.9690  -24.3250  -30.1510 N.3   114  GLN114     -0.1245
     88  CA         5.1330  -24.7190  -29.3740 C.3   114  GLN114      0.1566
     89  C          6.2720  -25.2460  -30.2400 C.2   114  GLN114      0.2260
     90  O          7.3700  -25.4730  -29.7190 O.2   114  GLN114     -0.2867
     91  CB         4.7260  -25.7890  -28.3550 C.3   114  GLN114      0.0367
     92  CG         3.7300  -25.2910  -27.3090 C.3   114  GLN114      0.0905
     93  CD         3.0420  -26.4190  -26.5660 C.2   114  GLN114      0.2608
     94  OE1        3.3270  -26.6730  -25.3940 O.2   114  GLN114     -0.2717
     95  NE2        2.1200  -27.0980  -27.2440 N.am  114  GLN114     -0.0878
     96  N          9.2040  -25.4730  -33.3250 N.3   116  ILE116     -0.1245
     97  CA        10.2530  -24.6470  -33.9020 C.3   116  ILE116      0.1561
     98  C         10.6110  -25.0780  -35.3180 C.2   116  ILE116      0.2260
     99  O         11.6180  -24.6250  -35.8630 O.2   116  ILE116     -0.2867
    100  CB        11.5060  -24.6400  -33.0040 C.3   116  ILE116      0.0252
    101  CG1       12.0130  -26.0660  -32.7720 C.3   116  ILE116      0.0019
    102  CG2       11.1870  -23.9730  -31.6780 C.3   116  ILE116      0.0019
    103  CD1       13.3970  -26.1230  -32.1670 C.3   116  ILE116      0.0001
    104  N          7.7020  -20.8840  -28.2990 N.3   134  HIS134     -0.1241
    105  CA         8.9540  -21.4410  -27.8060 C.3   134  HIS134      0.1621
    106  C         10.1380  -21.0510  -28.6850 C.2   134  HIS134      0.2264
    107  O         11.1640  -21.7390  -28.6890 O.2   134  HIS134     -0.2867
    108  CB         8.8310  -22.9610  -27.6750 C.3   134  HIS134      0.0745
    109  CG         7.8880  -23.3880  -26.5890 C.ar  134  HIS134      0.0817
    110  ND1        7.4830  -24.6950  -26.4200 N.ar  134  HIS134     -0.2268
    111  CD2        7.2710  -22.6760  -25.6150 C.ar  134  HIS134      0.1154
    112  CE1        6.6630  -24.7710  -25.3870 C.ar  134  HIS134      0.1986
    113  NE2        6.5160  -23.5600  -24.8810 N.ar  134  HIS134     -0.2212
    114  N         14.6090  -21.1840  -34.6050 N.3   137  PHE137     -0.1241
    115  CA        15.9830  -21.3990  -35.0450 C.3   137  PHE137      0.1605
    116  C         16.4950  -20.2750  -35.9360 C.2   137  PHE137      0.2264
    117  O         17.7120  -20.1310  -36.0960 O.2   137  PHE137     -0.2867
    118  CB        16.0900  -22.7050  -35.8400 C.3   137  PHE137      0.0534
    119  CG        16.6690  -23.8590  -35.0720 C.ar  137  PHE137     -0.0203
    120  CD1       17.9560  -23.8030  -34.5600 C.ar  137  PHE137     -0.0042
    121  CD2       15.9400  -25.0270  -34.9130 C.ar  137  PHE137     -0.0042
    122  CE1       18.4930  -24.8830  -33.8720 C.ar  137  PHE137     -0.0003
    123  CE2       16.4700  -26.1080  -34.2280 C.ar  137  PHE137     -0.0003
    124  CZ        17.7480  -26.0360  -33.7080 C.ar  137  PHE137     -0.0000
    125  N         15.6120  -20.2250  -29.5210 N.3   179  ILE179     -0.1231
    126  CA        14.5960  -21.1350  -29.0120 C.3   179  ILE179      0.1692
    127  C         14.5730  -21.0140  -27.4970 C.2   179  ILE179      0.2592
    128  O         15.5910  -20.7390  -26.8530 O.2   179  ILE179     -0.2718
    129  CB        14.8450  -22.5890  -29.4640 C.3   179  ILE179      0.0266
    130  CG1       16.1250  -23.1360  -28.8290 C.3   179  ILE179      0.0019
    131  CG2       14.8890  -22.6610  -30.9880 C.3   179  ILE179      0.0020
    132  CD1       16.4700  -24.5510  -29.2380 C.3   179  ILE179      0.0001
    133  N         13.3900  -21.2150  -26.9240 N.am  180  VAL180     -0.1966
    134  CA        13.1830  -21.0730  -25.4860 C.3   180  VAL180      0.1727
    135  C         13.6050  -22.3750  -24.8110 C.2   180  VAL180      0.2616
    136  O         12.9840  -23.4200  -25.0130 O.2   180  VAL180     -0.2715
    137  CB        11.7260  -20.7230  -25.1560 C.3   180  VAL180      0.0290
    138  CG1       11.5280  -20.5820  -23.6510 C.3   180  VAL180      0.0023
    139  CG2       11.3140  -19.4320  -25.8550 C.3   180  VAL180      0.0023
    140  N         14.6790  -22.3190  -24.0260 N.am  181  PHE181     -0.1960
    141  CA        15.0690  -23.4440  -23.1920 C.3   181  PHE181      0.1771
    142  C         14.2580  -23.4240  -21.9000 C.2   181  PHE181      0.2619
    143  O         13.7370  -22.3870  -21.4860 O.2   181  PHE181     -0.2715
    144  CB        16.5630  -23.3910  -22.8570 C.3   181  PHE181      0.0574
    145  CG        17.4700  -23.8120  -23.9860 C.ar  181  PHE181     -0.0200
    146  CD1       17.4640  -23.1350  -25.1920 C.ar  181  PHE181     -0.0042
    147  CD2       18.3560  -24.8630  -23.8210 C.ar  181  PHE181     -0.0042
    148  CE1       18.3110  -23.5200  -26.2240 C.ar  181  PHE181     -0.0003
    149  CE2       19.2030  -25.2500  -24.8450 C.ar  181  PHE181     -0.0003
    150  CZ        19.1820  -24.5800  -26.0450 C.ar  181  PHE181     -0.0000
    151  N         14.1410  -24.5890  -21.2650 N.am  182  PHE182     -0.1974
    152  CA        13.6030  -24.6290  -19.9110 C.3   182  PHE182      0.1639
    153  C         14.3910  -23.6710  -19.0280 C.2   182  PHE182      0.2290
    154  O         15.6270  -23.6930  -19.0180 O.2   182  PHE182     -0.2864
    155  CB        13.6770  -26.0450  -19.3310 C.3   182  PHE182      0.0560
    156  CG        12.6400  -26.9930  -19.8760 C.ar  182  PHE182     -0.0200
    157  CD1       11.3150  -26.9020  -19.4730 C.ar  182  PHE182     -0.0042
    158  CD2       12.9970  -27.9920  -20.7610 C.ar  182  PHE182     -0.0042
    159  CE1       10.3600  -27.7820  -19.9650 C.ar  182  PHE182     -0.0003
    160  CE2       12.0470  -28.8790  -21.2590 C.ar  182  PHE182     -0.0003
    161  CZ        10.7290  -28.7720  -20.8590 C.ar  182  PHE182     -0.0000
@<TRIPOS>BOND
     1    82    81    2
     2    81    80    1
     3     8     6    1
     4     6     5    1
     5     1     2    1
     6    73    72    2
     7    80    79    1
     8    80    83    1
     9    72    79   am
    10    72    71    1
    11     2     5    1
    12     2     3    1
    13    84    86    1
    14    84    83    1
    15    84    85    1
    16     5     7    1
    17    71    70    1
    18    71    74    1
    19    68    67    2
    20   117   116    2
    21     3     4    2
    22     3     9   am
    23   116   115    1
    24    99    98    2
    25   118   119    1
    26   118   115    1
    27    74    75    1
    28    98    97    1
    29    67    66    1
    30    15     9    1
    31    15    14    1
    32    75    76    1
    33     9    10    1
    34   119   121   ar
    35   119   120   ar
    36   115   114    1
    37   121   123   ar
    38   120   122   ar
    39    76    78   ar
    40    76    77   ar
    41   123   124   ar
    42    10    13    1
    43    10    11    1
    44    97    96    1
    45    97   100    1
    46   122   124   ar
    47    66    69    1
    48    66    65    1
    49    14    13    1
    50    60    59    2
    51   100   101    1
    52   100   102    1
    53    11    12    2
    54    59    65   am
    55    59    58    1
    56   101   103    1
    57    58    57    1
    58    58    61    1
    59    63    62    1
    60   131   129    1
    61    62    61    1
    62    62    64    1
    63    49    48    2
    64    89    90    2
    65    89    88    1
    66    33    32    1
    67    87    88    1
    68    56    55   ar
    69    56    54   ar
    70    55    53   ar
    71   125   126    1
    72   129   126    1
    73   129   130    1
    74    48    47    1
    75    88    91    1
    76   132   130    1
    77    34    32    1
    78    32    31    1
    79    25    26   ar
    80    25    23   ar
    81   126   127    1
    82    31    28    1
    83    26    24   ar
    84    54    52   ar
    85    53    51   ar
    86    27    28    1
    87    28    29    1
    88   107   106    2
    89   106   105    1
    90    16    17    1
    91    91    92    1
    92    23    21   ar
    93   104   105    1
    94    24    22   ar
    95    52    51   ar
    96    51    50    1
    97    47    50    1
    98    47    46    1
    99   105   108    1
   100    45    43   ar
   101    45    44   ar
   102   108   109    1
   103    43    41   ar
   104    21    22   ar
   105    21    20    1
   106    17    20    1
   107    17    18    1
   108   127   133   am
   109   127   128    2
   110    29    30    2
   111    92    93    1
   112    95    93   am
   113   133   134    1
   114    44    42   ar
   115   109   110   ar
   116   109   111   ar
   117    18    19    2
   118    93    94    2
   119    41    40   ar
   120   110   112   ar
   121   148   150   ar
   122   148   146   ar
   123   150   149   ar
   124   139   137    1
   125   111   113   ar
   126    42    40   ar
   127   134   137    1
   128   134   135    1
   129    40    39    1
   130   112   113   ar
   131   146   145   ar
   132   137   138    1
   133   136   135    2
   134   149   147   ar
   135   135   140   am
   136    39    36    1
   137   140   141    1
   138   145   147   ar
   139   145   144    1
   140    36    35    1
   141    36    37    1
   142   141   144    1
   143   141   142    1
   144    37    38    2
   145   142   143    2
   146   142   151   am
   147   151   152    1
   148   160   161   ar
   149   160   158   ar
   150   161   159   ar
   151   158   156   ar
   152   159   157   ar
   153   152   155    1
   154   152   153    1
   155   156   157   ar
   156   156   155    1
   157   153   154    2
