@<TRIPOS>MOLECULE
tmp/5matA00.pdb
 256 253 0 0 0
SMALL
GASTEIGER

@<TRIPOS>ATOM
      1  N        -14.7680   11.8180   15.1250 N.3    39  ILE39      -0.1231
      2  CA       -13.7510   11.2690   14.2160 C.3    39  ILE39       0.1678
      3  C        -13.8760   12.0150   12.8850 C.2    39  ILE39       0.2434
      4  O        -14.9440   11.9720   12.2620 O.2    39  ILE39      -0.2733
      5  CB       -13.9400    9.7630   14.0170 C.3    39  ILE39       0.0265
      6  CG1      -13.9580    9.0330   15.3630 C.3    39  ILE39       0.0019
      7  CG2      -12.8490    9.2020   13.1150 C.3    39  ILE39       0.0020
      8  CD1      -12.7240    9.2190   16.1980 C.3    39  ILE39       0.0001
      9  N        -12.8160   12.6790   12.4180 N.am   40  PRO40      -0.2729
     10  CA       -12.9490   13.5080   11.2140 C.3    40  PRO40       0.1401
     11  C        -13.1300   12.6670    9.9640 C.2    40  PRO40       0.2269
     12  O        -12.6120   11.5550    9.8530 O.2    40  PRO40      -0.2865
     13  CB       -11.6250   14.2850   11.1710 C.3    40  PRO40       0.0296
     14  CG       -10.6620   13.4710   11.9550 C.3    40  PRO40       0.0237
     15  CD       -11.4070   12.4370   12.7560 C.3    40  PRO40       0.0939
     16  N        -12.1080   12.4740    6.2870 N.3    42  PHE42      -0.1227
     17  CA       -11.0920   13.0370    5.4050 C.3    42  PHE42       0.1736
     18  C        -11.6350   13.3580    4.0190 C.2    42  PHE42       0.2595
     19  O        -11.0650   14.2090    3.3280 O.2    42  PHE42      -0.2718
     20  CB        -9.9080   12.0820    5.3030 C.3    42  PHE42       0.0547
     21  CG        -8.9390   12.2100    6.4340 C.ar   42  PHE42      -0.0202
     22  CD1       -9.2360   11.6910    7.6810 C.ar   42  PHE42      -0.0042
     23  CD2       -7.7340   12.8610    6.2560 C.ar   42  PHE42      -0.0042
     24  CE1       -8.3490   11.8060    8.7210 C.ar   42  PHE42      -0.0003
     25  CE2       -6.8440   12.9800    7.2970 C.ar   42  PHE42      -0.0003
     26  CZ        -7.1540   12.4550    8.5300 C.ar   42  PHE42      -0.0000
     27  N        -12.7180   12.7040    3.5980 N.am   43  ARG43      -0.1980
     28  CA       -13.3270   13.0320    2.3130 C.3    43  ARG43       0.1597
     29  C        -13.9410   14.4260    2.3380 C.2    43  ARG43       0.2287
     30  O        -13.9320   15.1330    1.3250 O.2    43  ARG43      -0.2864
     31  CB       -14.3840   11.9860    1.9550 C.3    43  ARG43       0.0334
     32  CG       -13.8470   10.5570    1.8440 C.3    43  ARG43       0.0492
     33  CD       -13.0490   10.3420    0.5730 C.3    43  ARG43       0.2205
     34  NE       -13.8830   10.4280   -0.6240 N.pl3  43  ARG43      -0.0865
     35  CZ       -13.4220   10.3000   -1.8660 C.cat  43  ARG43       0.5346
     36  NH1      -12.1320   10.0780   -2.0800 N.pl3  43  ARG43       0.1354
     37  NH2      -14.2510   10.3980   -2.8960 N.pl3  43  ARG43       0.1354
     38  N         -4.8400   19.2540    7.6970 N.3    48  TYR48      -0.1241
     39  CA        -3.4080   19.1440    7.4390 C.3    48  TYR48       0.1605
     40  C         -2.6340   20.4130    7.7770 C.2    48  TYR48       0.2264
     41  O         -1.4230   20.4670    7.5350 O.2    48  TYR48      -0.2867
     42  CB        -3.1610   18.7920    5.9690 C.3    48  TYR48       0.0534
     43  CG        -3.8220   17.5160    5.4730 C.ar   48  TYR48      -0.0201
     44  CD1       -3.1670   16.2940    5.5510 C.ar   48  TYR48      -0.0009
     45  CD2       -5.0930   17.5410    4.8960 C.ar   48  TYR48      -0.0009
     46  CE1       -3.7640   15.1240    5.0800 C.ar   48  TYR48       0.0417
     47  CE2       -5.6930   16.3790    4.4260 C.ar   48  TYR48       0.0417
     48  CZ        -5.0240   15.1740    4.5230 C.ar   48  TYR48       0.1957
     49  OH        -5.6020   14.0130    4.0580 O.3    48  TYR48      -0.2866
     50  N         -2.2230   14.1510    0.9600 N.3    60  GLU60      -0.1245
     51  CA        -2.4400   12.7240    1.1530 C.3    60  GLU60       0.1567
     52  C         -1.1640   11.9000    1.0100 C.2    60  GLU60       0.2260
     53  O         -1.2160   10.6740    1.1820 O.2    60  GLU60      -0.2867
     54  CB        -3.4950   12.2300    0.1580 C.3    60  GLU60       0.0388
     55  CG        -4.8770   12.8980    0.2950 C.3    60  GLU60       0.1160
     56  CD        -4.9560   14.2720   -0.3690 C.2    60  GLU60       0.3649
     57  OE1       -5.9360   15.0020   -0.0990 O.co2  60  GLU60      -0.2457
     58  OE2       -4.0450   14.6240   -1.1570 O.co2  60  GLU60      -0.2457
     59  N         -0.2190    9.2590    3.6190 N.3    63  PHE63      -0.1241
     60  CA        -0.8970    7.9660    3.6340 C.3    63  PHE63       0.1605
     61  C         -0.4890    7.0680    2.4740 C.2    63  PHE63       0.2264
     62  O         -1.1020    6.0120    2.2760 O.2    63  PHE63      -0.2867
     63  CB        -2.4140    8.1670    3.6090 C.3    63  PHE63       0.0534
     64  CG        -2.9160    9.0660    4.7020 C.ar   63  PHE63      -0.0203
     65  CD1       -2.7670    8.7080    6.0290 C.ar   63  PHE63      -0.0042
     66  CD2       -3.5230   10.2750    4.4030 C.ar   63  PHE63      -0.0042
     67  CE1       -3.2190    9.5330    7.0330 C.ar   63  PHE63      -0.0003
     68  CE2       -3.9760   11.1010    5.4140 C.ar   63  PHE63      -0.0003
     69  CZ        -3.8220   10.7270    6.7240 C.ar   63  PHE63      -0.0000
     70  N          2.8630   11.5130    9.1930 N.3    75  PHE75      -0.1241
     71  CA         1.6970   10.7030    9.5260 C.3    75  PHE75       0.1605
     72  C          1.5020   10.6180   11.0370 C.2    75  PHE75       0.2264
     73  O          0.3770   10.7530   11.5390 O.2    75  PHE75      -0.2867
     74  CB         1.8180    9.3000    8.9400 C.3    75  PHE75       0.0534
     75  CG         0.8520    8.3290    9.5490 C.ar   75  PHE75      -0.0203
     76  CD1       -0.4410    8.2230    9.0650 C.ar   75  PHE75      -0.0042
     77  CD2        1.2210    7.5470   10.6320 C.ar   75  PHE75      -0.0042
     78  CE1       -1.3450    7.3410    9.6380 C.ar   75  PHE75      -0.0003
     79  CE2        0.3140    6.6710   11.2150 C.ar   75  PHE75      -0.0003
     80  CZ        -0.9680    6.5710   10.7120 C.ar   75  PHE75      -0.0000
     81  N          0.2170   13.8180   12.6290 N.3    78  LEU78      -0.1231
     82  CA        -1.2090   14.0440   12.4560 C.3    78  LEU78       0.1693
     83  C         -2.0180   13.1050   13.3370 C.2    78  LEU78       0.2591
     84  O         -3.0430   13.5050   13.8950 O.2    78  LEU78      -0.2718
     85  CB        -1.5990   13.8770   10.9900 C.3    78  LEU78       0.0284
     86  CG        -3.0610   14.2180   10.6790 C.3    78  LEU78       0.0019
     87  CD1       -3.3630   15.6920   10.9130 C.3    78  LEU78       0.0001
     88  CD2       -3.4100   13.8220    9.2510 C.3    78  LEU78       0.0001
     89  N         -1.5700   11.8580   13.4830 N.am   79  ALA79      -0.1980
     90  CA        -2.3060   10.9090   14.3090 C.3    79  ALA79       0.1597
     91  C         -2.3620   11.3810   15.7580 C.2    79  ALA79       0.2287
     92  O         -3.4170   11.3190   16.4030 O.2    79  ALA79      -0.2864
     93  CB        -1.6720    9.5230   14.2100 C.3    79  ALA79       0.0319
     94  N         -4.8830   14.1010   16.0470 N.3    82  LEU82      -0.1231
     95  CA        -6.2700   13.6930   15.8470 C.3    82  LEU82       0.1693
     96  C         -6.7660   12.6770   16.8760 C.2    82  LEU82       0.2592
     97  O         -7.9380   12.2820   16.8230 O.2    82  LEU82      -0.2718
     98  CB        -6.4370   13.1200   14.4320 C.3    82  LEU82       0.0284
     99  CG        -6.1610   14.0870   13.2770 C.3    82  LEU82       0.0019
    100  CD1       -6.2410   13.3520   11.9420 C.3    82  LEU82       0.0001
    101  CD2       -7.1240   15.2700   13.2830 C.3    82  LEU82       0.0001
    102  N         -5.9230   12.2450   17.8050 N.am   83  TYR83      -0.1963
    103  CA        -6.3730   11.3400   18.8610 C.3    83  TYR83       0.1756
    104  C         -7.5690   11.9600   19.5730 C.2    83  TYR83       0.2461
    105  O         -7.4440   13.0620   20.1150 O.2    83  TYR83      -0.2730
    106  CB        -5.2590   11.0800   19.8650 C.3    83  TYR83       0.0574
    107  CG        -5.5820    9.9770   20.8490 C.ar   83  TYR83      -0.0198
    108  CD1       -5.6400    8.6530   20.4330 C.ar   83  TYR83      -0.0009
    109  CD2       -5.8230   10.2550   22.1860 C.ar   83  TYR83      -0.0009
    110  CE1       -5.9290    7.6360   21.3170 C.ar   83  TYR83       0.0417
    111  CE2       -6.1120    9.2350   23.0910 C.ar   83  TYR83       0.0417
    112  CZ        -6.1620    7.9310   22.6460 C.ar   83  TYR83       0.1957
    113  OH        -6.4450    6.9100   23.5180 O.3    83  TYR83      -0.2866
    114  N         -8.7370   11.3110   19.5900 N.am   84  PRO84      -0.2727
    115  CA        -9.9280   11.9730   20.1380 C.3    84  PRO84       0.1402
    116  C         -9.9720   12.0580   21.6560 C.2    84  PRO84       0.2269
    117  O        -10.8080   12.8040   22.1910 O.2    84  PRO84      -0.2865
    118  CB       -11.0760   11.1060   19.6090 C.3    84  PRO84       0.0296
    119  CG       -10.5010    9.7680   19.4640 C.3    84  PRO84       0.0237
    120  CD        -9.0540    9.9680   19.0710 C.3    84  PRO84       0.0939
    121  N        -13.1000    7.4620   23.2640 N.3    87  PHE87      -0.1241
    122  CA       -13.7220    6.8070   22.1240 C.3    87  PHE87       0.1605
    123  C        -15.1190    6.3920   22.5640 C.2    87  PHE87       0.2264
    124  O        -15.2740    5.4840   23.3890 O.2    87  PHE87      -0.2867
    125  CB       -12.8950    5.6080   21.6660 C.3    87  PHE87       0.0534
    126  CG       -11.5940    5.9800   21.0070 C.ar   87  PHE87      -0.0203
    127  CD1      -10.5080    6.4000   21.7620 C.ar   87  PHE87      -0.0042
    128  CD2      -11.4520    5.8980   19.6280 C.ar   87  PHE87      -0.0042
    129  CE1       -9.3100    6.7430   21.1520 C.ar   87  PHE87      -0.0003
    130  CE2      -10.2510    6.2350   19.0120 C.ar   87  PHE87      -0.0003
    131  CZ        -9.1800    6.6530   19.7750 C.ar   87  PHE87      -0.0000
    132  N        -11.2120    3.2600   10.4300 N.3   113  ILE113     -0.1231
    133  CA       -10.0580    2.7230   11.1460 C.3   113  ILE113      0.1692
    134  C        -10.0970    3.0820   12.6310 C.2   113  ILE113      0.2592
    135  O         -9.1450    2.7920   13.3650 O.2   113  ILE113     -0.2718
    136  CB        -8.7390    3.1890   10.4940 C.3   113  ILE113      0.0266
    137  CG1       -8.6380    4.7180   10.4070 C.3   113  ILE113      0.0019
    138  CG2       -8.6120    2.6180    9.0810 C.3   113  ILE113      0.0020
    139  CD1       -8.3070    5.4290   11.7210 C.3   113  ILE113      0.0001
    140  N        -11.1820    3.7050   13.0960 N.am  114  ASP114     -0.1960
    141  CA       -11.2120    4.3290   14.4160 C.3   114  ASP114      0.1840
    142  C        -11.4500    3.3510   15.5700 C.2   114  ASP114      0.2622
    143  O        -11.3360    3.7670   16.7290 O.2   114  ASP114     -0.2715
    144  CB       -12.2790    5.4360   14.4500 C.3   114  ASP114      0.1450
    145  CG       -13.6290    4.9720   13.9490 C.2   114  ASP114      0.3671
    146  OD1      -14.0560    3.8510   14.3090 O.co2 114  ASP114     -0.2456
    147  OD2      -14.2700    5.7490   13.2070 O.co2 114  ASP114     -0.2456
    148  N        -11.7440    2.0760   15.2880 N.am  115  THR115     -0.1951
    149  CA       -11.9960    0.9930   16.2510 C.3   115  THR115      0.1897
    150  C        -13.3270    1.1090   16.9970 C.2   115  THR115      0.2313
    151  O        -13.5980    0.2870   17.8870 O.2   115  THR115     -0.2863
    152  CB       -10.8710    0.8470   17.2920 C.3   115  THR115      0.1794
    153  OG1      -10.9790    1.8630   18.3020 O.3   115  THR115     -0.2208
    154  CG2       -9.4880    0.8980   16.6110 C.3   115  THR115      0.0378
    155  N        -10.5200   -1.2850    5.4670 N.3   131  HIS131     -0.1241
    156  CA        -9.4320   -0.3310    5.3350 C.3   131  HIS131      0.1621
    157  C         -8.4050   -0.4880    6.4480 C.2   131  HIS131      0.2264
    158  O         -7.5880    0.4140    6.6790 O.2   131  HIS131     -0.2867
    159  CB        -9.9950    1.0880    5.2940 C.3   131  HIS131      0.0745
    160  CG       -10.5520    1.4740    3.9550 C.ar  131  HIS131      0.0817
    161  ND1      -11.0410    2.7340    3.6840 N.ar  131  HIS131     -0.2268
    162  CD2      -10.6810    0.7670    2.8050 C.ar  131  HIS131      0.1154
    163  CE1      -11.4450    2.7890    2.4270 C.ar  131  HIS131      0.1986
    164  NE2      -11.2380    1.6090    1.8710 N.ar  131  HIS131     -0.2212
    165  N         -6.3670    0.9080   13.3860 N.3   134  PHE134     -0.1241
    166  CA        -5.3520    1.2750   14.3600 C.3   134  PHE134      0.1605
    167  C         -5.1630    0.2070   15.4250 C.2   134  PHE134      0.2264
    168  O         -4.1730    0.2670   16.1600 O.2   134  PHE134     -0.2867
    169  CB        -5.7210    2.6010   15.0400 C.3   134  PHE134      0.0534
    170  CG        -4.7450    3.7240   14.7770 C.ar  134  PHE134     -0.0203
    171  CD1       -3.4930    3.7250   15.3670 C.ar  134  PHE134     -0.0042
    172  CD2       -5.0910    4.7920   13.9550 C.ar  134  PHE134     -0.0042
    173  CE1       -2.6020    4.7640   15.1340 C.ar  134  PHE134     -0.0003
    174  CE2       -4.2020    5.8240   13.7230 C.ar  134  PHE134     -0.0003
    175  CZ        -2.9630    5.8110   14.3110 C.ar  134  PHE134     -0.0000
    176  N         -2.0970   -2.0140   20.3070 N.3   150  LEU150     -0.1245
    177  CA        -2.4690   -0.6020   20.3090 C.3   150  LEU150      0.1561
    178  C         -1.8230    0.1570   21.4590 C.2   150  LEU150      0.2260
    179  O         -1.4520    1.3260   21.3050 O.2   150  LEU150     -0.2867
    180  CB        -3.9920   -0.4800   20.3920 C.3   150  LEU150      0.0270
    181  CG        -4.5760    0.9240   20.5400 C.3   150  LEU150      0.0019
    182  CD1       -4.0770    1.8350   19.4280 C.3   150  LEU150      0.0001
    183  CD2       -6.1110    0.8550   20.5430 C.3   150  LEU150      0.0001
    184  N          1.6640    1.0530   20.3740 N.3   153  MET153     -0.1230
    185  CA         1.6780    2.1020   19.3540 C.3   153  MET153      0.1702
    186  C          1.2610    3.4480   19.9420 C.2   153  MET153      0.2592
    187  O          1.8310    4.4910   19.5920 O.2   153  MET153     -0.2718
    188  CB         0.7650    1.6960   18.1890 C.3   153  MET153      0.0401
    189  CG         0.5800    2.7500   17.1000 C.3   153  MET153      0.0596
    190  SD         2.0990    3.3000   16.2950 S.3   153  MET153     -0.1393
    191  CE         2.6290    1.8020   15.4630 C.3   153  MET153      0.0692
    192  N          0.2790    3.4440   20.8470 N.am  154  LYS154     -0.1980
    193  CA        -0.1180    4.6750   21.5250 C.3   154  LYS154      0.1596
    194  C          1.0520    5.2860   22.2830 C.2   154  LYS154      0.2287
    195  O          1.3040    6.4930   22.1890 O.2   154  LYS154     -0.2864
    196  CB        -1.2730    4.4000   22.4890 C.3   154  LYS154      0.0298
    197  CG        -2.6340    4.2740   21.8290 C.3   154  LYS154      0.0038
    198  CD        -3.7360    4.0430   22.8800 C.3   154  LYS154      0.0206
    199  CE        -5.1370    4.0780   22.2610 C.3   154  LYS154      0.1093
    200  NZ        -6.2510    3.9500   23.2830 N.3   154  LYS154     -0.1314
    201  N          3.4880    6.9900   19.8750 N.3   157  ILE157     -0.1231
    202  CA         2.9650    8.2110   19.2630 C.3   157  ILE157      0.1692
    203  C          2.9380    9.3480   20.2810 C.2   157  ILE157      0.2592
    204  O          3.3880   10.4660   19.9990 O.2   157  ILE157     -0.2718
    205  CB         1.5700    7.9570   18.6600 C.3   157  ILE157      0.0266
    206  CG1        1.6650    6.9860   17.4840 C.3   157  ILE157      0.0019
    207  CG2        0.9300    9.2690   18.2010 C.3   157  ILE157      0.0020
    208  CD1        0.3020    6.5620   16.9210 C.3   157  ILE157      0.0001
    209  N          2.4150    9.0820   21.4820 N.am  158  PHE158     -0.1976
    210  CA         2.3200   10.1350   22.4910 C.3   158  PHE158      0.1639
    211  C          3.6980   10.5660   22.9820 C.2   158  PHE158      0.2290
    212  O          3.8850   11.7330   23.3450 O.2   158  PHE158     -0.2864
    213  CB         1.4510    9.6660   23.6630 C.3   158  PHE158      0.0560
    214  CG         0.0410    9.2810   23.2680 C.ar  158  PHE158     -0.0200
    215  CD1       -0.5610    9.8230   22.1390 C.ar  158  PHE158     -0.0042
    216  CD2       -0.6820    8.3740   24.0280 C.ar  158  PHE158     -0.0042
    217  CE1       -1.8570    9.4680   21.7790 C.ar  158  PHE158     -0.0003
    218  CE2       -1.9790    8.0150   23.6720 C.ar  158  PHE158     -0.0003
    219  CZ        -2.5640    8.5640   22.5470 C.ar  158  PHE158     -0.0000
    220  N         -3.4660    0.2950    9.2380 N.3   176  ILE176     -0.1231
    221  CA        -4.2610    1.0230    8.2620 C.3   176  ILE176      0.1692
    222  C         -3.7820    0.6660    6.8580 C.2   176  ILE176      0.2592
    223  O         -2.5850    0.4540    6.6190 O.2   176  ILE176     -0.2718
    224  CB        -4.1410    2.5370    8.5220 C.3   176  ILE176      0.0266
    225  CG1       -4.7650    2.8930    9.8780 C.3   176  ILE176      0.0019
    226  CG2       -4.7760    3.3290    7.3880 C.3   176  ILE176      0.0020
    227  CD1       -4.4710    4.3290   10.3370 C.3   176  ILE176      0.0001
    228  N         -4.7170    0.6110    5.9120 N.am  177  VAL177     -0.1966
    229  CA        -4.3710    0.3960    4.5090 C.3   177  VAL177      0.1727
    230  C         -3.9450    1.7320    3.9080 C.2   177  VAL177      0.2616
    231  O         -4.7540    2.6520    3.7730 O.2   177  VAL177     -0.2715
    232  CB        -5.5320   -0.2160    3.7190 C.3   177  VAL177      0.0290
    233  CG1       -5.1380   -0.3700    2.2650 C.3   177  VAL177      0.0023
    234  CG2       -5.9300   -1.5760    4.3150 C.3   177  VAL177      0.0023
    235  N         -2.6640    1.8440    3.5770 N.am  178  PHE178     -0.1960
    236  CA        -2.1170    3.0170    2.9110 C.3   178  PHE178      0.1771
    237  C         -2.2710    2.8660    1.4070 C.2   178  PHE178      0.2619
    238  O         -2.3520    1.7540    0.8790 O.2   178  PHE178     -0.2715
    239  CB        -0.6300    3.2000    3.2430 C.3   178  PHE178      0.0574
    240  CG        -0.3590    3.8360    4.5790 C.ar  178  PHE178     -0.0200
    241  CD1       -1.0810    3.4750    5.7080 C.ar  178  PHE178     -0.0042
    242  CD2        0.6430    4.7740    4.7120 C.ar  178  PHE178     -0.0042
    243  CE1       -0.8180    4.0550    6.9240 C.ar  178  PHE178     -0.0003
    244  CE2        0.9100    5.3570    5.9430 C.ar  178  PHE178     -0.0003
    245  CZ         0.1830    4.9960    7.0430 C.ar  178  PHE178     -0.0000
    246  N         -2.2980    3.9990    0.7090 N.am  179  PHE179     -0.1974
    247  CA        -2.2000    3.9580   -0.7460 C.3   179  PHE179      0.1639
    248  C         -0.9940    3.1270   -1.1600 C.2   179  PHE179      0.2290
    249  O          0.1000    3.2840   -0.6130 O.2   179  PHE179     -0.2864
    250  CB        -2.0890    5.3710   -1.3220 C.3   179  PHE179      0.0560
    251  CG        -3.3970    6.0810   -1.4090 C.ar  179  PHE179     -0.0200
    252  CD1       -4.3190    5.7340   -2.3810 C.ar  179  PHE179     -0.0042
    253  CD2       -3.7140    7.0890   -0.5170 C.ar  179  PHE179     -0.0042
    254  CE1       -5.5310    6.3830   -2.4640 C.ar  179  PHE179     -0.0003
    255  CE2       -4.9300    7.7450   -0.5930 C.ar  179  PHE179     -0.0003
    256  CZ        -5.8400    7.3910   -1.5660 C.ar  179  PHE179     -0.0000
@<TRIPOS>BOND
     1    37    35    1
     2   254   252   ar
     3   254   256   ar
     4   252   251   ar
     5    36    35    1
     6    35    34    2
     7   256   255   ar
     8   251   250    1
     9   251   253   ar
    10   250   247    1
    11   248   247    1
    12   248   249    2
    13    58    56   ar
    14   247   246    1
    15    34    33    1
    16   255   253   ar
    17    56    57   ar
    18    56    55    1
    19    54    55    1
    20    54    51    1
    21    33    32    1
    22   246   237   am
    23   238   237    2
    24    50    51    1
    25    52    51    1
    26    52    53    2
    27    30    29    2
    28   237   236    1
    29    32    31    1
    30   164   163   ar
    31   164   162   ar
    32    31    28    1
    33   233   232    1
    34    62    61    2
    35    28    29    1
    36    28    27    1
    37   163   161   ar
    38    61    60    1
    39   162   160   ar
    40   236   239    1
    41   236   235    1
    42   239   240    1
    43    19    18    2
    44   235   230   am
    45    27    18   am
    46    63    60    1
    47    63    64    1
    48    59    60    1
    49   161   160   ar
    50   232   234    1
    51   232   229    1
    52   231   230    2
    53   230   229    1
    54   160   159    1
    55    18    17    1
    56    49    48    1
    57    66    64   ar
    58    66    68   ar
    59    47    48   ar
    60    47    45   ar
    61   229   228    1
    62    48    46   ar
    63   240   242   ar
    64   240   241   ar
    65    64    65   ar
    66   242   244   ar
    67    45    43   ar
    68    46    44   ar
    69   159   156    1
    70    20    17    1
    71    20    21    1
    72   156   155    1
    73   156   157    1
    74    17    16    1
    75    68    69   ar
    76    43    44   ar
    77    43    42    1
    78   241   243   ar
    79   228   222   am
    80   244   245   ar
    81    42    39    1
    82    65    67   ar
    83    23    21   ar
    84    23    25   ar
    85    21    22   ar
    86   157   158    2
    87   223   222    2
    88    69    67   ar
    89   222   221    1
    90   243   245   ar
    91    25    26   ar
    92   226   224    1
    93    39    38    1
    94    39    40    1
    95    41    40    2
    96    22    24   ar
    97   221   224    1
    98   221   220    1
    99   224   225    1
   100    26    24   ar
   101    74    71    1
   102    74    75    1
   103    76    75   ar
   104    76    78   ar
   105   138   136    1
   106    70    71    1
   107    88    86    1
   108    71    72    1
   109    75    77   ar
   110    78    80   ar
   111    12    11    2
   112   225   227    1
   113    11    10    1
   114   137   136    1
   115   137   139    1
   116   132   133    1
   117   136   133    1
   118    77    79   ar
   119    86    87    1
   120    86    85    1
   121    80    79   ar
   122    85    82    1
   123    72    73    2
   124   133   134    1
   125    13    10    1
   126    13    14    1
   127    10     9    1
   128   100    99    1
   129    14    15    1
   130     4     3    2
   131     9    15    1
   132     9     3   am
   133    82    81    1
   134    82    83    1
   135   134   140   am
   136   134   135    2
   137     3     2    1
   138   140   141    1
   139     7     5    1
   140   147   145   ar
   141    99   101    1
   142    99    98    1
   143    83    89   am
   144    83    84    2
   145   165   166    1
   146    89    90    1
   147   174   172   ar
   148   174   175   ar
   149   145   146   ar
   150   145   144    1
   151   172   170   ar
   152     5     2    1
   153     5     6    1
   154    93    90    1
   155     2     1    1
   156    90    91    1
   157   175   173   ar
   158   166   169    1
   159   166   167    1
   160   141   144    1
   161   141   142    1
   162    98    95    1
   163   170   169    1
   164   170   171   ar
   165   173   171   ar
   166   148   142   am
   167   148   149    1
   168     6     8    1
   169   167   168    2
   170   191   190    1
   171   142   143    2
   172    91    92    2
   173    95    94    1
   174    95    96    1
   175   149   150    1
   176   149   152    1
   177   190   189    1
   178   154   152    1
   179    97    96    2
   180    96   102   am
   181   208   206    1
   182   150   151    2
   183   189   188    1
   184   152   153    1
   185   206   205    1
   186   102   103    1
   187   188   185    1
   188   207   205    1
   189   205   202    1
   190   103   104    1
   191   103   106    1
   192   130   128   ar
   193   130   131   ar
   194   120   119    1
   195   120   114    1
   196   202   201    1
   197   202   203    1
   198   185   186    1
   199   185   184    1
   200   182   181    1
   201   119   118    1
   202   104   114   am
   203   104   105    2
   204   114   115    1
   205   187   186    2
   206   118   115    1
   207   128   126   ar
   208   131   129   ar
   209   106   107    1
   210   186   192   am
   211   204   203    2
   212   115   116    1
   213   203   209   am
   214   176   177    1
   215   177   180    1
   216   177   178    1
   217   180   181    1
   218   108   107   ar
   219   108   110   ar
   220   181   183    1
   221   192   193    1
   222   107   109   ar
   223   126   125    1
   224   126   127   ar
   225   129   127   ar
   226   179   178    2
   227   110   112   ar
   228   209   210    1
   229   193   194    1
   230   193   196    1
   231   116   117    2
   232   125   122    1
   233   217   215   ar
   234   217   219   ar
   235   197   196    1
   236   197   198    1
   237   122   123    1
   238   122   121    1
   239   215   214   ar
   240   109   111   ar
   241   195   194    2
   242   199   198    1
   243   199   200    1
   244   210   211    1
   245   210   213    1
   246   219   218   ar
   247   123   124    2
   248   112   111   ar
   249   112   113    1
   250   211   212    2
   251   214   213    1
   252   214   216   ar
   253   218   216   ar
