@<TRIPOS>MOLECULE
tmp/5matB00.pdb
 125 121 0 0 0
SMALL
GASTEIGER

@<TRIPOS>ATOM
      1  N        -41.5440  -16.0040   63.2650 N.3     2  MET2       -0.1245
      2  CA       -40.5310  -15.6670   62.2740 C.3     2  MET2        0.1570
      3  C        -40.7130  -16.5160   61.0170 C.2     2  MET2        0.2261
      4  O        -41.0080  -17.7120   61.0910 O.2     2  MET2       -0.2867
      5  CB       -39.1340  -15.8750   62.8610 C.3     2  MET2        0.0387
      6  CG       -38.1080  -14.8160   62.4580 C.3     2  MET2        0.0595
      7  SD       -36.7510  -14.6870   63.6550 S.3     2  MET2       -0.1393
      8  CE       -37.5770  -13.9560   65.0690 C.3     2  MET2        0.0692
      9  N        -26.9060   -6.3160   59.9490 N.3   216  SER216     -0.1202
     10  CA       -27.9180   -6.7910   60.8800 C.3   216  SER216      0.2020
     11  C        -29.2230   -6.0040   60.8080 C.2   216  SER216      0.2619
     12  O        -30.1450   -6.3130   61.5630 O.2   216  SER216     -0.2717
     13  CB       -27.3810   -6.7370   62.3150 C.3   216  SER216      0.2103
     14  OG       -27.0830   -5.4040   62.6860 O.3   216  SER216     -0.2182
     15  N        -29.3320   -5.0060   59.9300 N.am  217  LYS217     -0.1965
     16  CA       -30.5340   -4.1790   59.8640 C.3   217  LYS217      0.1728
     17  C        -31.5320   -4.6640   58.8220 C.2   217  LYS217      0.2616
     18  O        -32.5680   -4.0200   58.6290 O.2   217  LYS217     -0.2715
     19  CB       -30.1650   -2.7250   59.5620 C.3   217  LYS217      0.0311
     20  CG       -29.1820   -2.1220   60.5310 C.3   217  LYS217      0.0038
     21  CD       -29.6570   -2.2340   61.9650 C.3   217  LYS217      0.0206
     22  CE       -28.6430   -1.6280   62.9150 C.3   217  LYS217      0.1093
     23  NZ       -29.0810   -1.7200   64.3200 N.3   217  LYS217     -0.1314
     24  N        -31.2380   -5.7590   58.1360 N.am  218  ALA218     -0.1964
     25  CA       -32.1950   -6.3350   57.2160 C.3   218  ALA218      0.1713
     26  C        -33.3950   -6.8620   57.9960 C.2   218  ALA218      0.2458
     27  O        -33.2740   -7.1780   59.1820 O.2   218  ALA218     -0.2730
     28  CB       -31.5570   -7.4700   56.4250 C.3   218  ALA218      0.0333
     29  N        -34.5630   -6.9580   57.3580 N.am  219  PRO219     -0.2716
     30  CA       -35.7080   -7.5910   58.0200 C.3   219  PRO219      0.1536
     31  C        -35.3700   -9.0030   58.4820 C.2   219  PRO219      0.2598
     32  O        -34.5700   -9.7150   57.8690 O.2   219  PRO219     -0.2715
     33  CB       -36.7960   -7.5920   56.9370 C.3   219  PRO219      0.0310
     34  CG       -36.4040   -6.4700   55.9950 C.3   219  PRO219      0.0237
     35  CD       -34.9030   -6.4300   56.0220 C.3   219  PRO219      0.0939
     36  N        -36.0160   -9.4120   59.5730 N.am  220  LEU220     -0.1978
     37  CA       -35.6540  -10.6650   60.2280 C.3   220  LEU220      0.1596
     38  C        -35.8250  -11.8700   59.3130 C.2   220  LEU220      0.2287
     39  O        -35.1390  -12.8810   59.4920 O.2   220  LEU220     -0.2864
     40  CB       -36.4890  -10.8460   61.4950 C.3   220  LEU220      0.0297
     41  CG       -36.1710   -9.8620   62.6150 C.3   220  LEU220      0.0022
     42  CD1      -37.1560  -10.0280   63.7570 C.3   220  LEU220      0.0001
     43  CD2      -34.7520  -10.0550   63.1230 C.3   220  LEU220      0.0001
     44  N        -29.8450  -13.9620   53.6690 N.3   224  ARG224     -0.1245
     45  CA       -28.5780  -13.2680   53.4470 C.3   224  ARG224      0.1563
     46  C        -27.5210  -14.2680   53.0070 C.2   224  ARG224      0.2260
     47  O        -27.1440  -15.1610   53.7710 O.2   224  ARG224     -0.2867
     48  CB       -28.1300  -12.5240   54.7070 C.3   224  ARG224      0.0307
     49  CG       -29.1930  -11.5440   55.2200 C.3   224  ARG224      0.0489
     50  CD       -28.8040  -10.8140   56.5050 C.3   224  ARG224      0.2205
     51  NE       -28.6660  -11.7210   57.6410 N.pl3 224  ARG224     -0.0865
     52  CZ       -28.3920  -11.3430   58.8870 C.cat 224  ARG224      0.5346
     53  NH1      -28.2310  -10.0600   59.1870 N.pl3 224  ARG224      0.1354
     54  NH2      -28.2610  -12.2550   59.8400 N.pl3 224  ARG224      0.1354
     55  N        -23.4350  -15.0920   70.1650 N.3   243  MET243     -0.1230
     56  CA       -24.3020  -16.0490   69.4840 C.3   243  MET243      0.1702
     57  C        -25.3370  -15.3990   68.5700 C.2   243  MET243      0.2593
     58  O        -26.4970  -15.8230   68.5410 O.2   243  MET243     -0.2718
     59  CB       -24.9940  -16.9540   70.5130 C.3   243  MET243      0.0401
     60  CG       -25.9830  -16.2850   71.4400 C.3   243  MET243      0.0596
     61  SD       -25.5030  -16.3360   73.1930 S.3   243  MET243     -0.1393
     62  CE       -25.2990  -18.0880   73.4810 C.3   243  MET243      0.0692
     63  N        -24.9210  -14.3880   67.8060 N.am  244  GLY244     -0.1942
     64  CA       -25.7540  -13.8080   66.7650 C.3   244  GLY244      0.2014
     65  C        -26.8760  -12.8970   67.2210 C.2   244  GLY244      0.2639
     66  O        -27.6490  -12.4340   66.3760 O.2   244  GLY244     -0.2714
     67  N        -26.9930  -12.6100   68.5200 N.am  245  LEU245     -0.1963
     68  CA       -28.0870  -11.7750   68.9980 C.3   245  LEU245      0.1728
     69  C        -28.0490  -10.4160   68.3130 C.2   245  LEU245      0.2617
     70  O        -26.9780   -9.8670   68.0370 O.2   245  LEU245     -0.2715
     71  CB       -28.0140  -11.6090   70.5200 C.3   245  LEU245      0.0311
     72  CG       -28.1730  -12.8860   71.3550 C.3   245  LEU245      0.0022
     73  CD1      -28.2610  -12.5590   72.8420 C.3   245  LEU245      0.0001
     74  CD2      -29.3880  -13.7000   70.9260 C.3   245  LEU245      0.0001
     75  N        -29.2270   -9.8930   67.9920 N.am  246  GLY246     -0.1940
     76  CA       -29.3000   -8.5930   67.3620 C.3   246  GLY246      0.2014
     77  C        -29.0390   -8.5930   65.8740 C.2   246  GLY246      0.2639
     78  O        -28.6540   -7.5530   65.3250 O.2   246  GLY246     -0.2714
     79  N        -29.2110   -9.7270   65.2060 N.am  247  GLY247     -0.1939
     80  CA       -29.1850   -9.7740   63.7600 C.3   247  GLY247      0.2014
     81  C        -27.8630  -10.1530   63.1220 C.2   247  GLY247      0.2639
     82  O        -27.7000   -9.9380   61.9140 O.2   247  GLY247     -0.2714
     83  N        -26.9240  -10.7110   63.8760 N.am  248  GLY248     -0.1954
     84  CA       -25.6830  -11.1410   63.2750 C.3   248  GLY248      0.1869
     85  C        -25.8790  -12.2910   62.3060 C.2   248  GLY248      0.2309
     86  O        -26.8730  -13.0190   62.3400 O.2   248  GLY248     -0.2863
     87  N        -25.6800  -15.8110   61.1130 N.3   250  ASP250     -0.1239
     88  CA       -25.6980  -17.0990   61.8090 C.3   250  ASP250      0.1674
     89  C        -25.8330  -18.1900   60.7520 C.2   250  ASP250      0.2266
     90  O        -26.9350  -18.4410   60.2530 O.2   250  ASP250     -0.2867
     91  CB       -26.8330  -17.1770   62.8260 C.3   250  ASP250      0.1410
     92  CG       -26.8180  -18.4790   63.6060 C.2   250  ASP250      0.3668
     93  OD1      -25.8950  -19.2830   63.3910 O.co2 250  ASP250     -0.2456
     94  OD2      -27.7250  -18.7100   64.4330 O.co2 250  ASP250     -0.2456
     95  N        -31.2780  -20.0410   60.3700 N.3   257  TYR257     -0.1227
     96  CA       -32.5080  -20.2140   59.6120 C.3   257  TYR257      0.1736
     97  C        -32.5300  -19.4920   58.2670 C.2   257  TYR257      0.2595
     98  O        -33.4240  -19.7600   57.4640 O.2   257  TYR257     -0.2718
     99  CB       -33.7060  -19.7540   60.4610 C.3   257  TYR257      0.0548
    100  CG       -33.7820  -18.2550   60.6940 C.ar  257  TYR257     -0.0200
    101  CD1      -33.0410  -17.6520   61.7000 C.ar  257  TYR257     -0.0009
    102  CD2      -34.6110  -17.4510   59.9220 C.ar  257  TYR257     -0.0009
    103  CE1      -33.1100  -16.2910   61.9240 C.ar  257  TYR257      0.0417
    104  CE2      -34.6910  -16.0860   60.1390 C.ar  257  TYR257      0.0417
    105  CZ       -33.9400  -15.5110   61.1500 C.ar  257  TYR257      0.1957
    106  OH       -33.9960  -14.1550   61.3900 O.3   257  TYR257     -0.2866
    107  N        -31.5730  -18.5930   57.9910 N.am  258  ARG258     -0.1966
    108  CA       -31.6810  -17.7310   56.8120 C.3   258  ARG258      0.1729
    109  C        -30.3550  -17.2870   56.1820 C.2   258  ARG258      0.2616
    110  O        -30.3710  -16.6490   55.1210 O.2   258  ARG258     -0.2715
    111  CB       -32.4740  -16.4680   57.1670 C.3   258  ARG258      0.0348
    112  CG       -31.7880  -15.5990   58.2280 C.3   258  ARG258      0.0492
    113  CD       -32.1340  -14.1150   58.0700 C.3   258  ARG258      0.2205
    114  NE       -31.7060  -13.3040   59.2050 N.pl3 258  ARG258     -0.0865
    115  CZ       -31.8290  -11.9850   59.2700 C.cat 258  ARG258      0.5346
    116  NH1      -32.3450  -11.3060   58.2540 N.pl3 258  ARG258      0.1354
    117  NH2      -31.4390  -11.3390   60.3580 N.pl3 258  ARG258      0.1354
    118  N        -29.2180  -17.5760   56.8180 N.am  259  ASP259     -0.1971
    119  CA       -27.9200  -17.0790   56.3710 C.3   259  ASP259      0.1709
    120  C        -27.1390  -18.2190   55.7260 C.2   259  ASP259      0.2293
    121  O        -27.1460  -19.3490   56.2210 O.2   259  ASP259     -0.2864
    122  CB       -27.1010  -16.4880   57.5300 C.3   259  ASP259      0.1436
    123  CG       -27.8010  -15.3250   58.2410 C.2   259  ASP259      0.3671
    124  OD1      -28.5130  -14.5420   57.5870 O.co2 259  ASP259     -0.2456
    125  OD2      -27.6120  -15.1780   59.4650 O.co2 259  ASP259     -0.2456
@<TRIPOS>BOND
     1    46    45    1
     2    46    47    2
     3    45    44    1
     4    45    48    1
     5    48    49    1
     6   110   109    2
     7    49    50    1
     8   120   121    2
     9   120   119    1
    10    34    35    1
    11    34    33    1
    12    35    29    1
    13   109   108    1
    14   109   118   am
    15   119   118    1
    16   119   122    1
    17    28    25    1
    18    50    51    1
    19   108   111    1
    20   108   107    1
    21    33    30    1
    22   111   112    1
    23    25    26    1
    24    25    24    1
    25    29    26   am
    26    29    30    1
    27    98    97    2
    28   122   123    1
    29   124   123   ar
    30    51    52    2
    31    32    31    2
    32   107    97   am
    33    26    27    2
    34    30    31    1
    35   113   112    1
    36   113   114    1
    37    24    17   am
    38   123   125   ar
    39   116   115    1
    40    97    96    1
    41    31    36   am
    42    18    17    2
    43    17    16    1
    44    52    53    1
    45    52    54    1
    46   114   115    2
    47   115   117    1
    48    38    39    2
    49    38    37    1
    50    19    16    1
    51    19    20    1
    52    36    37    1
    53    96    95    1
    54    96    99    1
    55    16    15    1
    56   102   104   ar
    57   102   100   ar
    58    15    11   am
    59     9    10    1
    60   104   105   ar
    61    37    40    1
    62    90    89    2
    63    99   100    1
    64    20    21    1
    65   100   101   ar
    66    89    88    1
    67    11    10    1
    68    11    12    2
    69    10    13    1
    70     3     4    2
    71     3     2    1
    72    87    88    1
    73   105   106    1
    74   105   103   ar
    75    40    41    1
    76   101   103   ar
    77    88    91    1
    78    82    81    2
    79    21    22    1
    80     2     5    1
    81     2     1    1
    82    85    86    2
    83    85    84    1
    84    13    14    1
    85     6     5    1
    86     6     7    1
    87    41    43    1
    88    41    42    1
    89    91    92    1
    90    22    23    1
    91    81    80    1
    92    81    83   am
    93    84    83    1
    94    93    92   ar
    95    92    94   ar
    96     7     8    1
    97    80    79    1
    98    79    77   am
    99    78    77    2
   100    77    76    1
   101    66    65    2
   102    64    65    1
   103    64    63    1
   104    65    67   am
   105    76    75    1
   106    63    57   am
   107    75    69   am
   108    70    69    2
   109    69    68    1
   110    67    68    1
   111    58    57    2
   112    57    56    1
   113    68    71    1
   114    56    55    1
   115    56    59    1
   116    59    60    1
   117    71    72    1
   118    74    72    1
   119    72    73    1
   120    60    61    1
   121    61    62    1
