@<TRIPOS>MOLECULE
tmp/5mb0A02.pdb
 95 90 0 0 0
SMALL
GASTEIGER

@<TRIPOS>ATOM
      1  N         -7.7470   -6.6420   -1.9460 N.3    13  LEU13      -0.1245
      2  CA        -7.3750   -5.3030   -2.3820 C.3    13  LEU13       0.1561
      3  C         -5.9650   -4.9140   -1.9660 C.2    13  LEU13       0.2260
      4  O         -5.5370   -3.7880   -2.2450 O.2    13  LEU13      -0.2867
      5  CB        -8.3420   -4.2720   -1.8020 C.3    13  LEU13       0.0270
      6  CG        -9.8110   -4.4210   -2.1830 C.3    13  LEU13       0.0019
      7  CD1      -10.6310   -3.3870   -1.4290 C.3    13  LEU13       0.0001
      8  CD2      -10.0260   -4.2970   -3.6890 C.3    13  LEU13       0.0001
      9  N         -5.1250   -4.2790    1.1040 N.3    15  ASP15      -0.1239
     10  CA        -5.3180   -3.1530    2.0160 C.3    15  ASP15       0.1674
     11  C         -4.2080   -3.0470    3.0610 C.2    15  ASP15       0.2266
     12  O         -3.9220   -1.9500    3.5640 O.2    15  ASP15      -0.2867
     13  CB        -6.6840   -3.2640    2.6770 C.3    15  ASP15       0.1410
     14  CG        -7.8140   -2.8250    1.7530 C.2    15  ASP15       0.3668
     15  OD1       -7.6450   -1.8070    1.0460 O.co2  15  ASP15      -0.2456
     16  OD2       -8.8910   -3.4820    1.7530 O.co2  15  ASP15      -0.2456
     17  N         -4.6870    7.7740   10.3520 N.3    81  ASP81      -0.1239
     18  CA        -6.0480    7.5480    9.8970 C.3    81  ASP81       0.1674
     19  C         -7.0670    7.5930   11.0240 C.2    81  ASP81       0.2266
     20  O         -8.2370    7.2630   10.7980 O.2    81  ASP81      -0.2867
     21  CB        -6.1380    6.2070    9.1910 C.3    81  ASP81       0.1410
     22  CG        -5.6810    5.0710   10.0570 C.2    81  ASP81       0.3668
     23  OD1       -5.4230    5.2700   11.2650 O.co2  81  ASP81      -0.2456
     24  OD2       -5.5840    3.9610    9.5250 O.co2  81  ASP81      -0.2456
     25  N         -1.6970    2.2360    3.2060 N.3   223  THR223     -0.1203
     26  CA        -2.1020    1.4880    2.0210 C.3   223  THR223      0.1994
     27  C         -1.7930    2.2440    0.7340 C.2   223  THR223      0.2617
     28  O         -1.2900    1.6620   -0.2300 O.2   223  THR223     -0.2717
     29  CB        -3.6120    1.2060    2.0600 C.3   223  THR223      0.1784
     30  OG1       -4.0030    0.7220    3.3430 O.3   223  THR223     -0.2211
     31  CG2       -4.0160    0.1910    0.9710 C.3   223  THR223      0.0376
     32  N         -2.1580    3.5210    0.6710 N.am  224  LEU224     -0.1979
     33  CA        -2.2090    4.2530   -0.5840 C.3   224  LEU224      0.1596
     34  C         -0.9910    5.1540   -0.7740 C.2   224  LEU224      0.2287
     35  O         -0.1280    5.2970    0.0920 O.2   224  LEU224     -0.2864
     36  CB        -3.5060    5.0610   -0.6910 C.3   224  LEU224      0.0297
     37  CG        -4.7780    4.2440   -0.5030 C.3   224  LEU224      0.0022
     38  CD1       -5.9780    5.1460   -0.7600 C.3   224  LEU224      0.0001
     39  CD2       -4.8030    3.0250   -1.4210 C.3   224  LEU224      0.0001
     40  N         -0.0390    8.9130   -1.2680 N.3   226  TYR226     -0.1241
     41  CA        -0.5430   10.2540   -0.9870 C.3   226  TYR226      0.1605
     42  C          0.4830   11.2840   -1.4570 C.2   226  TYR226      0.2264
     43  O          1.6100   11.3230   -0.9430 O.2   226  TYR226     -0.2867
     44  CB        -0.8250   10.4370    0.5080 C.3   226  TYR226      0.0534
     45  CG        -1.9570    9.5770    1.0130 C.ar  226  TYR226     -0.0201
     46  CD1       -3.2700   10.0340    0.9930 C.ar  226  TYR226     -0.0009
     47  CD2       -1.7240    8.3020    1.5020 C.ar  226  TYR226     -0.0009
     48  CE1       -4.3210    9.2310    1.4440 C.ar  226  TYR226      0.0417
     49  CE2       -2.7640    7.5010    1.9440 C.ar  226  TYR226      0.0417
     50  CZ        -4.0500    7.9690    1.9290 C.ar  226  TYR226      0.1957
     51  OH        -5.0950    7.1770    2.3540 O.3   226  TYR226     -0.2866
     52  N        -17.1760   10.7050   -0.3120 N.3   248  VAL248     -0.1245
     53  CA       -16.4400    9.4570   -0.1720 C.3   248  VAL248      0.1561
     54  C        -15.1140    9.6870    0.5350 C.2   248  VAL248      0.2260
     55  O        -14.6340    8.8060    1.2590 O.2   248  VAL248     -0.2867
     56  CB       -16.2710    8.7960   -1.5520 C.3   248  VAL248      0.0252
     57  CG1      -15.3730    7.5670   -1.4610 C.3   248  VAL248      0.0019
     58  CG2      -17.6370    8.4250   -2.1230 C.3   248  VAL248      0.0019
     59  N         -8.7300    0.4030   -6.2010 N.3   280  PHE280     -0.1241
     60  CA        -9.1320   -0.1240   -4.8970 C.3   280  PHE280      0.1605
     61  C        -10.5920   -0.5430   -4.8500 C.2   280  PHE280      0.2264
     62  O        -11.1310   -0.7950   -3.7710 O.2   280  PHE280     -0.2867
     63  CB        -8.6910    0.7740   -3.7390 C.3   280  PHE280      0.0534
     64  CG        -7.2760    0.5000   -3.3820 C.ar  280  PHE280     -0.0203
     65  CD1       -6.2570    0.9230   -4.2270 C.ar  280  PHE280     -0.0042
     66  CD2       -6.9480   -0.3220   -2.3180 C.ar  280  PHE280     -0.0042
     67  CE1       -4.9610    0.5830   -3.9900 C.ar  280  PHE280     -0.0003
     68  CE2       -5.6420   -0.6720   -2.0830 C.ar  280  PHE280     -0.0003
     69  CZ        -4.6490   -0.2140   -2.9260 C.ar  280  PHE280     -0.0000
     70  N        -14.8310   -1.1100   -5.6930 N.3   282  PRO282     -0.2102
     71  CA       -16.0550   -0.3440   -5.4140 C.3   282  PRO282      0.1504
     72  C        -16.0240    0.3600   -4.0630 C.2   282  PRO282      0.2575
     73  O        -15.5530   -0.1780   -3.0630 O.2   282  PRO282     -0.2718
     74  CB       -17.1480   -1.4130   -5.4680 C.3   282  PRO282      0.0282
     75  CG       -16.6010   -2.4020   -6.4720 C.3   282  PRO282      0.0208
     76  CD       -15.1330   -2.4630   -6.1860 C.3   282  PRO282      0.0893
     77  N        -16.5920    1.5680   -4.0360 N.am  283  ILE283     -0.1980
     78  CA       -16.6080    2.3550   -2.8060 C.3   283  ILE283      0.1595
     79  C        -17.5170    1.7340   -1.7600 C.2   283  ILE283      0.2287
     80  O        -17.3280    1.9770   -0.5630 O.2   283  ILE283     -0.2864
     81  CB       -17.0050    3.8220   -3.0840 C.3   283  ILE283      0.0276
     82  CG1      -18.4070    3.9180   -3.7130 C.3   283  ILE283      0.0022
     83  CG2      -15.9280    4.4960   -3.9470 C.3   283  ILE283      0.0022
     84  CD1      -18.9740    5.3130   -3.7640 C.3   283  ILE283      0.0001
     85  N        -12.6570    3.3130   -5.8670 N.3   291  PHE291     -0.1241
     86  CA       -11.8150    4.2020   -5.0790 C.3   291  PHE291      0.1605
     87  C        -10.3900    4.2140   -5.6230 C.2   291  PHE291      0.2264
     88  O         -9.8020    3.1570   -5.8680 O.2   291  PHE291     -0.2867
     89  CB       -11.7870    3.7880   -3.6100 C.3   291  PHE291      0.0534
     90  CG       -11.2680    4.8750   -2.7050 C.ar  291  PHE291     -0.0203
     91  CD1      -11.9370    6.0830   -2.6240 C.ar  291  PHE291     -0.0042
     92  CD2      -10.1190    4.7140   -1.9700 C.ar  291  PHE291     -0.0042
     93  CE1      -11.4920    7.1070   -1.8120 C.ar  291  PHE291     -0.0003
     94  CE2       -9.6640    5.7470   -1.1390 C.ar  291  PHE291     -0.0003
     95  CZ       -10.3550    6.9410   -1.0790 C.ar  291  PHE291     -0.0000
@<TRIPOS>BOND
     1    75    76    1
     2    75    74    1
     3    59    60    1
     4    76    70    1
     5    88    87    2
     6    85    86    1
     7    70    71    1
     8    87    86    1
     9    74    71    1
    10    71    72    1
    11    86    89    1
    12    60    61    1
    13    60    63    1
    14    61    62    2
    15    65    67   ar
    16    65    64   ar
    17    72    77   am
    18    72    73    2
    19    77    78    1
    20    67    69   ar
    21    83    81    1
    22    84    82    1
    23    63    64    1
    24    82    81    1
    25     8     6    1
    26    89    90    1
    27    64    66   ar
    28    81    78    1
    29    69    68   ar
    30    78    79    1
    31    90    91   ar
    32    90    92   ar
    33    91    93   ar
    34     2     3    1
    35     2     1    1
    36     2     5    1
    37    66    68   ar
    38     4     3    2
    39     6     5    1
    40     6     7    1
    41    58    56    1
    42    92    94   ar
    43    93    95   ar
    44    79    80    2
    45    56    57    1
    46    56    53    1
    47    42    41    1
    48    42    43    2
    49    39    37    1
    50    40    41    1
    51    94    95   ar
    52    41    44    1
    53    34    33    1
    54    34    35    2
    55    38    37    1
    56    36    33    1
    57    36    37    1
    58    33    32    1
    59    52    53    1
    60    28    27    2
    61    53    54    1
    62    44    45    1
    63    54    55    2
    64    32    27   am
    65    27    26    1
    66    31    29    1
    67    46    45   ar
    68    46    48   ar
    69    45    47   ar
    70    15    14   ar
    71     9    10    1
    72    48    50   ar
    73    47    49   ar
    74    14    16   ar
    75    14    13    1
    76    50    49   ar
    77    50    51    1
    78    10    13    1
    79    10    11    1
    80    26    29    1
    81    26    25    1
    82    29    30    1
    83    11    12    2
    84    21    18    1
    85    21    22    1
    86    24    22   ar
    87    18    17    1
    88    18    19    1
    89    22    23   ar
    90    20    19    2
