@<TRIPOS>MOLECULE
tmp/5mb0A03.pdb
 98 90 0 0 0
SMALL
GASTEIGER

@<TRIPOS>ATOM
      1  N         -3.8500   -8.9380    3.3710 N.3    10  ILE10      -0.1231
      2  CA        -4.9390   -9.3540    4.2480 C.3    10  ILE10       0.1692
      3  C         -6.2380   -9.5870    3.4990 C.2    10  ILE10       0.2592
      4  O         -7.1500  -10.2060    4.0560 O.2    10  ILE10      -0.2718
      5  CB        -5.2090   -8.3590    5.3920 C.3    10  ILE10       0.0266
      6  CG1       -5.6870   -6.9830    4.8800 C.3    10  ILE10       0.0019
      7  CG2       -3.9860   -8.2410    6.2890 C.3    10  ILE10       0.0020
      8  CD1       -6.3120   -6.1210    5.9560 C.3    10  ILE10       0.0001
      9  N         -6.3760   -9.0770    2.2820 N.am   11  ASP11      -0.1974
     10  CA        -7.6300   -9.1380    1.5460 C.3    11  ASP11       0.1709
     11  C         -7.3120   -8.9790    0.0670 C.2    11  ASP11       0.2293
     12  O         -6.1500   -8.8170   -0.3280 O.2    11  ASP11      -0.2864
     13  CB        -8.6550   -8.1270    2.0720 C.3    11  ASP11       0.1436
     14  CG        -8.2330   -6.6790    1.9130 C.2    11  ASP11       0.3671
     15  OD1       -8.7920   -5.8450    2.6620 O.co2  11  ASP11      -0.2456
     16  OD2       -7.3800   -6.3630    1.0650 O.co2  11  ASP11      -0.2456
     17  N         -5.1250   -4.2790    1.1040 N.3    15  ASP15      -0.1225
     18  CA        -5.3180   -3.1530    2.0160 C.3    15  ASP15       0.1805
     19  C         -4.2080   -3.0470    3.0610 C.2    15  ASP15       0.2597
     20  O         -3.9220   -1.9500    3.5640 O.2    15  ASP15      -0.2718
     21  CB        -6.6840   -3.2640    2.6770 C.3    15  ASP15       0.1424
     22  CG        -7.8140   -2.8250    1.7530 C.2    15  ASP15       0.3668
     23  OD1       -7.6450   -1.8070    1.0460 O.co2  15  ASP15      -0.2456
     24  OD2       -8.8910   -3.4820    1.7530 O.co2  15  ASP15      -0.2456
     25  N         -3.5860   -4.1620    3.4050 N.am   16  ALA16      -0.1979
     26  CA        -2.4630   -4.2050    4.3310 C.3    16  ALA16       0.1597
     27  C         -1.8410   -5.5780    4.1650 C.2    16  ALA16       0.2287
     28  O         -2.3910   -6.4450    3.4830 O.2    16  ALA16      -0.2864
     29  CB        -2.8820   -3.9670    5.7830 C.3    16  ALA16       0.0319
     30  N          1.4130   -6.4090   11.2890 N.3    33  ASP33      -0.1239
     31  CA         1.5000   -5.4640   10.1850 C.3    33  ASP33       0.1674
     32  C          2.8150   -4.7070   10.3350 C.2    33  ASP33       0.2266
     33  O          2.9610   -3.8740   11.2330 O.2    33  ASP33      -0.2867
     34  CB         0.2840   -4.5450   10.2740 C.3    33  ASP33       0.1410
     35  CG         0.1940   -3.5240    9.1580 C.2    33  ASP33       0.3668
     36  OD1        1.1370   -3.3670    8.3600 O.co2  33  ASP33      -0.2456
     37  OD2       -0.8750   -2.8480    9.1220 O.co2  33  ASP33      -0.2456
     38  N         -4.6870    7.7740   10.3520 N.3    81  ASP81      -0.1239
     39  CA        -6.0480    7.5480    9.8970 C.3    81  ASP81       0.1674
     40  C         -7.0670    7.5930   11.0240 C.2    81  ASP81       0.2266
     41  O         -8.2370    7.2630   10.7980 O.2    81  ASP81      -0.2867
     42  CB        -6.1380    6.2070    9.1910 C.3    81  ASP81       0.1410
     43  CG        -5.6810    5.0710   10.0570 C.2    81  ASP81       0.3668
     44  OD1       -5.4230    5.2700   11.2650 O.co2  81  ASP81      -0.2456
     45  OD2       -5.5840    3.9610    9.5250 O.co2  81  ASP81      -0.2456
     46  N        -11.4340    0.2610   14.5310 N.3   115  SER115     -0.1202
     47  CA       -10.9470   -0.2910   13.2700 C.3   115  SER115      0.2020
     48  C         -9.9110   -1.3870   13.4800 C.2   115  SER115      0.2618
     49  O         -9.7280   -2.2230   12.5960 O.2   115  SER115     -0.2717
     50  CB       -10.4240    0.8110   12.3470 C.3   115  SER115      0.2103
     51  OG        -9.2300    1.3720   12.8430 O.3   115  SER115     -0.2182
     52  N         -9.2300   -1.4120   14.6270 N.am  116  PHE116     -0.1975
     53  CA        -8.3790   -2.5520   14.9450 C.3   116  PHE116      0.1639
     54  C         -9.2290   -3.7700   15.2880 C.2   116  PHE116      0.2290
     55  O         -8.9890   -4.8670   14.7720 O.2   116  PHE116     -0.2864
     56  CB        -7.3900   -2.1950   16.0610 C.3   116  PHE116      0.0560
     57  CG        -6.2320   -1.3660   15.5850 C.ar  116  PHE116     -0.0200
     58  CD1       -5.3230   -1.8850   14.6840 C.ar  116  PHE116     -0.0042
     59  CD2       -6.0530   -0.0610   16.0280 C.ar  116  PHE116     -0.0042
     60  CE1       -4.2710   -1.1350   14.2230 C.ar  116  PHE116     -0.0003
     61  CE2       -5.0040    0.6980   15.5650 C.ar  116  PHE116     -0.0003
     62  CZ        -4.1020    0.1590   14.6610 C.ar  116  PHE116     -0.0000
     63  N        -12.0840   -4.4730   14.2240 N.3   118  GLU118     -0.1231
     64  CA       -12.7380   -4.9110   12.9980 C.3   118  GLU118      0.1699
     65  C        -11.8080   -5.6720   12.0580 C.2   118  GLU118      0.2592
     66  O        -12.3010   -6.4060   11.1950 O.2   118  GLU118     -0.2718
     67  CB       -13.3610   -3.6890   12.3060 C.3   118  GLU118      0.0402
     68  CG       -14.5720   -3.1400   13.1000 C.3   118  GLU118      0.1161
     69  CD       -14.9450   -1.6900   12.8090 C.2   118  GLU118      0.3649
     70  OE1      -15.8450   -1.1650   13.5160 O.co2 118  GLU118     -0.2457
     71  OE2      -14.3490   -1.0700   11.9030 O.co2 118  GLU118     -0.2457
     72  N        -10.4880   -5.5270   12.1920 N.am  119  ASP119     -0.1974
     73  CA        -9.5310   -6.2240   11.3250 C.3   119  ASP119      0.1709
     74  C         -9.1190   -7.5130   12.0290 C.2   119  ASP119      0.2293
     75  O         -8.1110   -7.5600   12.7350 O.2   119  ASP119     -0.2864
     76  CB        -8.2990   -5.3670   11.0620 C.3   119  ASP119      0.1436
     77  CG        -8.5370   -4.2700   10.0670 C.2   119  ASP119      0.3671
     78  OD1       -9.5610   -4.3320    9.3590 O.co2 119  ASP119     -0.2456
     79  OD2       -7.6890   -3.3480    9.9830 O.co2 119  ASP119     -0.2456
     80  N         -5.3180   -8.8510   11.6210 N.3   122  ILE122     -0.1245
     81  CA        -4.1410   -8.1100   12.0690 C.3   122  ILE122      0.1561
     82  C         -4.0580   -8.2180   13.5870 C.2   122  ILE122      0.2260
     83  O         -4.9300   -7.7130   14.3090 O.2   122  ILE122     -0.2867
     84  CB        -4.1660   -6.6560   11.5840 C.3   122  ILE122      0.0252
     85  CG1       -4.0140   -6.6170   10.0620 C.3   122  ILE122      0.0019
     86  CG2       -3.0620   -5.8520   12.2610 C.3   122  ILE122      0.0019
     87  CD1       -4.1850   -5.2300    9.4460 C.3   122  ILE122      0.0001
     88  N          3.1270    0.7860    6.2600 N.3   221  GLY221     -0.1225
     89  CA         1.8960    0.7310    7.0160 C.3   221  GLY221      0.1811
     90  C          0.7700    1.6020    6.5190 C.2   221  GLY221      0.2280
     91  O         -0.3070    1.5880    7.1250 O.2   221  GLY221     -0.2866
     92  N         -1.6970    2.2360    3.2060 N.3   223  THR223     -0.1218
     93  CA        -2.1020    1.4880    2.0210 C.3   223  THR223      0.1862
     94  C         -1.7930    2.2440    0.7340 C.2   223  THR223      0.2287
     95  O         -1.2900    1.6620   -0.2300 O.2   223  THR223     -0.2866
     96  CB        -3.6120    1.2060    2.0600 C.3   223  THR223      0.1770
     97  OG1       -4.0030    0.7220    3.3430 O.3   223  THR223     -0.2211
     98  CG2       -4.0160    0.1910    0.9710 C.3   223  THR223      0.0375
@<TRIPOS>BOND
     1    12    11    2
     2    95    94    2
     3    11    10    1
     4    94    93    1
     5    98    96    1
     6    23    22   ar
     7    16    14   ar
     8    17    18    1
     9    10    13    1
    10    10     9    1
    11    22    24   ar
    12    22    21    1
    13    14    13    1
    14    14    15   ar
    15    18    21    1
    16    18    19    1
    17    93    96    1
    18    93    92    1
    19    96    97    1
    20     9     3   am
    21    19    25   am
    22    19    20    2
    23     1     2    1
    24    25    26    1
    25    28    27    2
    26     3     4    2
    27     3     2    1
    28    27    26    1
    29     2     5    1
    30    26    29    1
    31     6     5    1
    32     6     8    1
    33     5     7    1
    34    88    89    1
    35    90    89    1
    36    90    91    2
    37    36    35   ar
    38    37    35   ar
    39    35    34    1
    40    42    39    1
    41    42    43    1
    42    78    77   ar
    43    87    85    1
    44    45    43   ar
    45    39    38    1
    46    39    40    1
    47    79    77   ar
    48    43    44   ar
    49    85    84    1
    50    77    76    1
    51    31    34    1
    52    31    32    1
    53    31    30    1
    54    32    33    2
    55    41    40    2
    56    76    73    1
    57    66    65    2
    58    73    74    1
    59    73    72    1
    60    84    81    1
    61    84    86    1
    62    80    81    1
    63    71    69   ar
    64    74    75    2
    65    65    72   am
    66    65    64    1
    67    81    82    1
    68    67    64    1
    69    67    68    1
    70    50    51    1
    71    50    47    1
    72    49    48    2
    73    69    68    1
    74    69    70   ar
    75    64    63    1
    76    47    48    1
    77    47    46    1
    78    48    52   am
    79    82    83    2
    80    60    62   ar
    81    60    58   ar
    82    52    53    1
    83    62    61   ar
    84    58    57   ar
    85    55    54    2
    86    53    54    1
    87    53    56    1
    88    61    59   ar
    89    57    59   ar
    90    57    56    1
