@<TRIPOS>MOLECULE
tmp/5mb0A01.pdb
 110 101 0 0 0
SMALL
GASTEIGER

@<TRIPOS>ATOM
      1  N          1.4130   -6.4090   11.2890 N.3    33  ASP33      -0.1239
      2  CA         1.5000   -5.4640   10.1850 C.3    33  ASP33       0.1674
      3  C          2.8150   -4.7070   10.3350 C.2    33  ASP33       0.2266
      4  O          2.9610   -3.8740   11.2330 O.2    33  ASP33      -0.2867
      5  CB         0.2840   -4.5450   10.2740 C.3    33  ASP33       0.1410
      6  CG         0.1940   -3.5240    9.1580 C.2    33  ASP33       0.3668
      7  OD1        1.1370   -3.3670    8.3600 O.co2  33  ASP33      -0.2456
      8  OD2       -0.8750   -2.8480    9.1220 O.co2  33  ASP33      -0.2456
      9  N          5.3570   -1.9810    9.7780 N.3    35  ASP35      -0.1239
     10  CA         5.0130   -0.5860    9.5240 C.3    35  ASP35       0.1674
     11  C          6.2630    0.2850    9.5620 C.2    35  ASP35       0.2266
     12  O          6.7190    0.6750   10.6360 O.2    35  ASP35      -0.2867
     13  CB         3.9760   -0.1360   10.5430 C.3    35  ASP35       0.1410
     14  CG         3.5670    1.3020   10.3660 C.2    35  ASP35       0.3668
     15  OD1        3.9260    1.8990    9.3320 O.co2  35  ASP35      -0.2456
     16  OD2        2.8560    1.8300   11.2550 O.co2  35  ASP35      -0.2456
     17  N          6.4340    3.2680    8.9420 N.3    37  GLY37      -0.1225
     18  CA         6.0480    4.5970    9.3550 C.3    37  GLY37       0.1811
     19  C          5.7920    4.7660   10.8420 C.2    37  GLY37       0.2280
     20  O          5.3790    5.8500   11.2610 O.2    37  GLY37      -0.2866
     21  N         -2.5140    6.7060   14.9140 N.3    79  TYR79      -0.1227
     22  CA        -2.0230    6.6900   13.5480 C.3    79  TYR79       0.1736
     23  C         -2.7570    7.7290   12.7100 C.2    79  TYR79       0.2596
     24  O         -3.7940    8.2730   13.1020 O.2    79  TYR79      -0.2718
     25  CB        -2.1730    5.2880   12.9590 C.3    79  TYR79       0.0548
     26  CG        -1.3980    4.2470   13.7410 C.ar   79  TYR79      -0.0200
     27  CD1       -2.0230    3.4420   14.6810 C.ar   79  TYR79      -0.0009
     28  CD2       -0.0380    4.0820   13.5420 C.ar   79  TYR79      -0.0009
     29  CE1       -1.3150    2.4960   15.4070 C.ar   79  TYR79       0.0417
     30  CE2        0.6850    3.1390   14.2630 C.ar   79  TYR79       0.0417
     31  CZ         0.0310    2.3410   15.1890 C.ar   79  TYR79       0.1957
     32  OH         0.7030    1.3870   15.9280 O.3    79  TYR79      -0.2866
     33  N         -2.1930    7.9990   11.5330 N.am   80  GLY80      -0.1942
     34  CA        -2.6670    9.0880   10.6980 C.3    80  GLY80       0.2014
     35  C         -4.1150    8.9700   10.2820 C.2    80  GLY80       0.2638
     36  O         -4.7220    9.9710    9.8870 O.2    80  GLY80      -0.2714
     37  N         -4.6870    7.7740   10.3520 N.am   81  ASP81      -0.1971
     38  CA        -6.0480    7.5480    9.8970 C.3    81  ASP81       0.1709
     39  C         -7.0670    7.5930   11.0240 C.2    81  ASP81       0.2293
     40  O         -8.2370    7.2630   10.7980 O.2    81  ASP81      -0.2864
     41  CB        -6.1380    6.2070    9.1910 C.3    81  ASP81       0.1436
     42  CG        -5.6810    5.0710   10.0570 C.2    81  ASP81       0.3671
     43  OD1       -5.4230    5.2700   11.2650 O.co2  81  ASP81      -0.2456
     44  OD2       -5.5840    3.9610    9.5250 O.co2  81  ASP81      -0.2456
     45  N         -6.9430    5.7660   13.8570 N.3    83  SER83      -0.1217
     46  CA        -6.9430    4.5880   14.7100 C.3    83  SER83       0.1889
     47  C         -5.9240    4.7610   15.8320 C.2    83  SER83       0.2288
     48  O         -5.0170    5.5950   15.7550 O.2    83  SER83      -0.2866
     49  CB        -6.6550    3.3320   13.8940 C.3    83  SER83       0.2089
     50  OG        -5.3420    3.3240   13.3570 O.3    83  SER83      -0.2183
     51  N        -11.4340    0.2610   14.5310 N.3   115  SER115     -0.1202
     52  CA       -10.9470   -0.2910   13.2700 C.3   115  SER115      0.2020
     53  C         -9.9110   -1.3870   13.4800 C.2   115  SER115      0.2618
     54  O         -9.7280   -2.2230   12.5960 O.2   115  SER115     -0.2717
     55  CB       -10.4240    0.8110   12.3470 C.3   115  SER115      0.2103
     56  OG        -9.2300    1.3720   12.8430 O.3   115  SER115     -0.2182
     57  N         -9.2300   -1.4120   14.6270 N.am  116  PHE116     -0.1975
     58  CA        -8.3790   -2.5520   14.9450 C.3   116  PHE116      0.1639
     59  C         -9.2290   -3.7700   15.2880 C.2   116  PHE116      0.2290
     60  O         -8.9890   -4.8670   14.7720 O.2   116  PHE116     -0.2864
     61  CB        -7.3900   -2.1950   16.0610 C.3   116  PHE116      0.0560
     62  CG        -6.2320   -1.3660   15.5850 C.ar  116  PHE116     -0.0200
     63  CD1       -5.3230   -1.8850   14.6840 C.ar  116  PHE116     -0.0042
     64  CD2       -6.0530   -0.0610   16.0280 C.ar  116  PHE116     -0.0042
     65  CE1       -4.2710   -1.1350   14.2230 C.ar  116  PHE116     -0.0003
     66  CE2       -5.0040    0.6980   15.5650 C.ar  116  PHE116     -0.0003
     67  CZ        -4.1020    0.1590   14.6610 C.ar  116  PHE116     -0.0000
     68  N        -10.4880   -5.5270   12.1920 N.3   119  ASP119     -0.1239
     69  CA        -9.5310   -6.2240   11.3250 C.3   119  ASP119      0.1674
     70  C         -9.1190   -7.5130   12.0290 C.2   119  ASP119      0.2266
     71  O         -8.1110   -7.5600   12.7350 O.2   119  ASP119     -0.2867
     72  CB        -8.2990   -5.3670   11.0620 C.3   119  ASP119      0.1410
     73  CG        -8.5370   -4.2700   10.0670 C.2   119  ASP119      0.3668
     74  OD1       -9.5610   -4.3320    9.3590 O.co2 119  ASP119     -0.2456
     75  OD2       -7.6890   -3.3480    9.9830 O.co2 119  ASP119     -0.2456
     76  N         -5.3180   -8.8510   11.6210 N.3   122  ILE122     -0.1245
     77  CA        -4.1410   -8.1100   12.0690 C.3   122  ILE122      0.1561
     78  C         -4.0580   -8.2180   13.5870 C.2   122  ILE122      0.2260
     79  O         -4.9300   -7.7130   14.3090 O.2   122  ILE122     -0.2867
     80  CB        -4.1660   -6.6560   11.5840 C.3   122  ILE122      0.0252
     81  CG1       -4.0140   -6.6170   10.0620 C.3   122  ILE122      0.0019
     82  CG2       -3.0620   -5.8520   12.2610 C.3   122  ILE122      0.0019
     83  CD1       -4.1850   -5.2300    9.4460 C.3   122  ILE122      0.0001
     84  N          1.0230   -4.5710   15.3330 N.3   125  LEU125     -0.1245
     85  CA         1.9280   -3.8670   14.4300 C.3   125  LEU125      0.1561
     86  C          3.3610   -4.0940   14.8720 C.2   125  LEU125      0.2260
     87  O          3.6500   -4.2460   16.0610 O.2   125  LEU125     -0.2867
     88  CB         1.6510   -2.3440   14.4000 C.3   125  LEU125      0.0270
     89  CG         0.6740   -1.9240   13.2800 C.3   125  LEU125      0.0019
     90  CD1       -0.7300   -2.4910   13.5460 C.3   125  LEU125      0.0001
     91  CD2        0.6330   -0.4250   13.0920 C.3   125  LEU125      0.0001
     92  N          6.4660    4.2480    3.6050 N.3   219  ASP219     -0.1239
     93  CA         5.6070    3.8050    4.7080 C.3   219  ASP219      0.1674
     94  C          4.8240    2.5440    4.3520 C.2   219  ASP219      0.2266
     95  O          3.7510    2.6160    3.7420 O.2   219  ASP219     -0.2867
     96  CB         4.6640    4.9140    5.1330 C.3   219  ASP219      0.1410
     97  CG         3.8520    4.5350    6.3360 C.2   219  ASP219      0.3668
     98  OD1        3.0010    5.3460    6.7640 O.co2 219  ASP219     -0.2456
     99  OD2        4.0820    3.4160    6.8640 O.co2 219  ASP219     -0.2456
    100  N          3.1270    0.7860    6.2600 N.3   221  GLY221     -0.1210
    101  CA         1.8960    0.7310    7.0160 C.3   221  GLY221      0.1956
    102  C          0.7700    1.6020    6.5190 C.2   221  GLY221      0.2612
    103  O         -0.3070    1.5880    7.1250 O.2   221  GLY221     -0.2717
    104  N          0.9720    2.3410    5.4360 N.am  222  THR222     -0.1952
    105  CA        -0.0700    3.1260    4.7830 C.3   222  THR222      0.1897
    106  C         -0.4060    2.4520    3.4580 C.2   222  THR222      0.2313
    107  O          0.4960    2.1250    2.6810 O.2   222  THR222     -0.2863
    108  CB         0.4110    4.5630    4.5440 C.3   222  THR222      0.1794
    109  OG1        0.5190    5.2290    5.8070 O.3   222  THR222     -0.2208
    110  CG2       -0.5630    5.3240    3.6640 C.3   222  THR222      0.0378
@<TRIPOS>BOND
     1   107   106    2
     2   106   105    1
     3    92    93    1
     4   110   108    1
     5    95    94    2
     6    94    93    1
     7   108   105    1
     8   108   109    1
     9    93    96    1
    10   105   104    1
    11    96    97    1
    12   104   102   am
    13   100   101    1
    14    97    98   ar
    15    97    99   ar
    16   102   101    1
    17   102   103    2
    18     7     6   ar
    19    17    18    1
    20     8     6   ar
    21     6     5    1
    22    41    38    1
    23    41    42    1
    24    15    14   ar
    25    18    19    1
    26    74    73   ar
    27    83    81    1
    28    10    11    1
    29    10     9    1
    30    10    13    1
    31    44    42   ar
    32    11    12    2
    33    36    35    2
    34    38    37    1
    35    38    39    1
    36    75    73   ar
    37    42    43   ar
    38    81    80    1
    39    73    72    1
    40     2     5    1
    41     2     3    1
    42     2     1    1
    43    35    37   am
    44    35    34    1
    45     3     4    2
    46    14    13    1
    47    14    16   ar
    48    34    33    1
    49    40    39    2
    50    19    20    2
    51    72    69    1
    52    69    70    1
    53    69    68    1
    54    33    23   am
    55    80    77    1
    56    80    82    1
    57    76    77    1
    58    70    71    2
    59    77    78    1
    60    55    56    1
    61    55    52    1
    62    54    53    2
    63    23    24    2
    64    23    22    1
    65    25    22    1
    66    25    26    1
    67    91    89    1
    68    52    53    1
    69    52    51    1
    70    89    90    1
    71    89    88    1
    72    50    49    1
    73    53    57   am
    74    28    26   ar
    75    28    30   ar
    76    22    21    1
    77    78    79    2
    78    26    27   ar
    79    45    46    1
    80    49    46    1
    81    65    67   ar
    82    65    63   ar
    83    30    31   ar
    84    88    85    1
    85    85    86    1
    86    85    84    1
    87    57    58    1
    88    67    66   ar
    89    27    29   ar
    90    63    62   ar
    91    46    47    1
    92    60    59    2
    93    86    87    2
    94    58    59    1
    95    58    61    1
    96    31    29   ar
    97    31    32    1
    98    66    64   ar
    99    62    64   ar
   100    62    61    1
   101    48    47    2
