@<TRIPOS>MOLECULE
tmp/5mb1A01.pdb
 70 65 0 0 0
SMALL
GASTEIGER

@<TRIPOS>ATOM
      1  N         -0.0560    5.9010   11.2720 N.3    22  SER22      -0.1202
      2  CA        -1.4900    5.8140   11.2550 C.3    22  SER22       0.2020
      3  C         -2.0560    5.9920   12.6570 C.2    22  SER22       0.2619
      4  O         -1.4120    5.6250   13.6370 O.2    22  SER22      -0.2717
      5  CB        -1.9570    4.4610   10.7210 C.3    22  SER22       0.2103
      6  OG        -3.4010    4.3070   10.8180 O.3    22  SER22      -0.2182
      7  N         -3.2790    6.4860   12.7360 N.am   23  ALA23      -0.1965
      8  CA        -3.9680    6.5040   14.0010 C.3    23  ALA23       0.1728
      9  C         -4.3530    5.0800   14.4720 C.2    23  ALA23       0.2616
     10  O         -4.5640    4.8630   15.6820 O.2    23  ALA23      -0.2715
     11  CB        -5.2070    7.3750   13.9540 C.3    23  ALA23       0.0334
     12  N         -4.4090    4.1210   13.5630 N.am   24  GLY24      -0.1955
     13  CA        -4.8470    2.7740   13.8840 C.3    24  GLY24       0.1869
     14  C         -3.6750    1.8910   14.3120 C.2    24  GLY24       0.2309
     15  O         -2.5530    2.0750   13.8230 O.2    24  GLY24      -0.2863
     16  N         -5.5930   -4.1040   10.5210 N.3    69  VAL69      -0.1231
     17  CA        -5.9020   -3.1750   11.6100 C.3    69  VAL69       0.1692
     18  C         -7.2080   -3.6800   12.1760 C.2    69  VAL69       0.2592
     19  O         -8.2140   -3.7000   11.4650 O.2    69  VAL69      -0.2718
     20  CB        -6.0710   -1.7290   11.0810 C.3    69  VAL69       0.0266
     21  CG1       -6.4960   -0.7830   12.2030 C.3    69  VAL69       0.0020
     22  CG2       -4.7730   -1.2600   10.4580 C.3    69  VAL69       0.0020
     23  N         -7.1360   -4.1370   13.4330 N.am   70  ASN70      -0.1974
     24  CA        -8.3030   -4.6550   14.1560 C.3    70  ASN70       0.1688
     25  C         -9.0400   -5.6980   13.3190 C.2    70  ASN70       0.2292
     26  O        -10.2890   -5.6640   13.1740 O.2    70  ASN70      -0.2864
     27  CB        -9.2460   -3.5030   14.5100 C.3    70  ASN70       0.1181
     28  CG        -8.5630   -2.4440   15.4210 C.2    70  ASN70       0.2629
     29  OD1       -7.7600   -2.7860   16.3100 O.2    70  ASN70      -0.2716
     30  ND2       -8.7550   -1.1680   15.0930 N.am   70  ASN70      -0.0877
     31  N         -9.0550   -6.1540   10.0870 N.3    72  ARG72      -0.1245
     32  CA        -9.3900   -5.7920    8.6910 C.3    72  ARG72       0.1563
     33  C         -8.1350   -5.7260    7.8830 C.2    72  ARG72       0.2260
     34  O         -7.2520   -4.9830    8.2680 O.2    72  ARG72      -0.2867
     35  CB       -10.1220   -4.4570    8.6250 C.3    72  ARG72       0.0307
     36  CG       -11.4680   -4.5980    9.3910 C.3    72  ARG72       0.0489
     37  CD       -12.2500   -3.3640    9.7870 C.3    72  ARG72       0.2205
     38  NE       -12.2230   -2.3180    8.7830 N.pl3  72  ARG72      -0.0865
     39  CZ       -12.9990   -1.2210    8.7930 C.cat  72  ARG72       0.5346
     40  NH1      -12.8490   -0.3300    7.8160 N.pl3  72  ARG72       0.1354
     41  NH2      -13.8990   -0.9870    9.7640 N.pl3  72  ARG72       0.1354
     42  N         -4.8180    1.5470    5.2910 N.3    96  ASP96      -0.1225
     43  CA        -5.8470    1.1050    6.1720 C.3    96  ASP96       0.1805
     44  C         -7.1650    1.9020    6.0510 C.2    96  ASP96       0.2598
     45  O         -8.1690    1.5750    6.7030 O.2    96  ASP96      -0.2718
     46  CB        -5.3320    1.0440    7.6130 C.3    96  ASP96       0.1424
     47  CG        -4.9900    2.3860    8.2070 C.2    96  ASP96       0.3668
     48  OD1       -5.4910    3.4300    7.7340 O.co2  96  ASP96      -0.2456
     49  OD2       -4.2360    2.3920    9.1550 O.co2  96  ASP96      -0.2456
     50  N         -7.1630    2.9420    5.2280 N.am   97  SER97      -0.1938
     51  CA        -8.3020    3.8560    5.1290 C.3    97  SER97       0.2055
     52  C         -8.4140    4.4230    3.7010 C.2    97  SER97       0.2643
     53  O         -8.2960    3.6760    2.7510 O.2    97  SER97      -0.2714
     54  CB        -8.1500    4.9310    6.1950 C.3    97  SER97       0.2130
     55  OG        -9.3350    5.6850    6.2840 O.3    97  SER97      -0.2179
     56  N         -8.6940    5.7200    3.5900 N.am   98  THR98      -0.1950
     57  CA        -9.0960    6.3390    2.3410 C.3    98  THR98       0.1897
     58  C         -8.1660    7.4220    1.8150 C.2    98  THR98       0.2313
     59  O         -8.3860    7.8630    0.6710 O.2    98  THR98      -0.2863
     60  CB       -10.5010    6.9610    2.4970 C.3    98  THR98       0.1794
     61  OG1      -10.4870    7.8690    3.5780 O.3    98  THR98      -0.2208
     62  CG2      -11.5280    5.8540    2.7770 C.3    98  THR98       0.0378
     63  N          0.7130    3.3610    6.1470 N.3   104  ASP104     -0.1239
     64  CA         0.0750    3.1640    7.4760 C.3   104  ASP104      0.1674
     65  C          0.8730    2.1230    8.2690 C.2   104  ASP104      0.2266
     66  O          1.1240    2.3000    9.4740 O.2   104  ASP104     -0.2867
     67  CB        -1.3860    2.8160    7.2490 C.3   104  ASP104      0.1410
     68  CG        -2.1530    3.9690    6.6140 C.2   104  ASP104      0.3668
     69  OD1       -1.8490    5.1170    6.8990 O.co2 104  ASP104     -0.2456
     70  OD2       -3.0460    3.7080    5.8070 O.co2 104  ASP104     -0.2456
@<TRIPOS>BOND
     1    59    58    2
     2    58    57    1
     3    57    60    1
     4    57    56    1
     5    60    62    1
     6    60    61    1
     7    53    52    2
     8    56    52   am
     9    52    51    1
    10    51    50    1
    11    51    54    1
    12    50    44   am
    13    42    43    1
    14    70    68   ar
    15    44    43    1
    16    44    45    2
    17    63    64    1
    18    43    46    1
    19    54    55    1
    20    68    69   ar
    21    68    67    1
    22    67    64    1
    23    64    65    1
    24    46    47    1
    25    48    47   ar
    26    40    39    1
    27    33    34    2
    28    33    32    1
    29    47    49   ar
    30    65    66    2
    31    35    32    1
    32    35    36    1
    33    32    31    1
    34    38    39    2
    35    38    37    1
    36    39    41    1
    37    36    37    1
    38    22    20    1
    39    16    17    1
    40     5     6    1
    41     5     2    1
    42    20    17    1
    43    20    21    1
    44     2     1    1
    45     2     3    1
    46    19    18    2
    47    17    18    1
    48    18    23   am
    49     3     7   am
    50     3     4    2
    51     7     8    1
    52    26    25    2
    53    25    24    1
    54    23    24    1
    55    12    13    1
    56    12     9   am
    57    15    14    2
    58    13    14    1
    59    11     8    1
    60     8     9    1
    61    24    27    1
    62     9    10    2
    63    27    28    1
    64    30    28   am
    65    28    29    2
