@<TRIPOS>MOLECULE
tmp/5mb3A00.pdb
 113 108 0 0 0
SMALL
GASTEIGER

@<TRIPOS>ATOM
      1  N         -7.6810   -6.6700   -1.9160 N.3    13  LEU13      -0.1245
      2  CA        -7.3090   -5.3270   -2.3420 C.3    13  LEU13       0.1561
      3  C         -5.9030   -4.9340   -1.9240 C.2    13  LEU13       0.2260
      4  O         -5.4640   -3.8250   -2.2430 O.2    13  LEU13      -0.2867
      5  CB        -8.2780   -4.3030   -1.7510 C.3    13  LEU13       0.0270
      6  CG        -9.7410   -4.4480   -2.1490 C.3    13  LEU13       0.0019
      7  CD1      -10.5870   -3.4280   -1.4030 C.3    13  LEU13       0.0001
      8  CD2       -9.9160   -4.3200   -3.6520 C.3    13  LEU13       0.0001
      9  N         -5.1240   -4.2760    1.1850 N.3    15  ASP15      -0.1239
     10  CA        -5.3210   -3.1620    2.1120 C.3    15  ASP15       0.1674
     11  C         -4.1890   -3.0640    3.1330 C.2    15  ASP15       0.2266
     12  O         -3.8890   -1.9700    3.6440 O.2    15  ASP15      -0.2867
     13  CB        -6.6700   -3.2990    2.8080 C.3    15  ASP15       0.1410
     14  CG        -7.8220   -2.8370    1.9320 C.2    15  ASP15       0.3668
     15  OD1       -7.6910   -1.7890    1.2610 O.co2  15  ASP15      -0.2456
     16  OD2       -8.8710   -3.5180    1.9160 O.co2  15  ASP15      -0.2456
     17  N         -1.6750    2.1720    3.0970 N.3   223  THR223     -0.1203
     18  CA        -2.1000    1.4220    1.9130 C.3   223  THR223      0.1994
     19  C         -1.7910    2.1710    0.6210 C.2   223  THR223      0.2617
     20  O         -1.3320    1.5760   -0.3660 O.2   223  THR223     -0.2717
     21  CB        -3.6160    1.1670    1.9750 C.3   223  THR223      0.1784
     22  OG1       -4.0140    0.6900    3.2630 O.3   223  THR223     -0.2211
     23  CG2       -4.0460    0.1740    0.8970 C.3   223  THR223      0.0376
     24  N         -2.1480    3.4520    0.5790 N.am  224  LEU224     -0.1979
     25  CA        -2.2180    4.2240   -0.6530 C.3   224  LEU224      0.1596
     26  C         -0.9960    5.1290   -0.8320 C.2   224  LEU224      0.2287
     27  O         -0.1090    5.2300    0.0250 O.2   224  LEU224     -0.2864
     28  CB        -3.5250    5.0230   -0.7160 C.3   224  LEU224      0.0297
     29  CG        -4.7950    4.2100   -0.4900 C.3   224  LEU224      0.0022
     30  CD1       -6.0200    5.1040   -0.6740 C.3   224  LEU224      0.0001
     31  CD2       -4.8650    3.0050   -1.4330 C.3   224  LEU224      0.0001
     32  N          0.0250    8.9470   -1.3060 N.3   226  TYR226     -0.1241
     33  CA        -0.4710   10.2900   -1.0120 C.3   226  TYR226      0.1605
     34  C          0.5520   11.3160   -1.4790 C.2   226  TYR226      0.2264
     35  O          1.6870   11.3280   -0.9770 O.2   226  TYR226     -0.2867
     36  CB        -0.7460   10.4710    0.4830 C.3   226  TYR226      0.0534
     37  CG        -1.8570    9.5930    1.0020 C.ar  226  TYR226     -0.0201
     38  CD1       -3.1630   10.0540    1.0390 C.ar  226  TYR226     -0.0009
     39  CD2       -1.6080    8.2980    1.4450 C.ar  226  TYR226     -0.0009
     40  CE1       -4.1950    9.2540    1.5040 C.ar  226  TYR226      0.0417
     41  CE2       -2.6350    7.4880    1.8850 C.ar  226  TYR226      0.0417
     42  CZ        -3.9210    7.9720    1.9320 C.ar  226  TYR226      0.1957
     43  OH        -4.9190    7.1400    2.3910 O.3   226  TYR226     -0.2866
     44  N        -17.0720   10.6230   -0.2120 N.3   248  VAL248     -0.1231
     45  CA       -16.2970    9.3980   -0.0990 C.3   248  VAL248      0.1692
     46  C        -14.9620    9.6380    0.6090 C.2   248  VAL248      0.2593
     47  O        -14.4530    8.7390    1.2840 O.2   248  VAL248     -0.2718
     48  CB       -16.1090    8.7700   -1.4920 C.3   248  VAL248      0.0266
     49  CG1      -15.1740    7.5780   -1.4230 C.3   248  VAL248      0.0020
     50  CG2      -17.4650    8.3490   -2.0810 C.3   248  VAL248      0.0020
     51  N        -14.3900   10.8310    0.4850 N.am  249  GLY249     -0.1942
     52  CA       -13.1220   11.1550    1.1110 C.3   249  GLY249      0.2014
     53  C        -11.9120   11.1220    0.2000 C.2   249  GLY249      0.2639
     54  O        -10.7850   10.9950    0.7020 O.2   249  GLY249     -0.2714
     55  N        -12.1030   11.2310   -1.1060 N.am  250  GLY250     -0.1939
     56  CA       -10.9930   11.2680   -2.0280 C.3   250  GLY250      0.2014
     57  C        -11.4600   11.0000   -3.4440 C.2   250  GLY250      0.2638
     58  O        -12.6530   11.0200   -3.7530 O.2   250  GLY250     -0.2714
     59  N        -10.4800   10.7520   -4.2950 N.am  251  TYR251     -0.1973
     60  CA       -10.7450   10.4820   -5.6980 C.3   251  TYR251      0.1639
     61  C        -11.3510    9.1050   -5.8890 C.2   251  TYR251      0.2290
     62  O        -10.8800    8.1010   -5.3330 O.2   251  TYR251     -0.2864
     63  CB        -9.4630   10.6000   -6.5140 C.3   251  TYR251      0.0560
     64  CG        -9.0690   12.0210   -6.8310 C.ar  251  TYR251     -0.0198
     65  CD1       -8.2580   12.7500   -5.9760 C.ar  251  TYR251     -0.0009
     66  CD2       -9.5050   12.6410   -7.9930 C.ar  251  TYR251     -0.0009
     67  CE1       -7.8920   14.0460   -6.2780 C.ar  251  TYR251      0.0417
     68  CE2       -9.1410   13.9380   -8.3040 C.ar  251  TYR251      0.0417
     69  CZ        -8.3320   14.6380   -7.4400 C.ar  251  TYR251      0.1957
     70  OH        -7.9640   15.9300   -7.7420 O.3   251  TYR251     -0.2866
     71  N         -8.6610    0.3150   -6.2000 N.3   280  PHE280     -0.1241
     72  CA        -9.0480   -0.2090   -4.8900 C.3   280  PHE280      0.1605
     73  C        -10.5110   -0.6160   -4.8210 C.2   280  PHE280      0.2264
     74  O        -11.0400   -0.8300   -3.7250 O.2   280  PHE280     -0.2867
     75  CB        -8.5770    0.6910   -3.7470 C.3   280  PHE280      0.0534
     76  CG        -7.1360    0.4560   -3.4670 C.ar  280  PHE280     -0.0203
     77  CD1       -6.1750    0.9490   -4.3360 C.ar  280  PHE280     -0.0042
     78  CD2       -6.7250   -0.4060   -2.4570 C.ar  280  PHE280     -0.0042
     79  CE1       -4.8430    0.6470   -4.1700 C.ar  280  PHE280     -0.0003
     80  CE2       -5.3770   -0.7050   -2.2830 C.ar  280  PHE280     -0.0003
     81  CZ        -4.4530   -0.1730   -3.1440 C.ar  280  PHE280     -0.0000
     82  N        -16.6130    1.4180   -4.1160 N.3   283  ILE283     -0.1245
     83  CA       -16.6770    2.1750   -2.8630 C.3   283  ILE283      0.1561
     84  C        -17.5740    1.4840   -1.8440 C.2   283  ILE283      0.2260
     85  O        -17.3870    1.6450   -0.6350 O.2   283  ILE283     -0.2867
     86  CB       -17.0920    3.6440   -3.0980 C.3   283  ILE283      0.0252
     87  CG1      -18.4970    3.7460   -3.7020 C.3   283  ILE283      0.0019
     88  CG2      -16.0560    4.3540   -3.9730 C.3   283  ILE283      0.0019
     89  CD1      -19.0320    5.1430   -3.7700 C.3   283  ILE283      0.0001
     90  N        -12.6810    3.1690   -5.6940 N.3   291  PHE291     -0.1227
     91  CA       -11.7080    3.9230   -4.8940 C.3   291  PHE291      0.1736
     92  C        -10.3870    4.0780   -5.6630 C.2   291  PHE291      0.2596
     93  O         -9.8350    3.0880   -6.1530 O.2   291  PHE291     -0.2718
     94  CB       -11.3510    3.1380   -3.6080 C.3   291  PHE291      0.0547
     95  CG       -12.4300    3.0510   -2.5210 C.ar  291  PHE291     -0.0202
     96  CD1      -12.9600    4.1850   -1.9070 C.ar  291  PHE291     -0.0042
     97  CD2      -12.8000    1.8030   -2.0250 C.ar  291  PHE291     -0.0042
     98  CE1      -13.8950    4.0640   -0.8700 C.ar  291  PHE291     -0.0003
     99  CE2      -13.7190    1.6900   -0.9910 C.ar  291  PHE291     -0.0003
    100  CZ       -14.2630    2.8170   -0.4170 C.ar  291  PHE291     -0.0000
    101  N         -9.8290    5.2980   -5.7270 N.am  292  GLY292     -0.1957
    102  CA        -8.5020    5.4600   -6.3060 C.3   292  GLY292      0.1869
    103  C         -7.3690    5.2020   -5.3240 C.2   292  GLY292      0.2309
    104  O         -7.4520    5.4850   -4.1280 O.2   292  GLY292     -0.2863
    105  N         -4.0000    9.5150   -3.8910 N.3   295  GLN295     -0.1245
    106  CA        -4.8470   10.4680   -3.2040 C.3   295  GLN295      0.1566
    107  C         -4.0040   11.6680   -2.8040 C.2   295  GLN295      0.2260
    108  O         -2.7740   11.5890   -2.7140 O.2   295  GLN295     -0.2867
    109  CB        -5.4910    9.8320   -1.9720 C.3   295  GLN295      0.0367
    110  CG        -6.4230    8.6780   -2.2930 C.3   295  GLN295      0.0905
    111  CD        -7.6660    9.1020   -3.0620 C.2   295  GLN295      0.2608
    112  OE1       -8.0050   10.2850   -3.1390 O.2   295  GLN295     -0.2717
    113  NE2       -8.3670    8.1260   -3.6190 N.am  295  GLN295     -0.0878
@<TRIPOS>BOND
     1    68    66   ar
     2    68    69   ar
     3    66    64   ar
     4    70    69    1
     5    69    67   ar
     6    64    63    1
     7    64    65   ar
     8    63    60    1
     9   102   101    1
    10   102   103    1
    11    67    65   ar
    12    71    72    1
    13    93    92    2
    14    61    60    1
    15    61    62    2
    16   101    92   am
    17    60    59    1
    18    90    91    1
    19    92    91    1
    20   103   104    2
    21    91    94    1
    22    72    73    1
    23    72    75    1
    24    73    74    2
    25    77    79   ar
    26    77    76   ar
    27    59    57   am
    28    79    81   ar
    29    82    83    1
    30    88    86    1
    31   105   106    1
    32    89    87    1
    33    58    57    2
    34    75    76    1
    35    87    86    1
    36     8     6    1
    37   113   111   am
    38    94    95    1
    39    76    78   ar
    40    57    56    1
    41   106   107    1
    42   106   109    1
    43    81    80   ar
    44   112   111    2
    45    86    83    1
    46   111   110    1
    47    83    84    1
    48   107   108    2
    49    95    97   ar
    50    95    96   ar
    51    78    80   ar
    52     2     3    1
    53     2     1    1
    54     2     5    1
    55   110   109    1
    56     4     3    2
    57     6     5    1
    58     6     7    1
    59    50    48    1
    60    56    55    1
    61    97    99   ar
    62    96    98   ar
    63    84    85    2
    64    48    49    1
    65    48    45    1
    66    34    33    1
    67    34    35    2
    68    31    29    1
    69    32    33    1
    70    55    53   am
    71    33    36    1
    72    99   100   ar
    73    98   100   ar
    74    26    25    1
    75    26    27    2
    76    28    25    1
    77    28    29    1
    78    30    29    1
    79    25    24    1
    80    20    19    2
    81    44    45    1
    82    45    46    1
    83    53    54    2
    84    53    52    1
    85    36    37    1
    86    51    46   am
    87    51    52    1
    88    24    19   am
    89    46    47    2
    90    19    18    1
    91    23    21    1
    92    37    38   ar
    93    37    39   ar
    94    38    40   ar
    95     9    10    1
    96    15    14   ar
    97    39    41   ar
    98    40    42   ar
    99    41    42   ar
   100    18    21    1
   101    18    17    1
   102    16    14   ar
   103    14    13    1
   104    42    43    1
   105    21    22    1
   106    10    13    1
   107    10    11    1
   108    11    12    2
