@<TRIPOS>MOLECULE
tmp/5mb4A01.pdb
 92 91 0 0 0
SMALL
GASTEIGER

@<TRIPOS>ATOM
      1  N        -21.8050  101.7840   22.0360 N.3   159  ASP159     -0.1239
      2  CA       -22.7960  101.9690   21.0090 C.3   159  ASP159      0.1674
      3  C        -24.1290  101.4200   21.4720 C.2   159  ASP159      0.2266
      4  O        -24.2240  100.8820   22.6150 O.2   159  ASP159     -0.2867
      5  CB       -22.3430  101.3410   19.6650 C.3   159  ASP159      0.1410
      6  CG       -22.7550  102.1870   18.4760 C.2   159  ASP159      0.3668
      7  OD1      -23.7890  102.8490   18.5470 O.co2 159  ASP159     -0.2456
      8  OD2      -22.0650  102.1770   17.4570 O.co2 159  ASP159     -0.2456
      9  N        -25.5040  107.6040   21.6830 N.3   164  GLN164     -0.1231
     10  CA       -25.3970  107.4310   20.2340 C.3   164  GLN164      0.1698
     11  C        -26.7380  107.5920   19.5050 C.2   164  GLN164      0.2593
     12  O        -26.8730  107.1590   18.3810 O.2   164  GLN164     -0.2718
     13  CB       -24.7120  106.0880   19.8920 C.3   164  GLN164      0.0381
     14  CG       -23.3350  105.9100   20.5170 C.3   164  GLN164      0.0905
     15  CD       -23.3830  105.3830   21.9370 C.2   164  GLN164      0.2608
     16  OE1      -24.2770  104.6510   22.2990 O.2   164  GLN164     -0.2717
     17  NE2      -22.3910  105.7000   22.7190 N.am  164  GLN164     -0.0878
     18  N        -27.7080  108.2190   20.1350 N.am  165  GLY165     -0.1942
     19  CA       -28.9840  108.5470   19.4970 C.3   165  GLY165      0.2014
     20  C        -30.0930  107.5370   19.6110 C.2   165  GLY165      0.2638
     21  O        -31.2040  107.7930   19.1180 O.2   165  GLY165     -0.2714
     22  N        -29.8330  106.3860   20.2480 N.am  166  TRP166     -0.1973
     23  CA       -30.8690  105.3550   20.3980 C.3   166  TRP166      0.1640
     24  C        -32.0070  105.7570   21.3540 C.2   166  TRP166      0.2290
     25  O        -31.7650  106.1490   22.4950 O.2   166  TRP166     -0.2864
     26  CB       -30.2450  103.9960   20.8240 C.3   166  TRP166      0.0576
     27  CG       -29.2950  103.5040   19.7520 C.ar  166  TRP166      0.0006
     28  CD1      -28.0330  103.9840   19.4830 C.ar  166  TRP166      0.0946
     29  CD2      -29.5630  102.5080   18.7600 C.ar  166  TRP166      0.0152
     30  NE1      -27.4950  103.3170   18.4010 N.ar  166  TRP166     -0.2442
     31  CE2      -28.4250  102.4210   17.9310 C.ar  166  TRP166      0.0810
     32  CE3      -30.6570  101.6750   18.4900 C.ar  166  TRP166      0.0012
     33  CZ2      -28.3530  101.5380   16.8570 C.ar  166  TRP166      0.0191
     34  CZ3      -30.5870  100.8090   17.4060 C.ar  166  TRP166      0.0001
     35  CH2      -29.4430  100.7510   16.6040 C.ar  166  TRP166      0.0015
     36  N        -36.5060  103.1540   17.8090 N.3   171  HIS171     -0.1241
     37  CA       -35.5080  102.1120   17.4500 C.3   171  HIS171      0.1621
     38  C        -35.7680  100.8600   18.2410 C.2   171  HIS171      0.2264
     39  O        -36.4530  100.9150   19.2450 O.2   171  HIS171     -0.2867
     40  CB       -34.0900  102.6240   17.7750 C.3   171  HIS171      0.0745
     41  CG       -33.7760  103.9460   17.1600 C.ar  171  HIS171      0.0817
     42  ND1      -33.2990  105.0110   17.8940 N.ar  171  HIS171     -0.2268
     43  CD2      -33.9230  104.4030   15.8950 C.ar  171  HIS171      0.1154
     44  CE1      -33.1500  106.0580   17.1130 C.ar  171  HIS171      0.1986
     45  NE2      -33.5230  105.7220   15.8910 N.ar  171  HIS171     -0.2212
     46  N        -31.7310  100.8630   13.9280 N.3   190  GLY190     -0.1210
     47  CA       -31.3930  102.2440   14.2560 C.3   190  GLY190      0.1956
     48  C        -32.1570  103.2350   13.4110 C.2   190  GLY190      0.2612
     49  O        -33.2600  102.9500   12.9100 O.2   190  GLY190     -0.2717
     50  N        -31.5550  104.4040   13.2450 N.am  191  GLU191     -0.1965
     51  CA       -32.2190  105.5090   12.5750 C.3   191  GLU191      0.1733
     52  C        -32.3040  105.2400   11.0840 C.2   191  GLU191      0.2616
     53  O        -33.3740  105.3220   10.5010 O.2   191  GLU191     -0.2715
     54  CB       -31.4820  106.8310   12.8540 C.3   191  GLU191      0.0429
     55  CG       -32.1690  108.0870   12.3330 C.3   191  GLU191      0.1163
     56  CD       -33.4880  108.3870   13.0280 C.2   191  GLU191      0.3649
     57  OE1      -33.7290  107.9780   14.2030 O.co2 191  GLU191     -0.2457
     58  OE2      -34.3140  109.0290   12.3630 O.co2 191  GLU191     -0.2457
     59  N        -31.1770  104.9120   10.4860 N.am  192  ASN192     -0.1958
     60  CA       -31.0810  104.6870    9.0130 C.3   192  ASN192      0.1819
     61  C        -30.5220  103.3340    8.5560 C.2   192  ASN192      0.2621
     62  O        -30.3670  103.1390    7.3790 O.2   192  ASN192     -0.2715
     63  CB       -30.2140  105.7610    8.4000 C.3   192  ASN192      0.1195
     64  CG       -30.7940  107.1220    8.5760 C.2   192  ASN192      0.2630
     65  OD1      -30.1950  107.9710    9.1910 O.2   192  ASN192     -0.2716
     66  ND2      -31.9540  107.3230    8.0630 N.am  192  ASN192     -0.0877
     67  N        -30.2200  102.4420    9.4980 N.am  193  HIS193     -0.1973
     68  CA       -29.6560  101.1390    9.2530 C.3   193  HIS193      0.1656
     69  C        -29.9330  100.1900   10.4100 C.2   193  HIS193      0.2291
     70  O        -30.0710  100.6130   11.5620 O.2   193  HIS193     -0.2864
     71  CB       -28.1230  101.1620    9.1230 C.3   193  HIS193      0.0771
     72  CG       -27.5980  102.2180    8.2280 C.ar  193  HIS193      0.0820
     73  ND1      -27.3140  101.9960    6.8970 N.ar  193  HIS193     -0.2267
     74  CD2      -27.2580  103.5020    8.4790 C.ar  193  HIS193      0.1154
     75  CE1      -26.8610  103.1080    6.3530 C.ar  193  HIS193      0.1986
     76  NE2      -26.8500  104.0470    7.2850 N.ar  193  HIS193     -0.2212
     77  N        -27.9840   97.7570   12.5050 N.3   195  PHE195     -0.1241
     78  CA       -26.6020   97.5020   12.8800 C.3   195  PHE195      0.1605
     79  C        -26.5050   96.2230   13.6680 C.2   195  PHE195      0.2264
     80  O        -27.4220   95.8700   14.4140 O.2   195  PHE195     -0.2867
     81  CB       -26.0460   98.6090   13.7800 C.3   195  PHE195      0.0534
     82  CG       -26.0140   99.9590   13.1370 C.ar  195  PHE195     -0.0203
     83  CD1      -27.1340  100.7840   13.1570 C.ar  195  PHE195     -0.0042
     84  CD2      -24.8750  100.4120   12.5330 C.ar  195  PHE195     -0.0042
     85  CE1      -27.1030  102.0170   12.5860 C.ar  195  PHE195     -0.0003
     86  CE2      -24.8550  101.6510   11.9510 C.ar  195  PHE195     -0.0003
     87  CZ       -25.9800  102.4480   11.9760 C.ar  195  PHE195     -0.0000
     88  N        -19.8040   98.0320   15.9280 N.3   208  ALA208     -0.1245
     89  CA       -21.0410   97.8040   15.2490 C.3   208  ALA208      0.1562
     90  C        -20.8240   97.9140   13.7720 C.2   208  ALA208      0.2260
     91  O        -19.9890   98.6910   13.3490 O.2   208  ALA208     -0.2867
     92  CB       -22.0780   98.8190   15.6780 C.3   208  ALA208      0.0290
@<TRIPOS>BOND
     1    75    73   ar
     2    75    76   ar
     3    73    72   ar
     4    76    74   ar
     5    62    61    2
     6    66    64   am
     7    72    74   ar
     8    72    71    1
     9    63    64    1
    10    63    60    1
    11    61    60    1
    12    61    67   am
    13    64    65    2
    14    60    59    1
    15    71    68    1
    16    68    67    1
    17    68    69    1
    18    69    70    2
    19    59    52   am
    20    53    52    2
    21    52    51    1
    22    86    87   ar
    23    86    84   ar
    24    87    85   ar
    25    55    54    1
    26    55    56    1
    27    58    56   ar
    28    77    78    1
    29    84    82   ar
    30    51    54    1
    31    51    50    1
    32    85    83   ar
    33    78    79    1
    34    78    81    1
    35    49    48    2
    36    56    57   ar
    37    82    83   ar
    38    82    81    1
    39    50    48   am
    40    91    90    2
    41    48    47    1
    42    79    80    2
    43    90    89    1
    44    46    47    1
    45    89    92    1
    46    89    88    1
    47    45    43   ar
    48    45    44   ar
    49    43    41   ar
    50    35    33   ar
    51    35    34   ar
    52    33    31   ar
    53    44    42   ar
    54    41    40    1
    55    41    42   ar
    56    34    32   ar
    57    37    40    1
    58    37    36    1
    59    37    38    1
    60     8     6   ar
    61    31    30   ar
    62    31    29   ar
    63    38    39    2
    64    12    11    2
    65    30    28   ar
    66     6     7   ar
    67     6     5    1
    68    32    29   ar
    69    29    27   ar
    70    21    20    2
    71    28    27   ar
    72    19    20    1
    73    19    18    1
    74    11    18   am
    75    11    10    1
    76    20    22   am
    77     5     2    1
    78    27    26    1
    79    13    10    1
    80    13    14    1
    81    10     9    1
    82    22    23    1
    83    23    26    1
    84    23    24    1
    85    14    15    1
    86     2     3    1
    87     2     1    1
    88    24    25    2
    89     3     4    2
    90    15    16    2
    91    15    17   am
