@<TRIPOS>MOLECULE
tmp/5mb4A04.pdb
 89 86 0 0 0
SMALL
GASTEIGER

@<TRIPOS>ATOM
      1  N        -49.9000   90.0230    3.8580 N.3   270  ASP270     -0.1239
      2  CA       -50.8010   89.8730    4.9780 C.3   270  ASP270      0.1674
      3  C        -50.0320   90.3270    6.2180 C.2   270  ASP270      0.2266
      4  O        -48.8390   90.5990    6.1490 O.2   270  ASP270     -0.2867
      5  CB       -51.3280   88.4400    5.0950 C.3   270  ASP270      0.1410
      6  CG       -52.8630   88.3760    5.5420 C.2   270  ASP270      0.3668
      7  OD1      -53.3790   89.1970    6.4090 O.co2 270  ASP270     -0.2456
      8  OD2      -53.5580   87.4830    5.0150 O.co2 270  ASP270     -0.2456
      9  N        -53.6330   95.1740    5.5320 N.3   275  SER275     -0.1202
     10  CA       -54.6730   94.1700    5.8220 C.3   275  SER275      0.2020
     11  C        -55.4000   94.3950    7.1390 C.2   275  SER275      0.2619
     12  O        -56.0920   93.4920    7.6250 O.2   275  SER275     -0.2717
     13  CB       -54.0700   92.7550    5.7900 C.3   275  SER275      0.2103
     14  OG       -53.3380   92.5430    4.5820 O.3   275  SER275     -0.2182
     15  N        -55.2090   95.5650    7.7430 N.am  276  GLY276     -0.1942
     16  CA       -55.9680   95.9870    8.9590 C.3   276  GLY276      0.2014
     17  C        -55.2900   95.8150   10.3020 C.2   276  GLY276      0.2638
     18  O        -55.9310   95.9540   11.3770 O.2   276  GLY276     -0.2714
     19  N        -54.0080   95.4430   10.2670 N.am  277  TRP277     -0.1973
     20  CA       -53.3160   95.0430   11.4820 C.3   277  TRP277      0.1640
     21  C        -52.8760   96.3530   12.1700 C.2   277  TRP277      0.2290
     22  O        -52.3870   97.3020   11.5250 O.2   277  TRP277     -0.2864
     23  CB       -52.1230   94.0200   11.1950 C.3   277  TRP277      0.0576
     24  CG       -52.6480   92.6780   10.7440 C.ar  277  TRP277      0.0006
     25  CD1      -53.0770   92.3530    9.4810 C.ar  277  TRP277      0.0946
     26  CD2      -52.9450   91.5430   11.5660 C.ar  277  TRP277      0.0152
     27  NE1      -53.5920   91.0830    9.4620 N.ar  277  TRP277     -0.2442
     28  CE2      -53.5420   90.5590   10.7240 C.ar  277  TRP277      0.0810
     29  CE3      -52.7720   91.2520   12.9340 C.ar  277  TRP277      0.0012
     30  CZ2      -53.9490   89.3120   11.2090 C.ar  277  TRP277      0.0191
     31  CZ3      -53.1380   90.0240   13.4110 C.ar  277  TRP277      0.0001
     32  CH2      -53.7410   89.0520   12.5540 C.ar  277  TRP277      0.0015
     33  N        -53.8800   94.3500   18.1110 N.3   282  HIS282     -0.1241
     34  CA       -53.4490   93.0120   17.6950 C.3   282  HIS282      0.1621
     35  C        -52.0160   92.6230   18.1740 C.2   282  HIS282      0.2264
     36  O        -51.2140   93.4930   18.4820 O.2   282  HIS282     -0.2867
     37  CB       -53.4900   92.9640   16.1850 C.3   282  HIS282      0.0745
     38  CG       -54.8090   93.3360   15.6240 C.ar  282  HIS282      0.0817
     39  ND1      -54.9430   94.2430   14.6080 N.ar  282  HIS282     -0.2268
     40  CD2      -56.0610   92.9660   15.9710 C.ar  282  HIS282      0.1154
     41  CE1      -56.2160   94.3740   14.2980 C.ar  282  HIS282      0.1986
     42  NE2      -56.9150   93.5980   15.1040 N.ar  282  HIS282     -0.2212
     43  N        -55.7190   88.5040   15.5370 N.3   301  GLY301     -0.1210
     44  CA       -56.4030   89.5850   14.8620 C.3   301  GLY301      0.1956
     45  C        -57.7660   89.8140   15.4720 C.2   301  GLY301      0.2612
     46  O        -58.0250   89.5310   16.6810 O.2   301  GLY301     -0.2717
     47  N        -58.6600   90.2680   14.6080 N.am  302  ASP302     -0.1959
     48  CA       -60.0450   90.5250   15.0470 C.3   302  ASP302      0.1840
     49  C        -60.8380   89.2820   15.2320 C.2   302  ASP302      0.2621
     50  O        -61.3630   89.0150   16.3230 O.2   302  ASP302     -0.2715
     51  CB       -60.7570   91.4280   14.0590 C.3   302  ASP302      0.1450
     52  CG       -60.2120   92.8370   14.0650 C.2   302  ASP302      0.3671
     53  OD1      -59.8450   93.3830   15.1550 O.co2 302  ASP302     -0.2456
     54  OD2      -60.0970   93.3780   12.9460 O.co2 302  ASP302     -0.2456
     55  N        -60.8800   88.4680   14.1920 N.am  303  ALA303     -0.1977
     56  CA       -61.7290   87.2660   14.2360 C.3   303  ALA303      0.1597
     57  C        -61.1580   86.0800   15.0480 C.2   303  ALA303      0.2287
     58  O        -61.9080   85.1530   15.4490 O.2   303  ALA303     -0.2864
     59  CB       -62.0690   86.7950   12.8300 C.3   303  ALA303      0.0319
     60  N        -54.5730   83.8180   13.5070 N.3   306  TYR306     -0.1241
     61  CA       -54.1850   83.5470   12.1260 C.3   306  TYR306      0.1605
     62  C        -52.7120   83.1190   12.0970 C.2   306  TYR306      0.2264
     63  O        -51.8590   83.7410   12.7740 O.2   306  TYR306     -0.2867
     64  CB       -54.3480   84.7920   11.2670 C.3   306  TYR306      0.0534
     65  CG       -55.7660   85.2620   11.0600 C.ar  306  TYR306     -0.0201
     66  CD1      -56.4050   86.0680   11.9980 C.ar  306  TYR306     -0.0009
     67  CD2      -56.4600   84.9390    9.8930 C.ar  306  TYR306     -0.0009
     68  CE1      -57.7070   86.5270   11.7800 C.ar  306  TYR306      0.0417
     69  CE2      -57.7600   85.3850    9.6700 C.ar  306  TYR306      0.0417
     70  CZ       -58.3750   86.1760   10.5990 C.ar  306  TYR306      0.1957
     71  OH       -59.6610   86.5870   10.3350 O.3   306  TYR306     -0.2866
     72  N        -52.4040   82.0910    4.6350 N.3   319  VAL319     -0.1245
     73  CA       -52.8770   82.4960    5.9490 C.3   319  VAL319      0.1561
     74  C        -54.1660   81.7720    6.2390 C.2   319  VAL319      0.2260
     75  O        -55.0760   81.8350    5.4390 O.2   319  VAL319     -0.2867
     76  CB       -53.1320   84.0140    6.0140 C.3   319  VAL319      0.0252
     77  CG1      -53.6310   84.4010    7.4130 C.3   319  VAL319      0.0019
     78  CG2      -51.8630   84.7740    5.5930 C.3   319  VAL319      0.0019
     79  N        -57.0770   80.9940    9.4830 N.3   321  ARG321     -0.1245
     80  CA       -57.5410   81.3040   10.8050 C.3   321  ARG321      0.1563
     81  C        -57.6270   79.9790   11.4970 C.2   321  ARG321      0.2260
     82  O        -58.4130   79.1690   11.1340 O.2   321  ARG321     -0.2867
     83  CB       -58.9100   81.9690   10.7800 C.3   321  ARG321      0.0307
     84  CG       -59.4210   82.2920   12.1910 C.3   321  ARG321      0.0489
     85  CD       -60.5500   83.3210   12.1540 C.3   321  ARG321      0.2205
     86  NE       -61.8050   82.6960   11.7420 N.pl3 321  ARG321     -0.0865
     87  CZ       -62.3410   82.7340   10.5150 C.cat 321  ARG321      0.5346
     88  NH1      -63.4770   82.0830   10.2960 N.pl3 321  ARG321      0.1354
     89  NH2      -61.7750   83.4000    9.5080 N.pl3 321  ARG321      0.1354
@<TRIPOS>BOND
     1     1     2    1
     2    14    13    1
     3    72    73    1
     4     2     5    1
     5     2     3    1
     6     8     6   ar
     7     5     6    1
     8    75    74    2
     9     9    10    1
    10     6     7   ar
    11    78    76    1
    12    13    10    1
    13    10    11    1
    14    73    76    1
    15    73    74    1
    16    76    77    1
    17     4     3    2
    18    11    12    2
    19    11    15   am
    20    15    16    1
    21    16    17    1
    22    27    25   ar
    23    27    28   ar
    24    25    24   ar
    25    79    80    1
    26    89    87    1
    27    69    67   ar
    28    69    70   ar
    29    67    65   ar
    30    19    17   am
    31    19    20    1
    32    88    87    1
    33    17    18    2
    34    71    70    1
    35    87    86    2
    36    70    68   ar
    37    28    30   ar
    38    28    26   ar
    39    24    23    1
    40    24    26   ar
    41    83    80    1
    42    83    84    1
    43    80    81    1
    44    65    64    1
    45    65    66   ar
    46    82    81    2
    47    23    20    1
    48    30    32   ar
    49    64    61    1
    50    20    21    1
    51    22    21    2
    52    26    29   ar
    53    86    85    1
    54    68    66   ar
    55    62    61    1
    56    62    63    2
    57    61    60    1
    58    85    84    1
    59    32    31   ar
    60    59    56    1
    61    29    31   ar
    62    54    52   ar
    63    51    52    1
    64    51    48    1
    65    52    53   ar
    66    55    56    1
    67    55    49   am
    68    56    57    1
    69    41    39   ar
    70    41    42   ar
    71    39    38   ar
    72    47    48    1
    73    47    45   am
    74    44    45    1
    75    44    43    1
    76    48    49    1
    77    57    58    2
    78    42    40   ar
    79    49    50    2
    80    45    46    2
    81    38    40   ar
    82    38    37    1
    83    37    34    1
    84    34    33    1
    85    34    35    1
    86    35    36    2
