@<TRIPOS>MOLECULE
tmp/5mb4A06.pdb
 88 87 0 0 0
SMALL
GASTEIGER

@<TRIPOS>ATOM
      1  N        -60.8550   82.5270   18.3570 N.3   325  ASN325     -0.1240
      2  CA       -60.7630   83.0070   19.7090 C.3   325  ASN325      0.1653
      3  C        -59.4030   83.6660   19.9300 C.2   325  ASN325      0.2266
      4  O        -58.6000   83.7460   18.9940 O.2   325  ASN325     -0.2867
      5  CB       -61.0570   81.8930   20.7020 C.3   325  ASN325      0.1155
      6  CG       -61.9760   82.3470   21.8080 C.2   325  ASN325      0.2627
      7  OD1      -61.7500   83.3670   22.4800 O.2   325  ASN325     -0.2716
      8  ND2      -63.0510   81.6010   21.9920 N.am  325  ASN325     -0.0877
      9  N        -63.5330   88.6930   20.1870 N.3   330  GLN330     -0.1231
     10  CA       -63.9370   87.9450   21.3720 C.3   330  GLN330      0.1698
     11  C        -63.5510   88.6290   22.6830 C.2   330  GLN330      0.2593
     12  O        -63.5420   87.9840   23.7360 O.2   330  GLN330     -0.2718
     13  CB       -63.4010   86.5290   21.3660 C.3   330  GLN330      0.0381
     14  CG       -63.8610   85.6680   20.2150 C.3   330  GLN330      0.0905
     15  CD       -63.0170   85.8520   18.9770 C.2   330  GLN330      0.2608
     16  OE1      -61.7910   86.0690   19.0660 O.2   330  GLN330     -0.2717
     17  NE2      -63.6450   85.7340   17.8020 N.am  330  GLN330     -0.0878
     18  N        -63.2700   89.9350   22.6140 N.am  331  GLY331     -0.1942
     19  CA       -63.0140   90.7400   23.7990 C.3   331  GLY331      0.2014
     20  C        -61.5690   90.7990   24.3070 C.2   331  GLY331      0.2638
     21  O        -61.2910   91.4210   25.3510 O.2   331  GLY331     -0.2714
     22  N        -60.6450   90.1770   23.5750 N.am  332  TRP332     -0.1973
     23  CA       -59.2460   90.2270   23.9520 C.3   332  TRP332      0.1640
     24  C        -58.6840   91.5940   23.6370 C.2   332  TRP332      0.2290
     25  O        -58.7620   92.0770   22.5050 O.2   332  TRP332     -0.2864
     26  CB       -58.4360   89.0780   23.2760 C.3   332  TRP332      0.0576
     27  CG       -58.8510   87.7270   23.8650 C.ar  332  TRP332      0.0006
     28  CD1      -59.9670   87.0210   23.5610 C.ar  332  TRP332      0.0946
     29  CD2      -58.1810   86.9750   24.8770 C.ar  332  TRP332      0.0152
     30  NE1      -60.0380   85.8960   24.3110 N.ar  332  TRP332     -0.2442
     31  CE2      -58.9420   85.8280   25.1160 C.ar  332  TRP332      0.0810
     32  CE3      -56.9950   87.1420   25.5710 C.ar  332  TRP332      0.0012
     33  CZ2      -58.5750   84.8700   26.0310 C.ar  332  TRP332      0.0191
     34  CZ3      -56.6460   86.2040   26.5240 C.ar  332  TRP332      0.0001
     35  CH2      -57.4270   85.0740   26.7350 C.ar  332  TRP332      0.0015
     36  N        -55.0970   91.7780   28.4110 N.3   337  HIS337     -0.1241
     37  CA       -55.0420   90.3280   28.3720 C.3   337  HIS337      0.1621
     38  C        -53.7600   89.8180   27.6380 C.2   337  HIS337      0.2264
     39  O        -53.7430   89.6950   26.3890 O.2   337  HIS337     -0.2867
     40  CB       -56.2940   89.7660   27.6890 C.3   337  HIS337      0.0745
     41  CG       -57.5820   90.3460   28.1800 C.ar  337  HIS337      0.0817
     42  ND1      -58.3680   91.1490   27.3890 N.ar  337  HIS337     -0.2268
     43  CD2      -58.2110   90.2620   29.3770 C.ar  337  HIS337      0.1154
     44  CE1      -59.4320   91.5300   28.0700 C.ar  337  HIS337      0.1986
     45  NE2      -59.3600   91.0070   29.2820 N.ar  337  HIS337     -0.2212
     46  N        -56.9790   85.7660   30.1420 N.3   356  GLY356     -0.1210
     47  CA       -58.2380   86.4590   29.7800 C.3   356  GLY356      0.1956
     48  C        -58.8290   87.2830   30.9070 C.2   356  GLY356      0.2612
     49  O        -58.1740   87.5230   31.9520 O.2   356  GLY356     -0.2717
     50  N        -60.0950   87.6760   30.6960 N.am  357  GLU357     -0.1965
     51  CA       -60.8700   88.4600   31.6340 C.3   357  GLU357      0.1733
     52  C        -61.0820   87.6640   32.8940 C.2   357  GLU357      0.2616
     53  O        -60.7930   88.1370   33.9510 O.2   357  GLU357     -0.2715
     54  CB       -62.1990   88.8460   31.0060 C.3   357  GLU357      0.0429
     55  CG       -62.9920   89.9140   31.7570 C.3   357  GLU357      0.1163
     56  CD       -62.3050   91.2590   31.7920 C.2   357  GLU357      0.3649
     57  OE1      -61.4920   91.6010   30.8960 O.co2 357  GLU357     -0.2457
     58  OE2      -62.5930   91.9920   32.7420 O.co2 357  GLU357     -0.2457
     59  N        -61.5250   86.4240   32.7650 N.am  358  ASN358     -0.1972
     60  CA       -61.8240   85.5480   33.9180 C.3   358  ASN358      0.1688
     61  C        -60.9830   84.2960   34.0580 C.2   358  ASN358      0.2292
     62  O        -60.9120   83.7210   35.1480 O.2   358  ASN358     -0.2864
     63  CB       -63.2920   85.1070   33.8270 C.3   358  ASN358      0.1181
     64  CG       -64.2360   86.2930   33.8240 C.2   358  ASN358      0.2629
     65  OD1      -64.2250   87.0830   34.7770 O.2   358  ASN358     -0.2716
     66  ND2      -64.9900   86.4730   32.7360 N.am  358  ASN358     -0.0877
     67  N        -56.5820   80.8190   29.5340 N.3   361  TRP361     -0.1241
     68  CA       -56.9760   79.9280   28.4360 C.3   361  TRP361      0.1605
     69  C        -55.7730   79.4400   27.6230 C.2   361  TRP361      0.2264
     70  O        -54.8850   80.2260   27.3090 O.2   361  TRP361     -0.2867
     71  CB       -57.8790   80.6890   27.4620 C.3   361  TRP361      0.0550
     72  CG       -59.1840   81.1560   28.0660 C.ar  361  TRP361      0.0003
     73  CD1      -59.4090   82.3560   28.6700 C.ar  361  TRP361      0.0946
     74  CD2      -60.4070   80.4150   28.1690 C.ar  361  TRP361      0.0152
     75  NE1      -60.6990   82.4270   29.1160 N.ar  361  TRP361     -0.2442
     76  CE2      -61.3370   81.2490   28.8330 C.ar  361  TRP361      0.0810
     77  CE3      -60.8180   79.1320   27.7400 C.ar  361  TRP361      0.0012
     78  CZ2      -62.6610   80.8500   29.1000 C.ar  361  TRP361      0.0191
     79  CZ3      -62.1370   78.7250   28.0010 C.ar  361  TRP361      0.0001
     80  CH2      -63.0540   79.6030   28.6660 C.ar  361  TRP361      0.0015
     81  N        -60.2670   75.3520   22.7870 N.3   374  ASP374     -0.1239
     82  CA       -59.8700   76.3980   23.7450 C.3   374  ASP374      0.1674
     83  C        -60.0200   75.6340   25.0580 C.2   374  ASP374      0.2266
     84  O        -61.0110   75.0230   25.2540 O.2   374  ASP374     -0.2867
     85  CB       -60.8250   77.6720   23.6300 C.3   374  ASP374      0.1410
     86  CG       -60.0750   79.0660   23.5290 C.2   374  ASP374      0.3668
     87  OD1      -59.2630   79.2970   22.6110 O.co2 374  ASP374     -0.2456
     88  OD2      -60.3530   80.0080   24.2950 O.co2 374  ASP374     -0.2456
@<TRIPOS>BOND
     1    17    15   am
     2     1     2    1
     3    15    16    2
     4    15    14    1
     5     4     3    2
     6     2     3    1
     7     2     5    1
     8     9    10    1
     9    14    13    1
    10     5     6    1
    11    13    10    1
    12    10    11    1
    13     6     8   am
    14     6     7    2
    15    25    24    2
    16    87    86   ar
    17    18    11   am
    18    18    19    1
    19    11    12    2
    20    81    82    1
    21    26    27    1
    22    26    23    1
    23    86    85    1
    24    86    88   ar
    25    28    27   ar
    26    28    30   ar
    27    22    23    1
    28    22    20   am
    29    85    82    1
    30    24    23    1
    31    82    83    1
    32    19    20    1
    33    27    29   ar
    34    20    21    2
    35    30    31   ar
    36    29    31   ar
    37    29    32   ar
    38    83    84    2
    39    31    33   ar
    40    32    34   ar
    41    33    35   ar
    42    39    38    2
    43    34    35   ar
    44    70    69    2
    45    42    44   ar
    46    42    41   ar
    47    71    72    1
    48    71    68    1
    49    69    68    1
    50    38    37    1
    51    40    41    1
    52    40    37    1
    53    77    79   ar
    54    77    74   ar
    55    79    80   ar
    56    72    74   ar
    57    72    73   ar
    58    44    45   ar
    59    74    76   ar
    60    41    43   ar
    61    37    36    1
    62    68    67    1
    63    80    78   ar
    64    73    75   ar
    65    76    78   ar
    66    76    75   ar
    67    45    43   ar
    68    47    46    1
    69    47    48    1
    70    50    48   am
    71    50    51    1
    72    57    56   ar
    73    48    49    2
    74    54    51    1
    75    54    55    1
    76    51    52    1
    77    55    56    1
    78    56    58   ar
    79    66    64   am
    80    59    52   am
    81    59    60    1
    82    52    53    2
    83    64    63    1
    84    64    65    2
    85    63    60    1
    86    60    61    1
    87    61    62    2
