@<TRIPOS>MOLECULE
tmp/5mb4A05.pdb
 72 70 0 0 0
SMALL
GASTEIGER

@<TRIPOS>ATOM
      1  N        -32.6940   99.5560    5.7070 N.3   214  ASN214     -0.1240
      2  CA       -34.1490   99.3170    5.6550 C.3   214  ASN214      0.1653
      3  C        -34.6220   98.8520    7.0380 C.2   214  ASN214      0.2266
      4  O        -33.8080   98.6790    7.9800 O.2   214  ASN214     -0.2867
      5  CB       -34.5130   98.2390    4.5900 C.3   214  ASN214      0.1155
      6  CG       -35.8620   98.4920    3.9020 C.2   214  ASN214      0.2627
      7  OD1      -36.8620   98.8590    4.5220 O.2   214  ASN214     -0.2716
      8  ND2      -35.9070   98.2380    2.6050 N.am  214  ASN214     -0.0877
      9  N        -37.1240  103.3830    4.9600 N.3   220  GLY220     -0.1210
     10  CA       -38.3130  102.6050    4.6520 C.3   220  GLY220      0.1956
     11  C        -39.5200  102.9840    5.4350 C.2   220  GLY220      0.2612
     12  O        -40.5910  102.4280    5.2160 O.2   220  GLY220     -0.2717
     13  N        -39.3620  103.8750    6.4000 N.am  221  GLY221     -0.1942
     14  CA       -40.5250  104.4510    7.0870 C.3   221  GLY221      0.2014
     15  C        -41.1120  103.5660    8.1520 C.2   221  GLY221      0.2638
     16  O        -42.2780  103.6470    8.4320 O.2   221  GLY221     -0.2714
     17  N        -40.2670  102.7550    8.7870 N.am  222  TRP222     -0.1973
     18  CA       -40.7190  101.7830    9.7560 C.3   222  TRP222      0.1640
     19  C        -40.8660  102.5020   11.0930 C.2   222  TRP222      0.2290
     20  O        -39.8790  103.0240   11.6040 O.2   222  TRP222     -0.2864
     21  CB       -39.6990  100.6090    9.8570 C.3   222  TRP222      0.0576
     22  CG       -39.7090   99.7370    8.6600 C.ar  222  TRP222      0.0006
     23  CD1      -39.2250  100.0500    7.4220 C.ar  222  TRP222      0.0946
     24  CD2      -40.3100   98.4420    8.5390 C.ar  222  TRP222      0.0152
     25  NE1      -39.4780   99.0280    6.5460 N.ar  222  TRP222     -0.2442
     26  CE2      -40.1280   98.0210    7.2120 C.ar  222  TRP222      0.0810
     27  CE3      -40.9630   97.5910    9.4220 C.ar  222  TRP222      0.0012
     28  CZ2      -40.5730   96.7910    6.7660 C.ar  222  TRP222      0.0191
     29  CZ3      -41.4300   96.3860    8.9700 C.ar  222  TRP222      0.0001
     30  CH2      -41.2320   95.9920    7.6580 C.ar  222  TRP222      0.0015
     31  N        -45.2280   99.3200   12.8400 N.3   227  HIS227     -0.1241
     32  CA       -44.4940   98.2820   12.0760 C.3   227  HIS227      0.1621
     33  C        -43.5610   97.4740   12.9430 C.2   227  HIS227      0.2264
     34  O        -42.3820   97.7110   12.9150 O.2   227  HIS227     -0.2867
     35  CB       -43.7250   98.8840   10.9010 C.3   227  HIS227      0.0745
     36  CG       -44.5350   99.8260   10.0570 C.ar  227  HIS227      0.0817
     37  ND1      -44.1960  101.1520    9.9190 N.ar  227  HIS227     -0.2268
     38  CD2      -45.6380   99.6480    9.2860 C.ar  227  HIS227      0.1154
     39  CE1      -45.0450  101.7550    9.1160 C.ar  227  HIS227      0.1986
     40  NE2      -45.9290  100.8700    8.7150 N.ar  227  HIS227     -0.2212
     41  N        -44.6280   95.1670    7.8260 N.3   246  GLY246     -0.1210
     42  CA       -44.6780   96.4950    7.2260 C.3   246  GLY246      0.1956
     43  C        -46.0570   96.9900    6.8600 C.2   246  GLY246      0.2612
     44  O        -47.0470   96.5680    7.4350 O.2   246  GLY246     -0.2717
     45  N        -46.1100   97.8930    5.8840 N.am  247  GLY247     -0.1942
     46  CA       -47.3970   98.4490    5.4080 C.3   247  GLY247      0.2014
     47  C        -48.1340   97.4170    4.5940 C.2   247  GLY247      0.2638
     48  O        -49.2310   97.0160    4.9580 O.2   247  GLY247     -0.2714
     49  N        -47.4970   96.9760    3.5080 N.am  248  ALA248     -0.1977
     50  CA       -48.1150   96.0090    2.6000 C.3   248  ALA248      0.1597
     51  C        -48.2190   94.6130    3.1780 C.2   248  ALA248      0.2287
     52  O        -49.1140   93.8280    2.8220 O.2   248  ALA248     -0.2864
     53  CB       -47.3410   95.9690    1.2960 C.3   248  ALA248      0.0319
     54  N        -42.1180   91.6610    5.3770 N.3   251  TYR251     -0.1241
     55  CA       -40.7980   91.7620    4.7500 C.3   251  TYR251      0.1605
     56  C        -39.7340   90.9830    5.5170 C.2   251  TYR251      0.2264
     57  O        -39.7730   90.9210    6.7570 O.2   251  TYR251     -0.2867
     58  CB       -40.3580   93.2100    4.6180 C.3   251  TYR251      0.0534
     59  CG       -41.1980   94.0740    3.6840 C.ar  251  TYR251     -0.0201
     60  CD1      -42.4280   94.5860    4.1120 C.ar  251  TYR251     -0.0009
     61  CD2      -40.7480   94.4100    2.3820 C.ar  251  TYR251     -0.0009
     62  CE1      -43.2130   95.3870    3.2780 C.ar  251  TYR251      0.0417
     63  CE2      -41.5010   95.2460    1.5470 C.ar  251  TYR251      0.0417
     64  CZ       -42.7390   95.7100    2.0080 C.ar  251  TYR251      0.1957
     65  OH       -43.5030   96.5160    1.2500 O.3   251  TYR251     -0.2866
     66  N        -33.8880   92.7280    0.8420 N.3   264  VAL264     -0.1245
     67  CA       -35.1900   92.8670    1.5070 C.3   264  VAL264      0.1561
     68  C        -36.3390   92.4490    0.5560 C.2   264  VAL264      0.2260
     69  O        -36.4830   93.0230   -0.4950 O.2   264  VAL264     -0.2867
     70  CB       -35.3820   94.2940    2.0280 C.3   264  VAL264      0.0252
     71  CG1      -36.7290   94.4330    2.7260 C.3   264  VAL264      0.0019
     72  CG2      -34.2700   94.6060    3.0010 C.3   264  VAL264      0.0019
@<TRIPOS>BOND
     1    69    68    2
     2    68    67    1
     3    66    67    1
     4    65    64    1
     5    53    50    1
     6    67    70    1
     7    63    64   ar
     8    63    61   ar
     9    64    62   ar
    10    70    71    1
    11    70    72    1
    12    61    59   ar
    13    50    51    1
    14    50    49    1
    15     8     6   am
    16    52    51    2
    17    62    60   ar
    18    49    47   am
    19    59    60   ar
    20    59    58    1
    21     6     7    2
    22     6     5    1
    23     5     2    1
    24    47    48    2
    25    47    46    1
    26    58    55    1
    27    10     9    1
    28    10    11    1
    29    55    54    1
    30    55    56    1
    31    12    11    2
    32    46    45    1
    33    11    13   am
    34    56    57    2
    35     2     1    1
    36     2     3    1
    37    45    43   am
    38    13    14    1
    39    25    26   ar
    40    25    23   ar
    41    28    26   ar
    42    28    30   ar
    43    43    42    1
    44    43    44    2
    45     3     4    2
    46    14    15    1
    47    26    24   ar
    48    42    41    1
    49    23    22   ar
    50    30    29   ar
    51    15    16    2
    52    15    17   am
    53    24    22   ar
    54    24    27   ar
    55    22    21    1
    56    40    39   ar
    57    40    38   ar
    58    17    18    1
    59    29    27   ar
    60    39    37   ar
    61    38    36   ar
    62    18    21    1
    63    18    19    1
    64    37    36   ar
    65    36    35    1
    66    35    32    1
    67    19    20    2
    68    32    31    1
    69    32    33    1
    70    34    33    2
