@<TRIPOS>MOLECULE
tmp/5mb4A03.pdb
 89 90 0 0 0
SMALL
GASTEIGER

@<TRIPOS>ATOM
      1  N        -42.3670   89.6350   47.7440 N.3    46  ASN46      -0.1240
      2  CA       -41.5170   90.7270   47.2320 C.3    46  ASN46       0.1653
      3  C        -41.7000   90.8580   45.7250 C.2    46  ASN46       0.2266
      4  O        -42.4820   90.1170   45.1520 O.2    46  ASN46      -0.2867
      5  CB       -40.0450   90.5230   47.5480 C.3    46  ASN46       0.1155
      6  CG       -39.3700   91.8080   47.9720 C.2    46  ASN46       0.2627
      7  OD1      -39.3780   92.8010   47.2530 O.2    46  ASN46      -0.2716
      8  ND2      -38.7770   91.7810   49.1570 N.am   46  ASN46      -0.0877
      9  N        -42.9050   95.5770   48.3910 N.3    52  GLY52      -0.1210
     10  CA       -41.6200   96.1510   48.1540 C.3    52  GLY52       0.1956
     11  C        -41.6670   97.3660   47.2900 C.2    52  GLY52       0.2612
     12  O        -40.6140   97.9100   46.9690 O.2    52  GLY52      -0.2717
     13  N        -42.8520   97.8190   46.9160 N.am   53  GLY53      -0.1942
     14  CA       -42.9750   99.0850   46.1490 C.3    53  GLY53       0.2014
     15  C        -42.5400   99.0230   44.6720 C.2    53  GLY53       0.2638
     16  O        -42.1190  100.0280   44.0940 O.2    53  GLY53      -0.2714
     17  N        -42.7010   97.8590   44.0450 N.am   54  TRP54      -0.1973
     18  CA       -42.2330   97.6600   42.6670 C.3    54  TRP54       0.1640
     19  C        -43.2020   98.3480   41.7180 C.2    54  TRP54       0.2290
     20  O        -44.4020   98.2880   41.9280 O.2    54  TRP54      -0.2864
     21  CB       -41.9800   96.1410   42.3720 C.3    54  TRP54       0.0576
     22  CG       -40.8070   95.6320   43.1230 C.ar   54  TRP54       0.0006
     23  CD1      -40.7300   95.3880   44.4780 C.ar   54  TRP54       0.0946
     24  CD2      -39.4970   95.4060   42.6080 C.ar   54  TRP54       0.0152
     25  NE1      -39.4820   94.9760   44.8180 N.ar   54  TRP54      -0.2442
     26  CE2      -38.6880   95.0020   43.6920 C.ar   54  TRP54       0.0810
     27  CE3      -38.9380   95.4750   41.3360 C.ar   54  TRP54       0.0012
     28  CZ2      -37.3550   94.7000   43.5510 C.ar   54  TRP54       0.0191
     29  CZ3      -37.5790   95.1550   41.1990 C.ar   54  TRP54       0.0001
     30  CH2      -36.8120   94.7750   42.3070 C.ar   54  TRP54       0.0015
     31  N        -39.1220  100.0830   37.5250 N.3    59  HIS59      -0.1241
     32  CA       -38.3860   98.8720   37.7630 C.3    59  HIS59       0.1621
     33  C        -38.6480   97.8300   36.6610 C.2    59  HIS59       0.2264
     34  O        -39.5950   97.9730   35.8770 O.2    59  HIS59      -0.2867
     35  CB       -38.7580   98.3310   39.1440 C.3    59  HIS59       0.0745
     36  CG       -38.7440   99.3730   40.2250 C.ar   59  HIS59       0.0817
     37  ND1      -39.8330   99.6160   41.0190 N.ar   59  HIS59      -0.2268
     38  CD2      -37.7880  100.2370   40.6410 C.ar   59  HIS59       0.1154
     39  CE1      -39.5530  100.5510   41.9060 C.ar   59  HIS59       0.1986
     40  NE2      -38.3120  100.9460   41.7040 N.ar   59  HIS59      -0.2212
     41  N        -34.3900   97.1040   40.8290 N.3    78  GLY78      -0.1210
     42  CA       -35.2300   97.8600   41.7430 C.3    78  GLY78       0.1956
     43  C        -34.7820   99.3060   41.9030 C.2    78  GLY78       0.2612
     44  O        -34.2650   99.9420   40.9480 O.2    78  GLY78      -0.2717
     45  N        -35.0150   99.8420   43.1020 N.am   79  GLU79      -0.1965
     46  CA       -34.7740  101.2790   43.3540 C.3    79  GLU79       0.1733
     47  C        -33.2590  101.6000   43.4970 C.2    79  GLU79       0.2616
     48  O        -32.7640  102.5870   42.9530 O.2    79  GLU79      -0.2715
     49  CB       -35.5630  101.7020   44.6170 C.3    79  GLU79       0.0429
     50  CG       -35.7590  103.1870   44.8310 C.3    79  GLU79       0.1163
     51  CD       -36.6160  103.8750   43.7650 C.2    79  GLU79       0.3649
     52  OE1      -37.2170  103.2090   42.9130 O.co2  79  GLU79      -0.2457
     53  OE2      -36.6690  105.1320   43.7720 O.co2  79  GLU79      -0.2457
     54  N        -32.5600  100.7390   44.2250 N.am   80  ASP80      -0.1971
     55  CA       -31.1830  100.9370   44.6330 C.3    80  ASP80       0.1709
     56  C        -30.1920   99.8850   44.1670 C.2    80  ASP80       0.2293
     57  O        -29.0030   99.9870   44.5070 O.2    80  ASP80      -0.2864
     58  CB       -31.1640  101.0210   46.1590 C.3    80  ASP80       0.1436
     59  CG       -31.9530  102.2100   46.6590 C.2    80  ASP80       0.3671
     60  OD1      -31.6960  103.3430   46.1820 O.co2  80  ASP80      -0.2456
     61  OD2      -32.8840  102.0110   47.4740 O.co2  80  ASP80      -0.2456
     62  N        -31.8760   92.8390   42.5720 N.3    83  TRP83      -0.1241
     63  CA       -32.3390   91.9410   43.6250 C.3    83  TRP83       0.1605
     64  C        -32.6600   90.5810   43.0200 C.2    83  TRP83       0.2264
     65  O        -33.3570   90.5070   41.9990 O.2    83  TRP83      -0.2867
     66  CB       -33.5980   92.4930   44.2640 C.3    83  TRP83       0.0550
     67  CG       -33.3710   93.7010   45.1330 C.ar   83  TRP83       0.0003
     68  CD1      -33.3940   95.0220   44.7520 C.ar   83  TRP83       0.0946
     69  CD2      -33.1270   93.7000   46.5320 C.ar   83  TRP83       0.0152
     70  NE1      -33.1690   95.8270   45.8290 N.ar   83  TRP83      -0.2442
     71  CE2      -32.9780   95.0430   46.9310 C.ar   83  TRP83       0.0810
     72  CE3      -33.0220   92.6920   47.4890 C.ar   83  TRP83       0.0012
     73  CZ2      -32.7580   95.4070   48.2460 C.ar   83  TRP83       0.0191
     74  CZ3      -32.7650   93.0450   48.8290 C.ar   83  TRP83       0.0001
     75  CH2      -32.6550   94.4030   49.1870 C.ar   83  TRP83       0.0015
     76  N        -36.4180   86.6130   51.9620 N.3    96  PRO96      -0.2103
     77  CA       -36.3750   87.7120   51.0000 C.3    96  PRO96       0.1489
     78  C        -35.2900   87.5770   49.9440 C.2    96  PRO96       0.2417
     79  O        -34.3390   86.8210   50.1550 O.2    96  PRO96      -0.2734
     80  CB       -36.0930   88.9260   51.9000 C.3    96  PRO96       0.0282
     81  CG       -35.2110   88.3530   52.9820 C.3    96  PRO96       0.0208
     82  CD       -35.8120   86.9960   53.2520 C.3    96  PRO96       0.0893
     83  N        -35.4290   88.3230   48.8100 N.am   97  PRO97      -0.2729
     84  CA       -34.3480   88.2400   47.8780 C.3    97  PRO97       0.1401
     85  C        -33.0970   88.9220   48.4240 C.2    97  PRO97       0.2269
     86  O        -33.1230   89.6050   49.4310 O.2    97  PRO97      -0.2865
     87  CB       -34.8580   88.9940   46.6600 C.3    97  PRO97       0.0296
     88  CG       -35.7980   89.9920   47.1980 C.3    97  PRO97       0.0237
     89  CD       -36.4350   89.3220   48.3910 C.3    97  PRO97       0.0939
@<TRIPOS>BOND
     1    34    33    2
     2    33    32    1
     3    31    32    1
     4    32    35    1
     5    35    36    1
     6    36    38   ar
     7    36    37   ar
     8    38    40   ar
     9    41    42    1
    10    44    43    2
    11    37    39   ar
    12    29    27   ar
    13    29    30   ar
    14    27    24   ar
    15    40    39   ar
    16    19    20    2
    17    19    18    1
    18    42    43    1
    19    43    45   am
    20    65    64    2
    21    30    28   ar
    22    21    18    1
    23    21    22    1
    24    62    63    1
    25    24    22   ar
    26    24    26   ar
    27    18    17    1
    28    52    51   ar
    29    48    47    2
    30    64    63    1
    31    45    46    1
    32    22    23   ar
    33    46    47    1
    34    46    49    1
    35    47    54   am
    36    28    26   ar
    37    63    66    1
    38    26    25   ar
    39    51    53   ar
    40    51    50    1
    41    17    15   am
    42    16    15    2
    43    56    57    2
    44    56    55    1
    45    54    55    1
    46    66    67    1
    47    23    25   ar
    48    49    50    1
    49    55    58    1
    50    15    14    1
    51    68    67   ar
    52    68    70   ar
    53    67    69   ar
    54     4     3    2
    55     3     2    1
    56    70    71   ar
    57    14    13    1
    58    58    59    1
    59    60    59   ar
    60    69    71   ar
    61    69    72   ar
    62    59    61   ar
    63    87    88    1
    64    87    84    1
    65    13    11   am
    66    71    73   ar
    67    12    11    2
    68    88    89    1
    69     2     5    1
    70     2     1    1
    71     7     6    2
    72    11    10    1
    73    72    74   ar
    74     5     6    1
    75    84    85    1
    76    84    83    1
    77     6     8   am
    78    10     9    1
    79    73    75   ar
    80    89    83    1
    81    85    86    2
    82    83    78   am
    83    74    75   ar
    84    78    79    2
    85    78    77    1
    86    77    80    1
    87    77    76    1
    88    80    81    1
    89    76    82    1
    90    81    82    1
