@<TRIPOS>MOLECULE
tmp/5mb5A00.pdb
 79 76 0 0 0
SMALL
GASTEIGER

@<TRIPOS>ATOM
      1  N          1.8150   -7.4920   -5.4100 N.3   163  TYR163     -0.1227
      2  CA         0.5100   -7.0430   -5.8830 C.3   163  TYR163      0.1736
      3  C         -0.3990   -8.2580   -5.9200 C.2   163  TYR163      0.2595
      4  O         -0.1890   -9.1840   -6.7150 O.2   163  TYR163     -0.2718
      5  CB         0.6130   -6.3960   -7.2600 C.3   163  TYR163      0.0548
      6  CG        -0.7440   -6.1840   -7.9060 C.ar  163  TYR163     -0.0200
      7  CD1       -1.6460   -5.2640   -7.3940 C.ar  163  TYR163     -0.0009
      8  CD2       -1.1240   -6.9100   -9.0240 C.ar  163  TYR163     -0.0009
      9  CE1       -2.8840   -5.0700   -7.9780 C.ar  163  TYR163      0.0417
     10  CE2       -2.3650   -6.7210   -9.6160 C.ar  163  TYR163      0.0417
     11  CZ        -3.2460   -5.7980   -9.0870 C.ar  163  TYR163      0.1957
     12  OH        -4.4980   -5.5820   -9.6470 O.3   163  TYR163     -0.2866
     13  N         -1.3980   -8.2580   -5.0420 N.am  164  HIS164     -0.1975
     14  CA        -2.3580   -9.3460   -4.9420 C.3   164  HIS164      0.1656
     15  C         -1.6360  -10.6870   -4.8170 C.2   164  HIS164      0.2291
     16  O         -2.0670  -11.6990   -5.3680 O.2   164  HIS164     -0.2864
     17  CB        -3.3480   -9.3330   -6.1140 C.3   164  HIS164      0.0771
     18  CG        -4.2200   -8.1080   -6.1740 C.ar  164  HIS164      0.0820
     19  ND1       -5.1270   -7.9060   -7.1910 N.ar  164  HIS164     -0.2267
     20  CD2       -4.3100   -7.0190   -5.3720 C.ar  164  HIS164      0.1154
     21  CE1       -5.7510   -6.7570   -7.0040 C.ar  164  HIS164      0.1986
     22  NE2       -5.2730   -6.1940   -5.9110 N.ar  164  HIS164     -0.2212
     23  N        -13.3940    6.8340   -9.3410 N.3   253  PHE253     -0.1241
     24  CA       -13.3690    6.7390  -10.7930 C.3   253  PHE253      0.1605
     25  C        -14.3110    5.6280  -11.2320 C.2   253  PHE253      0.2264
     26  O        -14.6460    4.7350  -10.4460 O.2   253  PHE253     -0.2867
     27  CB       -11.9370    6.4840  -11.3010 C.3   253  PHE253      0.0534
     28  CG       -11.3940    5.1360  -10.9120 C.ar  253  PHE253     -0.0203
     29  CD1      -10.7840    4.9160   -9.6850 C.ar  253  PHE253     -0.0042
     30  CD2      -11.5460    4.0640  -11.7650 C.ar  253  PHE253     -0.0042
     31  CE1      -10.3460    3.6520   -9.3340 C.ar  253  PHE253     -0.0003
     32  CE2      -11.1080    2.8080  -11.4180 C.ar  253  PHE253     -0.0003
     33  CZ       -10.4990    2.6050  -10.2040 C.ar  253  PHE253     -0.0000
     34  N        -15.6820    2.2440  -12.3260 N.3   255  CYS255     -0.1235
     35  CA       -15.0830    0.9170  -12.2480 C.3   255  CYS255      0.1677
     36  C        -14.8120    0.3160  -13.6210 C.2   255  CYS255      0.2270
     37  O        -14.0130   -0.6300  -13.7180 O.2   255  CYS255     -0.2867
     38  CB       -15.9370   -0.0280  -11.4040 C.3   255  CYS255      0.0956
     39  SG       -16.0430    0.4100   -9.6350 S.3   255  CYS255     -0.0801
     40  N        -13.1690    1.8370  -15.9360 N.3   257  ALA257     -0.1231
     41  CA       -11.9820    2.4610  -16.5000 C.3   257  ALA257      0.1694
     42  C        -10.8120    1.4870  -16.5820 C.2   257  ALA257      0.2593
     43  O        -10.7020    0.5270  -15.8210 O.2   257  ALA257     -0.2718
     44  CB       -11.5550    3.6320  -15.6250 C.3   257  ALA257      0.0304
     45  N         -9.9060    1.7750  -17.5080 N.am  258  THR258     -0.1939
     46  CA        -8.5640    1.2040  -17.4940 C.3   258  THR258      0.2028
     47  C         -7.6180    2.3050  -17.0310 C.2   258  THR258      0.2642
     48  O         -7.3920    3.2770  -17.7570 O.2   258  THR258     -0.2714
     49  CB        -8.1720    0.6810  -18.8750 C.3   258  THR258      0.1808
     50  OG1       -9.1050   -0.3190  -19.2960 O.3   258  THR258     -0.2208
     51  CG2       -6.7890    0.0700  -18.8350 C.3   258  THR258      0.0379
     52  N         -7.0750    2.1590  -15.8240 N.am  259  LEU259     -0.1977
     53  CA        -6.2500    3.2120  -15.2500 C.3   259  LEU259      0.1596
     54  C         -4.8740    3.2550  -15.9100 C.2   259  LEU259      0.2287
     55  O         -4.2920    2.2020  -16.2020 O.2   259  LEU259     -0.2864
     56  CB        -6.0510    2.9640  -13.7630 C.3   259  LEU259      0.0297
     57  CG        -7.3100    3.0180  -12.9070 C.3   259  LEU259      0.0022
     58  CD1       -6.9600    2.6700  -11.4730 C.3   259  LEU259      0.0001
     59  CD2       -7.9810    4.3810  -12.9700 C.3   259  LEU259      0.0001
     60  N         -1.2150    0.5940  -13.7430 N.3   275  GLY275     -0.1210
     61  CA        -2.5470    1.0910  -13.4480 C.3   275  GLY275      0.1956
     62  C         -3.3470    0.1690  -12.5490 C.2   275  GLY275      0.2611
     63  O         -4.1050    0.6280  -11.6900 O.2   275  GLY275     -0.2717
     64  N         -3.1920   -1.1500  -12.7270 N.am  276  ASP276     -0.1973
     65  CA        -3.9460   -2.1020  -11.9070 C.3   276  ASP276      0.1709
     66  C         -3.7320   -1.8650  -10.4170 C.2   276  ASP276      0.2293
     67  O         -4.6370   -2.1050   -9.6010 O.2   276  ASP276     -0.2864
     68  CB        -3.4990   -3.5560  -12.1770 C.3   276  ASP276      0.1436
     69  CG        -3.4520   -3.9350  -13.6350 C.2   276  ASP276      0.3671
     70  OD1       -2.8790   -3.1830  -14.4490 O.co2 276  ASP276     -0.2456
     71  OD2       -3.9580   -5.0320  -13.9560 O.co2 276  ASP276     -0.2456
     72  N         -6.1650    0.5750   -8.5060 N.3   279  ASP279     -0.1239
     73  CA        -7.5810    0.2540   -8.3630 C.3   279  ASP279      0.1674
     74  C         -7.8440   -0.3560   -6.9890 C.2   279  ASP279      0.2266
     75  O         -7.3660   -1.4530   -6.6860 O.2   279  ASP279     -0.2867
     76  CB        -7.9730   -0.7280   -9.4640 C.3   279  ASP279      0.1410
     77  CG        -9.4120   -1.1930   -9.3780 C.2   279  ASP279      0.3668
     78  OD1       -9.6960   -2.2420  -10.0020 O.co2 279  ASP279     -0.2456
     79  OD2      -10.2390   -0.5740   -8.6770 O.co2 279  ASP279     -0.2456
@<TRIPOS>BOND
     1    50    49    1
     2    49    51    1
     3    49    46    1
     4    48    47    2
     5    45    46    1
     6    45    42   am
     7    46    47    1
     8    47    52   am
     9    42    41    1
    10    42    43    2
    11    41    40    1
    12    41    44    1
    13    55    54    2
    14    54    53    1
    15    52    53    1
    16    53    56    1
    17    70    69   ar
    18    71    69   ar
    19    56    57    1
    20    60    61    1
    21    37    36    2
    22    69    68    1
    23    36    35    1
    24    61    62    1
    25    59    57    1
    26    57    58    1
    27    64    62   am
    28    64    65    1
    29    62    63    2
    30    34    35    1
    31    35    38    1
    32    68    65    1
    33    65    66    1
    34    30    32   ar
    35    30    28   ar
    36    32    33   ar
    37    38    39    1
    38    27    28    1
    39    27    24    1
    40    25    24    1
    41    25    26    2
    42    28    29   ar
    43    24    23    1
    44    66    67    2
    45    33    31   ar
    46    78    77   ar
    47    29    31   ar
    48    12    11    1
    49    10    11   ar
    50    10     8   ar
    51    76    77    1
    52    76    73    1
    53    77    79   ar
    54    11     9   ar
    55     8     6   ar
    56    72    73    1
    57    73    74    1
    58     9     7   ar
    59     6     7   ar
    60     6     5    1
    61     5     2    1
    62    19    21   ar
    63    19    18   ar
    64    21    22   ar
    65    74    75    2
    66     4     3    2
    67    18    17    1
    68    18    20   ar
    69    17    14    1
    70     3     2    1
    71     3    13   am
    72    22    20   ar
    73     2     1    1
    74    16    15    2
    75    13    14    1
    76    14    15    1
