@<TRIPOS>MOLECULE
tmp/5mb7A00.pdb
 96 88 0 0 0
SMALL
GASTEIGER

@<TRIPOS>ATOM
      1  N         -3.5990   -4.2170    3.4640 N.3    16  ALA16      -0.1245
      2  CA        -2.4580   -4.2600    4.3640 C.3    16  ALA16       0.1562
      3  C         -1.8280   -5.6270    4.1780 C.2    16  ALA16       0.2260
      4  O         -2.3910   -6.4980    3.5110 O.2    16  ALA16      -0.2867
      5  CB        -2.8560   -4.0440    5.8260 C.3    16  ALA16       0.0290
      6  N          1.4120   -6.3700   11.3660 N.3    33  ASP33      -0.1239
      7  CA         1.5450   -5.4490   10.2470 C.3    33  ASP33       0.1674
      8  C          2.8700   -4.7130   10.4080 C.2    33  ASP33       0.2266
      9  O          3.0130   -3.8840   11.3060 O.2    33  ASP33      -0.2867
     10  CB         0.3460   -4.4950   10.2820 C.3    33  ASP33       0.1410
     11  CG         0.2570   -3.5780    9.1030 C.2    33  ASP33       0.3668
     12  OD1        1.2160   -3.4280    8.3340 O.co2  33  ASP33      -0.2456
     13  OD2       -0.8430   -2.9910    8.9620 O.co2  33  ASP33      -0.2456
     14  N          5.3860   -1.9880    9.8320 N.3    35  ASP35      -0.1239
     15  CA         5.0210   -0.5960    9.5840 C.3    35  ASP35       0.1674
     16  C          6.2710    0.2770    9.6460 C.2    35  ASP35       0.2266
     17  O          6.7270    0.6540   10.7340 O.2    35  ASP35      -0.2867
     18  CB         3.9990   -0.1470   10.6200 C.3    35  ASP35       0.1410
     19  CG         3.5660    1.2920   10.4270 C.2    35  ASP35       0.3668
     20  OD1        3.8340    1.8520    9.3380 O.co2  35  ASP35      -0.2456
     21  OD2        2.9430    1.8380   11.3690 O.co2  35  ASP35      -0.2456
     22  N         -2.3950    6.9530   15.2610 N.3    79  TYR79      -0.1227
     23  CA        -1.9200    6.8750   13.8890 C.3    79  TYR79       0.1736
     24  C         -2.6000    7.9250   13.0140 C.2    79  TYR79       0.2596
     25  O         -3.6020    8.5350   13.3910 O.2    79  TYR79      -0.2718
     26  CB        -2.1560    5.4710   13.3430 C.3    79  TYR79       0.0548
     27  CG        -1.3770    4.4160   14.0920 C.ar   79  TYR79      -0.0200
     28  CD1       -1.9840    3.6230   15.0500 C.ar   79  TYR79      -0.0009
     29  CD2       -0.0230    4.2220   13.8420 C.ar   79  TYR79      -0.0009
     30  CE1       -1.2690    2.6590   15.7380 C.ar   79  TYR79       0.0417
     31  CE2        0.7030    3.2510   14.5210 C.ar   79  TYR79       0.0417
     32  CZ         0.0660    2.4720   15.4720 C.ar   79  TYR79       0.1957
     33  OH         0.7540    1.5120   16.1790 O.3    79  TYR79      -0.2866
     34  N         -2.0310    8.1270   11.8210 N.am   80  GLY80      -0.1942
     35  CA        -2.4890    9.1700   10.9200 C.3    80  GLY80       0.2014
     36  C         -3.9220    9.0150   10.4640 C.2    80  GLY80       0.2638
     37  O         -4.5420   10.0050   10.0490 O.2    80  GLY80      -0.2714
     38  N         -4.4670    7.8000   10.5180 N.am   81  ASP81      -0.1971
     39  CA        -5.8440    7.5520   10.1110 C.3    81  ASP81       0.1709
     40  C         -6.8330    7.7010   11.2590 C.2    81  ASP81       0.2293
     41  O         -8.0150    7.3840   11.0900 O.2    81  ASP81      -0.2864
     42  CB        -5.9730    6.1580    9.4920 C.3    81  ASP81       0.1436
     43  CG        -5.7420    5.0430   10.4950 C.2    81  ASP81       0.3671
     44  OD1       -5.2980    5.3170   11.6280 O.co2  81  ASP81      -0.2456
     45  OD2       -5.9970    3.8750   10.1360 O.co2  81  ASP81      -0.2456
     46  N         -6.7710    6.0330   14.1410 N.3    83  SER83      -0.1217
     47  CA        -6.8270    4.8690   15.0140 C.3    83  SER83       0.1889
     48  C         -5.8100    5.0190   16.1470 C.2    83  SER83       0.2288
     49  O         -4.9110    5.8650   16.1040 O.2    83  SER83      -0.2866
     50  CB        -6.5830    3.5890   14.2150 C.3    83  SER83       0.2089
     51  OG        -5.2690    3.5430   13.7050 O.3    83  SER83      -0.2183
     52  N        -11.1950    0.4770   14.6290 N.3   115  SER115     -0.1202
     53  CA       -10.7300   -0.0710   13.3610 C.3   115  SER115      0.2020
     54  C         -9.7450   -1.2130   13.5550 C.2   115  SER115      0.2618
     55  O         -9.6080   -2.0490   12.6580 O.2   115  SER115     -0.2717
     56  CB       -10.1440    1.0040   12.4540 C.3   115  SER115      0.2103
     57  OG        -8.9580    1.5420   12.9840 O.3   115  SER115     -0.2182
     58  N         -9.0540   -1.2650   14.6980 N.am  116  PHE116     -0.1975
     59  CA        -8.2480   -2.4410   15.0120 C.3   116  PHE116      0.1639
     60  C         -9.1400   -3.6260   15.3760 C.2   116  PHE116      0.2290
     61  O         -8.9540   -4.7340   14.8640 O.2   116  PHE116     -0.2864
     62  CB        -7.2430   -2.1140   16.1200 C.3   116  PHE116      0.0560
     63  CG        -6.1080   -1.2380   15.6620 C.ar  116  PHE116     -0.0200
     64  CD1       -5.2140   -1.6970   14.7050 C.ar  116  PHE116     -0.0042
     65  CD2       -5.9470    0.0460   16.1480 C.ar  116  PHE116     -0.0042
     66  CE1       -4.1760   -0.9080   14.2610 C.ar  116  PHE116     -0.0003
     67  CE2       -4.8940    0.8370   15.7080 C.ar  116  PHE116     -0.0003
     68  CZ        -4.0200    0.3640   14.7620 C.ar  116  PHE116     -0.0000
     69  N        -10.6520   -5.3580   12.3980 N.3   119  ASP119     -0.1239
     70  CA        -9.7780   -6.0770   11.4780 C.3   119  ASP119      0.1674
     71  C         -9.2530   -7.3290   12.1720 C.2   119  ASP119      0.2266
     72  O         -8.2260   -7.3100   12.8530 O.2   119  ASP119     -0.2867
     73  CB        -8.6490   -5.2110   10.9740 C.3   119  ASP119      0.1410
     74  CG        -7.9410   -5.8570    9.8370 C.2   119  ASP119      0.3668
     75  OD1       -8.1660   -7.0760    9.6420 O.co2 119  ASP119     -0.2456
     76  OD2       -7.1830   -5.1610    9.1380 O.co2 119  ASP119     -0.2456
     77  N         -5.3030   -8.7060   11.6960 N.3   122  ILE122     -0.1245
     78  CA        -4.1040   -8.0070   12.1590 C.3   122  ILE122      0.1561
     79  C         -4.0360   -8.1410   13.6760 C.2   122  ILE122      0.2260
     80  O         -4.9080   -7.6370   14.3950 O.2   122  ILE122     -0.2867
     81  CB        -4.0960   -6.5450   11.6880 C.3   122  ILE122      0.0252
     82  CG1       -3.9240   -6.5120   10.1670 C.3   122  ILE122      0.0019
     83  CG2       -2.9920   -5.7350   12.3830 C.3   122  ILE122      0.0019
     84  CD1       -4.0390   -5.1470    9.5590 C.3   122  ILE122      0.0001
     85  N          1.0760   -4.5360   15.4150 N.3   125  LEU125     -0.1245
     86  CA         1.9830   -3.8440   14.5120 C.3   125  LEU125      0.1561
     87  C          3.4190   -4.0860   14.9520 C.2   125  LEU125      0.2260
     88  O          3.7090   -4.2110   16.1490 O.2   125  LEU125     -0.2867
     89  CB         1.7150   -2.3190   14.4710 C.3   125  LEU125      0.0270
     90  CG         0.7300   -1.8410   13.3920 C.3   125  LEU125      0.0019
     91  CD1       -0.6630   -2.4130   13.6210 C.3   125  LEU125      0.0001
     92  CD2        0.6870   -0.3250   13.3410 C.3   125  LEU125      0.0001
     93  N          3.1470    0.7060    6.2180 N.3   221  GLY221     -0.1225
     94  CA         1.9060    0.5930    6.9500 C.3   221  GLY221      0.1811
     95  C          0.7810    1.4570    6.4280 C.2   221  GLY221      0.2280
     96  O         -0.3030    1.4510    7.0140 O.2   221  GLY221     -0.2866
@<TRIPOS>BOND
     1     1     2    1
     2     4     3    2
     3     3     2    1
     4     2     5    1
     5    93    94    1
     6    95    94    1
     7    95    96    2
     8    12    11   ar
     9    13    11   ar
    10    11    10    1
    11    76    74   ar
    12    20    19   ar
    13    42    39    1
    14    42    43    1
    15    84    82    1
    16    15    16    1
    17    15    14    1
    18    15    18    1
    19    75    74   ar
    20    16    17    2
    21    74    73    1
    22    37    36    2
    23    39    38    1
    24    39    40    1
    25    45    43   ar
    26    82    81    1
    27     7    10    1
    28     7     8    1
    29     7     6    1
    30     8     9    2
    31    19    18    1
    32    19    21   ar
    33    36    38   am
    34    36    35    1
    35    43    44   ar
    36    35    34    1
    37    73    70    1
    38    41    40    2
    39    70    71    1
    40    70    69    1
    41    81    78    1
    42    81    83    1
    43    77    78    1
    44    34    24   am
    45    78    79    1
    46    71    72    2
    47    56    57    1
    48    56    53    1
    49    55    54    2
    50    24    25    2
    51    24    23    1
    52    92    90    1
    53    26    23    1
    54    26    27    1
    55    53    54    1
    56    53    52    1
    57    90    91    1
    58    90    89    1
    59    54    58   am
    60    79    80    2
    61    51    50    1
    62    29    27   ar
    63    29    31   ar
    64    23    22    1
    65    27    28   ar
    66    46    47    1
    67    50    47    1
    68    66    64   ar
    69    66    68   ar
    70    89    86    1
    71    86    87    1
    72    86    85    1
    73    31    32   ar
    74    58    59    1
    75    64    63   ar
    76    68    67   ar
    77    61    60    2
    78    87    88    2
    79    59    60    1
    80    59    62    1
    81    47    48    1
    82    28    30   ar
    83    32    30   ar
    84    32    33    1
    85    63    62    1
    86    63    65   ar
    87    67    65   ar
    88    49    48    2
