@<TRIPOS>MOLECULE
tmp/5mb9A00.pdb
 203 188 0 0 0
SMALL
GASTEIGER

@<TRIPOS>ATOM
      1  N        -10.4810  -17.8690   20.2480 N.3     9  THR9       -0.1218
      2  CA       -11.6330  -17.1350   20.7480 C.3     9  THR9        0.1862
      3  C        -11.5870  -15.7200   20.1810 C.2     9  THR9        0.2287
      4  O        -10.5260  -15.0870   20.1650 O.2     9  THR9       -0.2866
      5  CB       -11.6350  -17.1190   22.2780 C.3     9  THR9        0.1770
      6  OG1      -11.9120  -18.4420   22.7610 O.3     9  THR9       -0.2211
      7  CG2      -12.6890  -16.1620   22.8160 C.3     9  THR9        0.0375
      8  N        -13.5440  -12.1080   20.3880 N.3    11  GLY11      -0.1210
      9  CA       -14.4550  -11.2640   21.1510 C.3    11  GLY11       0.1956
     10  C        -14.4630   -9.8120   20.7150 C.2    11  GLY11       0.2612
     11  O        -13.5780   -9.3760   19.9780 O.2    11  GLY11      -0.2717
     12  N        -15.4700   -9.0480   21.1430 N.am   12  ASN12      -0.1960
     13  CA       -15.4810   -7.6260   20.8090 C.3    12  ASN12       0.1819
     14  C        -14.3370   -6.8890   21.4800 C.2    12  ASN12       0.2622
     15  O        -13.8130   -5.9130   20.9290 O.2    12  ASN12      -0.2715
     16  CB       -16.7990   -6.9710   21.2110 C.3    12  ASN12       0.1195
     17  CG       -17.9530   -7.4320   20.3720 C.2    12  ASN12       0.2630
     18  OD1      -18.2360   -6.8630   19.3170 O.2    12  ASN12      -0.2716
     19  ND2      -18.6380   -8.4700   20.8360 N.am   12  ASN12      -0.0877
     20  N        -13.9490   -7.3310   22.6740 N.am   13  SER13      -0.1936
     21  CA       -12.9360   -6.6500   23.4670 C.3    13  SER13       0.2055
     22  C        -11.5860   -7.3530   23.4130 C.2    13  SER13       0.2643
     23  O        -10.5660   -6.7130   23.1450 O.2    13  SER13      -0.2714
     24  CB       -13.4070   -6.5310   24.9200 C.3    13  SER13       0.2130
     25  OG       -14.8180   -6.4190   24.9940 O.3    13  SER13      -0.2179
     26  N        -11.5590   -8.6630   23.6410 N.am   14  ASN14      -0.1971
     27  CA       -10.3180   -9.4180   23.6290 C.3    14  ASN14       0.1688
     28  C        -10.4950  -10.6990   22.8290 C.2    14  ASN14       0.2292
     29  O        -11.6020  -11.2330   22.7110 O.2    14  ASN14      -0.2864
     30  CB        -9.8580   -9.7600   25.0520 C.3    14  ASN14       0.1181
     31  CG        -9.3960   -8.5450   25.8260 C.2    14  ASN14       0.2629
     32  OD1       -8.5630   -7.7730   25.3550 O.2    14  ASN14      -0.2716
     33  ND2       -9.9470   -8.3630   27.0220 N.am   14  ASN14      -0.0877
     34  N         -4.3270  -12.5720   26.4860 N.3    36  GLN36      -0.1245
     35  CA        -5.5880  -11.9070   26.1580 C.3    36  GLN36       0.1566
     36  C         -5.2630  -10.7660   25.1960 C.2    36  GLN36       0.2260
     37  O         -4.7350   -9.7290   25.6060 O.2    36  GLN36      -0.2867
     38  CB        -6.2820  -11.4080   27.4230 C.3    36  GLN36       0.0367
     39  CG        -6.7830  -12.5170   28.3440 C.3    36  GLN36       0.0905
     40  CD        -5.6580  -13.2800   29.0250 C.2    36  GLN36       0.2608
     41  OE1       -4.7180  -12.6860   29.5570 O.2    36  GLN36      -0.2717
     42  NE2       -5.7480  -14.6090   29.0040 N.am   36  GLN36      -0.0878
     43  N        -16.7400   -7.1670   16.3040 N.3    70  ARG70      -0.1245
     44  CA       -17.2140   -8.5360   16.1330 C.3    70  ARG70       0.1563
     45  C        -18.7370   -8.5960   16.0570 C.2    70  ARG70       0.2260
     46  O        -19.2950   -9.2950   15.2040 O.2    70  ARG70      -0.2867
     47  CB       -16.7240   -9.4250   17.2670 C.3    70  ARG70       0.0307
     48  CG       -17.8160  -10.3740   17.7270 C.3    70  ARG70       0.0489
     49  CD       -17.2910  -11.6100   18.4040 C.3    70  ARG70       0.2205
     50  NE       -18.1850  -12.0170   19.4790 N.pl3  70  ARG70      -0.0865
     51  CZ       -18.0610  -13.1400   20.1710 C.cat  70  ARG70       0.5346
     52  NH1      -17.0790  -13.9930   19.8920 N.pl3  70  ARG70       0.1354
     53  NH2      -18.9500  -13.4220   21.1130 N.pl3  70  ARG70       0.1354
     54  N        -19.5620  -20.3570   22.7390 N.3   176  GLU176     -0.1245
     55  CA       -18.7480  -19.8850   23.8560 C.3   176  GLU176      0.1567
     56  C        -19.0460  -20.5580   25.1940 C.2   176  GLU176      0.2260
     57  O        -18.0890  -20.8080   25.9460 O.2   176  GLU176     -0.2867
     58  CB       -18.9100  -18.3610   23.9600 C.3   176  GLU176      0.0388
     59  CG       -18.3570  -17.6210   22.7510 C.3   176  GLU176      0.1160
     60  CD       -18.7350  -16.1560   22.7290 C.2   176  GLU176      0.3649
     61  OE1      -19.7230  -15.7820   23.3950 O.co2 176  GLU176     -0.2457
     62  OE2      -18.0410  -15.3810   22.0410 O.co2 176  GLU176     -0.2457
     63  N        -20.7580  -16.0440   31.3450 N.3   201  ASP201     -0.1225
     64  CA       -19.7110  -15.4190   30.5360 C.3   201  ASP201      0.1805
     65  C        -19.8110  -13.9060   30.6830 C.2   201  ASP201      0.2598
     66  O        -20.5920  -13.2520   29.9870 O.2   201  ASP201     -0.2718
     67  CB       -19.8290  -15.8390   29.0750 C.3   201  ASP201      0.1424
     68  CG       -18.7790  -15.1830   28.1940 C.2   201  ASP201      0.3668
     69  OD1      -17.5850  -15.5190   28.3380 O.co2 201  ASP201     -0.2456
     70  OD2      -19.1480  -14.3350   27.3530 O.co2 201  ASP201     -0.2456
     71  N        -19.0210  -13.3490   31.5960 N.am  202  LEU202     -0.1966
     72  CA       -18.9730  -11.9110   31.8230 C.3   202  LEU202      0.1728
     73  C        -17.8910  -11.2890   30.9430 C.2   202  LEU202      0.2617
     74  O        -16.7060  -11.5910   31.1060 O.2   202  LEU202     -0.2715
     75  CB       -18.7040  -11.6330   33.3020 C.3   202  LEU202      0.0311
     76  CG       -19.7120  -12.1860   34.3200 C.3   202  LEU202      0.0022
     77  CD1      -19.3450  -11.7960   35.7430 C.3   202  LEU202      0.0001
     78  CD2      -21.1340  -11.7290   33.9840 C.3   202  LEU202      0.0001
     79  N        -18.2930  -10.4110   30.0220 N.am  203  GLY203     -0.1940
     80  CA       -17.3870   -9.8110   29.0750 C.3   203  GLY203      0.2014
     81  C        -17.2030   -8.3220   29.2800 C.2   203  GLY203      0.2639
     82  O        -17.5290   -7.7590   30.3340 O.2   203  GLY203     -0.2714
     83  N        -16.6530   -7.6710   28.2590 N.am  204  GLY204     -0.1939
     84  CA       -16.4920   -6.2300   28.2780 C.3   204  GLY204      0.2014
     85  C        -17.7420   -5.4710   27.8880 C.2   204  GLY204      0.2640
     86  O        -18.2660   -4.6720   28.6680 O.2   204  GLY204     -0.2714
     87  N        -18.2340   -5.7210   26.6780 N.am  205  SER205     -0.1935
     88  CA       -19.3870   -5.0160   26.1340 C.3   205  SER205      0.2055
     89  C        -20.6790   -5.8130   26.2620 C.2   205  SER205      0.2643
     90  O        -21.7420   -5.3140   25.8800 O.2   205  SER205     -0.2714
     91  CB       -19.1330   -4.6650   24.6630 C.3   205  SER205      0.2130
     92  OG       -18.8330   -5.8280   23.9110 O.3   205  SER205     -0.2179
     93  N        -20.6110   -7.0260   26.8020 N.am  206  ARG206     -0.1973
     94  CA       -21.7660   -7.9050   26.8780 C.3   206  ARG206      0.1640
     95  C        -21.5240   -8.9500   27.9560 C.2   206  ARG206      0.2290
     96  O        -20.3860   -9.2060   28.3510 O.2   206  ARG206     -0.2864
     97  CB       -22.0230   -8.5320   25.5030 C.3   206  ARG206      0.0589
     98  CG       -20.8330   -9.3400   24.9720 C.2   206  ARG206      0.0162
     99  CD       -21.1940  -10.5170   24.0530 C.2   206  ARG206      0.1886
    100  NE       -22.6230  -10.7450   23.8680 N.pl3 206  ARG206     -0.0578
    101  CZ       -23.1340  -11.4520   22.8640 C.cat 206  ARG206      0.5393
    102  NH1      -22.3330  -12.0010   21.9600 N.pl3 206  ARG206      0.1358
    103  NH2      -24.4440  -11.6270   22.7760 N.pl3 206  ARG206      0.1358
    104  N        -18.0780   -5.4480   31.8950 N.3   232  GLY232     -0.1210
    105  CA       -16.8720   -4.7960   32.3780 C.3   232  GLY232      0.1956
    106  C        -16.8210   -3.3140   32.0700 C.2   232  GLY232      0.2611
    107  O        -16.2290   -2.5410   32.8300 O.2   232  GLY232     -0.2717
    108  N        -17.4240   -2.8980   30.9520 N.am  233  ILE233     -0.1979
    109  CA       -17.4180   -1.4860   30.5790 C.3   233  ILE233      0.1595
    110  C        -18.1730   -0.6580   31.6120 C.2   233  ILE233      0.2287
    111  O        -17.7480    0.4470   31.9740 O.2   233  ILE233     -0.2864
    112  CB       -17.9920   -1.3040   29.1600 C.3   233  ILE233      0.0276
    113  CG1      -17.0230   -1.8600   28.1110 C.3   233  ILE233      0.0022
    114  CG2      -18.2980    0.1590   28.8780 C.3   233  ILE233      0.0022
    115  CD1      -17.5700   -1.8310   26.6880 C.3   233  ILE233      0.0001
    116  N        -15.8200   -0.2960   34.4160 N.3   236  ASP236     -0.1239
    117  CA       -14.8540    0.7320   34.0380 C.3   236  ASP236      0.1674
    118  C        -15.4180    2.1290   34.2570 C.2   236  ASP236      0.2266
    119  O        -14.7110    3.0290   34.7260 O.2   236  ASP236     -0.2867
    120  CB       -14.4360    0.5510   32.5790 C.3   236  ASP236      0.1410
    121  CG       -13.7030   -0.7480   32.3460 C.2   236  ASP236      0.3668
    122  OD1      -13.2840   -1.3740   33.3420 O.co2 236  ASP236     -0.2456
    123  OD2      -13.5500   -1.1490   31.1720 O.co2 236  ASP236     -0.2456
    124  N         -9.6570    0.5630   33.3800 N.3   272  GLU272     -0.1245
    125  CA        -9.5910   -0.8770   33.1640 C.3   272  GLU272      0.1567
    126  C         -8.3600   -1.4780   33.8290 C.2   272  GLU272      0.2260
    127  O         -8.4480   -2.5040   34.5150 O.2   272  GLU272     -0.2867
    128  CB        -9.5810   -1.1790   31.6670 C.3   272  GLU272      0.0388
    129  CG        -9.4770   -2.6560   31.3500 C.3   272  GLU272      0.1160
    130  CD        -9.4970   -2.9360   29.8650 C.2   272  GLU272      0.3649
    131  OE1       -9.2390   -1.9990   29.0790 O.co2 272  GLU272     -0.2457
    132  OE2       -9.7630   -4.0950   29.4850 O.co2 272  GLU272     -0.2457
    133  N         -8.8660   -1.7500   37.4190 N.3   275  LYS275     -0.1231
    134  CA        -9.8380   -2.8130   37.6600 C.3   275  LYS275      0.1693
    135  C         -9.1810   -4.1880   37.6560 C.2   275  LYS275      0.2591
    136  O         -9.4860   -5.0350   38.5050 O.2   275  LYS275     -0.2718
    137  CB       -10.9490   -2.7610   36.6100 C.3   275  LYS275      0.0285
    138  CG       -12.0470   -3.7800   36.8480 C.3   275  LYS275      0.0035
    139  CD       -13.1080   -3.7400   35.7650 C.3   275  LYS275      0.0206
    140  CE       -12.5610   -4.2580   34.4500 C.3   275  LYS275      0.1093
    141  NZ       -13.6430   -4.3810   33.4390 N.3   275  LYS275     -0.1314
    142  N         -8.2770   -4.4310   36.7020 N.am  276  ARG276     -0.1980
    143  CA        -7.5970   -5.7210   36.6390 C.3   276  ARG276      0.1597
    144  C         -6.7210   -5.9490   37.8630 C.2   276  ARG276      0.2287
    145  O         -6.6640   -7.0640   38.3960 O.2   276  ARG276     -0.2864
    146  CB        -6.7430   -5.8030   35.3750 C.3   276  ARG276      0.0334
    147  CG        -7.5020   -5.9190   34.0700 C.3   276  ARG276      0.0492
    148  CD        -6.5370   -6.3170   32.9690 C.3   276  ARG276      0.2205
    149  NE        -7.1720   -6.4030   31.6600 N.pl3 276  ARG276     -0.0865
    150  CZ        -6.5040   -6.4120   30.5120 C.cat 276  ARG276      0.5346
    151  NH1       -5.1790   -6.3320   30.5170 N.pl3 276  ARG276      0.1354
    152  NH2       -7.1560   -6.5010   29.3590 N.pl3 276  ARG276      0.1354
    153  N         -8.6040   -7.1330   40.7970 N.3   279  SER279     -0.1217
    154  CA        -8.9620   -8.5480   40.7860 C.3   279  SER279      0.1889
    155  C         -7.8530   -9.4180   41.3590 C.2   279  SER279      0.2288
    156  O         -8.1290  -10.4950   41.8980 O.2   279  SER279     -0.2866
    157  CB        -9.2890   -8.9980   39.3660 C.3   279  SER279      0.2089
    158  OG       -10.3820   -8.2600   38.8500 O.3   279  SER279     -0.2183
    159  N        -15.3090  -15.6760   31.0600 N.3   342  GLY342     -0.1210
    160  CA       -15.2440  -14.2920   30.6470 C.3   342  GLY342      0.1956
    161  C        -14.2980  -13.4700   31.5070 C.2   342  GLY342      0.2612
    162  O        -13.9120  -13.8520   32.6130 O.2   342  GLY342     -0.2717
    163  N        -13.9150  -12.3100   30.9700 N.am  343  GLY343     -0.1942
    164  CA       -12.8470  -11.5420   31.5840 C.3   343  GLY343      0.2014
    165  C        -13.2320  -10.9280   32.9140 C.2   343  GLY343      0.2639
    166  O        -12.3830  -10.7690   33.7950 O.2   343  GLY343     -0.2714
    167  N        -14.5120  -10.6050   33.0930 N.am  344  THR344     -0.1950
    168  CA       -14.9640   -9.9890   34.3320 C.3   344  THR344      0.1897
    169  C        -15.1270  -11.0160   35.4480 C.2   344  THR344      0.2313
    170  O        -15.1390  -10.6440   36.6280 O.2   344  THR344     -0.2863
    171  CB       -16.2750   -9.2340   34.0700 C.3   344  THR344      0.1794
    172  OG1      -16.0360   -8.1960   33.1120 O.3   344  THR344     -0.2208
    173  CG2      -16.8250   -8.5870   35.3320 C.3   344  THR344      0.0378
    174  N        -12.9640  -12.8140   36.6670 N.3   346  ASN346     -0.1225
    175  CA       -11.8480  -12.7360   37.6020 C.3   346  ASN346      0.1785
    176  C        -12.1580  -11.8700   38.8130 C.2   346  ASN346      0.2597
    177  O        -11.3810  -11.8800   39.7730 O.2   346  ASN346     -0.2718
    178  CB       -10.5910  -12.2130   36.9080 C.3   346  ASN346      0.1169
    179  CG       -10.1520  -13.0950   35.7670 C.2   346  ASN346      0.2627
    180  OD1       -9.7360  -14.2310   35.9830 O.2   346  ASN346     -0.2716
    181  ND2      -10.2350  -12.5810   34.5480 N.am  346  ASN346     -0.0877
    182  N        -13.2460  -11.1160   38.7880 N.am  347  THR347     -0.1953
    183  CA       -13.6230  -10.3180   39.9420 C.3   347  THR347      0.1897
    184  C        -13.9140  -11.2350   41.1230 C.2   347  THR347      0.2313
    185  O        -14.7820  -12.1150   41.0150 O.2   347  THR347     -0.2863
    186  CB       -14.8410   -9.4600   39.6330 C.3   347  THR347      0.1794
    187  OG1      -14.5350   -8.5740   38.5500 O.3   347  THR347     -0.2208
    188  CG2      -15.2390   -8.6470   40.8560 C.3   347  THR347      0.0378
    189  N        -10.5470  -16.3510   31.7550 N.3   377  SER377     -0.1217
    190  CA       -10.3110  -15.8330   30.4090 C.3   377  SER377      0.1889
    191  C         -9.9320  -16.9320   29.4220 C.2   377  SER377      0.2288
    192  O        -10.2790  -16.8420   28.2390 O.2   377  SER377     -0.2866
    193  CB        -9.2270  -14.7520   30.4340 C.3   377  SER377      0.2089
    194  OG        -9.5610  -13.7100   31.3340 O.3   377  SER377     -0.2183
    195  N        -12.5950  -20.5250   27.0300 N.3   380  GLN380     -0.1245
    196  CA       -13.1150  -20.6760   25.6740 C.3   380  GLN380      0.1566
    197  C        -12.0180  -21.0660   24.6900 C.2   380  GLN380      0.2260
    198  O        -12.2260  -21.9300   23.8280 O.2   380  GLN380     -0.2867
    199  CB       -13.8020  -19.3850   25.2420 C.3   380  GLN380      0.0367
    200  CG       -14.8400  -18.9110   26.2400 C.3   380  GLN380      0.0905
    201  CD       -15.4920  -17.6210   25.8170 C.2   380  GLN380      0.2608
    202  OE1      -15.8690  -17.4570   24.6610 O.2   380  GLN380     -0.2717
    203  NE2      -15.6330  -16.6940   26.7550 N.am  380  GLN380     -0.0878
@<TRIPOS>BOND
     1    46    45    2
     2    45    44    1
     3    44    43    1
     4    44    47    1
     5    47    48    1
     6    48    49    1
     7    49    50    1
     8    18    17    2
     9    50    51    2
    10    52    51    1
    11    11    10    2
    12     4     3    2
    13    51    53    1
    14     3     2    1
    15     1     2    1
    16    17    19   am
    17    17    16    1
    18     8     9    1
    19    10    12   am
    20    10     9    1
    21     2     5    1
    22    13    12    1
    23    13    16    1
    24    13    14    1
    25    15    14    2
    26    14    20   am
    27   102   101    1
    28    62    60   ar
    29     5     6    1
    30     5     7    1
    31    20    21    1
    32    29    28    2
    33    60    59    1
    34    60    61   ar
    35    54    55    1
    36    59    58    1
    37   103   101    1
    38    28    27    1
    39   101   100    2
    40    23    22    2
    41    22    21    1
    42    22    26   am
    43    21    24    1
    44    27    26    1
    45    27    30    1
    46   198   197    2
    47    55    58    1
    48    55    56    1
    49   100    99    1
    50    92    91    1
    51    99    98    2
    52   202   201    2
    53    91    88    1
    54   197   196    1
    55    24    25    1
    56    98    97    1
    57    30    31    1
    58    56    57    2
    59    36    37    2
    60    36    35    1
    61   199   196    1
    62   199   200    1
    63    32    31    2
    64    97    94    1
    65   196   195    1
    66   201   200    1
    67   201   203   am
    68    31    33   am
    69    90    89    2
    70    88    89    1
    71    88    87    1
    72    35    34    1
    73    35    38    1
    74    89    93   am
    75    87    85   am
    76   115   113    1
    77    93    94    1
    78    94    95    1
    79    70    68   ar
    80    38    39    1
    81    85    84    1
    82    85    86    2
    83    95    96    2
    84   113   112    1
    85    68    69   ar
    86    68    67    1
    87   192   191    2
    88    83    84    1
    89    83    81   am
    90    39    40    1
    91   114   112    1
    92    42    40   am
    93    40    41    2
    94    67    64    1
    95    80    81    1
    96    80    79    1
    97   131   130   ar
    98   112   109    1
    99    81    82    2
   100   152   150    1
   101   191   190    1
   102   132   130   ar
   103   130   129    1
   104    66    65    2
   105    79    73   am
   106   190   193    1
   107   190   189    1
   108   193   194    1
   109   150   151    1
   110   150   149    2
   111    64    65    1
   112    64    63    1
   113   109   108    1
   114   109   110    1
   115   160   159    1
   116   160   161    1
   117    65    71   am
   118    73    74    2
   119    73    72    1
   120   108   106   am
   121   163   161   am
   122   163   164    1
   123   123   121   ar
   124   129   128    1
   125   161   162    2
   126   164   165    1
   127    71    72    1
   128   110   111    2
   129   149   148    1
   130   128   125    1
   131    72    75    1
   132   104   105    1
   133   106   105    1
   134   106   107    2
   135   121   120    1
   136   121   122   ar
   137   120   117    1
   138   165   167   am
   139   165   166    2
   140   148   147    1
   141   167   168    1
   142   172   171    1
   143   125   124    1
   144   125   126    1
   145    75    76    1
   146   141   140    1
   147   126   127    2
   148    78    76    1
   149   117   118    1
   150   117   116    1
   151   171   168    1
   152   171   173    1
   153   147   146    1
   154   118   119    2
   155    76    77    1
   156   168   169    1
   157   140   139    1
   158   181   179   am
   159   146   143    1
   160   169   170    2
   161   139   138    1
   162   179   180    2
   163   179   178    1
   164   137   138    1
   165   137   134    1
   166   143   142    1
   167   143   144    1
   168   174   175    1
   169   142   135   am
   170   178   175    1
   171   133   134    1
   172   175   176    1
   173   135   134    1
   174   135   136    2
   175   144   145    2
   176   187   186    1
   177   182   176   am
   178   182   183    1
   179   176   177    2
   180   158   157    1
   181   157   154    1
   182   186   183    1
   183   186   188    1
   184   183   184    1
   185   154   153    1
   186   154   155    1
   187   185   184    2
   188   155   156    2
