@<TRIPOS>MOLECULE
tmp/5mbkA00.pdb
 84 82 0 0 0
SMALL
GASTEIGER

@<TRIPOS>ATOM
      1  N         27.2130    0.4210    8.6340 N.3   153  ASP153     -0.1225
      2  CA        28.5670    0.8630    8.8860 C.3   153  ASP153      0.1805
      3  C         28.6270    1.4430   10.2920 C.2   153  ASP153      0.2598
      4  O         27.7370    2.2140   10.6740 O.2   153  ASP153     -0.2718
      5  CB        28.9190    1.9330    7.8410 C.3   153  ASP153      0.1424
      6  CG        30.3280    2.3480    7.8950 C.2   153  ASP153      0.3668
      7  OD1       30.7050    2.9950    8.8700 O.co2 153  ASP153     -0.2456
      8  OD2       31.0470    2.0460    6.9230 O.co2 153  ASP153     -0.2456
      9  N         29.6970    1.1160   11.0410 N.am  154  ILE154     -0.1966
     10  CA        29.7740    1.5050   12.4460 C.3   154  ILE154      0.1727
     11  C         30.2610    2.9490   12.5810 C.2   154  ILE154      0.2616
     12  O         31.2240    3.3780   11.9320 O.2   154  ILE154     -0.2715
     13  CB        30.6760    0.5310   13.2260 C.3   154  ILE154      0.0290
     14  CG1       30.0840   -0.9220   13.2190 C.3   154  ILE154      0.0022
     15  CG2       30.9160    1.0930   14.6290 C.3   154  ILE154      0.0023
     16  CD1       31.1040   -2.0410   13.7520 C.3   154  ILE154      0.0001
     17  N         29.5810    3.7120   13.4400 N.am  155  LEU155     -0.1963
     18  CA        29.9280    5.1100   13.6820 C.3   155  LEU155      0.1728
     19  C         31.2480    5.1730   14.4210 C.2   155  LEU155      0.2616
     20  O         31.3980    4.5350   15.4770 O.2   155  LEU155     -0.2715
     21  CB        28.8290    5.7780   14.4980 C.3   155  LEU155      0.0311
     22  CG        29.0760    7.2070   14.9680 C.3   155  LEU155      0.0022
     23  CD1       28.9610    8.1280   13.7670 C.3   155  LEU155      0.0001
     24  CD2       28.0600    7.5690   16.0660 C.3   155  LEU155      0.0001
     25  N         32.2250    5.8920   13.8350 N.am  156  ALA156     -0.1963
     26  CA        33.4960    6.1860   14.5090 C.3   156  ALA156      0.1728
     27  C         34.1850    4.9100   14.9850 C.2   156  ALA156      0.2616
     28  O         34.6880    4.8340   16.0990 O.2   156  ALA156     -0.2715
     29  CB        33.2860    7.1550   15.6910 C.3   156  ALA156      0.0334
     30  N         34.1890    3.8800   14.1340 N.am  157  PHE157     -0.1960
     31  CA        34.8570    2.6270   14.4960 C.3   157  PHE157      0.1771
     32  C         36.3440    2.8300   14.8330 C.2   157  PHE157      0.2620
     33  O         36.8580    2.2000   15.7690 O.2   157  PHE157     -0.2715
     34  CB        34.6860    1.5980   13.3730 C.3   157  PHE157      0.0574
     35  CG        35.2810    0.2530   13.6860 C.ar  157  PHE157     -0.0200
     36  CD1       34.5210   -0.7180   14.3290 C.ar  157  PHE157     -0.0042
     37  CD2       36.5900   -0.0390   13.3340 C.ar  157  PHE157     -0.0042
     38  CE1       35.0490   -1.9360   14.6160 C.ar  157  PHE157     -0.0003
     39  CE2       37.1380   -1.2580   13.6340 C.ar  157  PHE157     -0.0003
     40  CZ        36.3700   -2.2090   14.2690 C.ar  157  PHE157     -0.0000
     41  N         37.0570    3.6970   14.1020 N.am  158  SER158     -0.1936
     42  CA        38.4790    3.9350   14.4080 C.3   158  SER158      0.2055
     43  C         38.6630    4.3910   15.8440 C.2   158  SER158      0.2643
     44  O         39.4800    3.8550   16.5920 O.2   158  SER158     -0.2714
     45  CB        39.0640    5.0000   13.4930 C.3   158  SER158      0.2130
     46  OG        38.6390    4.7830   12.1800 O.3   158  SER158     -0.2179
     47  N         37.9180    5.4250   16.2170 N.am  159  THR159     -0.1950
     48  CA        37.9510    5.9740   17.5630 C.3   159  THR159      0.1897
     49  C         37.4930    4.9490   18.5930 C.2   159  THR159      0.2313
     50  O         38.0890    4.8210   19.6680 O.2   159  THR159     -0.2863
     51  CB        37.0470    7.2000   17.5910 C.3   159  THR159      0.1794
     52  OG1       37.4640    8.1230   16.5720 O.3   159  THR159     -0.2208
     53  CG2       37.0850    7.8380   18.9250 C.3   159  THR159      0.0378
     54  N         32.9400   -5.2970    4.5630 N.3   195  ILE195     -0.1231
     55  CA        33.9950   -4.3760    4.1910 C.3   195  ILE195      0.1692
     56  C         34.3570   -3.6030    5.4520 C.2   195  ILE195      0.2593
     57  O         33.7510   -2.5700    5.7390 O.2   195  ILE195     -0.2718
     58  CB        33.5760   -3.4270    3.0580 C.3   195  ILE195      0.0266
     59  CG1       32.7200   -4.1600    2.0270 C.3   195  ILE195      0.0019
     60  CG2       34.8150   -2.8260    2.3970 C.3   195  ILE195      0.0020
     61  CD1       32.2360   -3.3120    0.8920 C.3   195  ILE195      0.0001
     62  N         35.3580   -4.0810    6.1970 N.am  196  GLY196     -0.1942
     63  CA        35.8120   -3.3610    7.3720 C.3   196  GLY196      0.2014
     64  C         34.7960   -3.4560    8.4900 C.2   196  GLY196      0.2638
     65  O         34.5230   -4.5350    9.0190 O.2   196  GLY196     -0.2714
     66  N         34.2300   -2.3210    8.8660 N.am  197  ASP197     -0.1971
     67  CA        33.1860   -2.2560    9.8780 C.3   197  ASP197      0.1709
     68  C         31.7940   -2.2170    9.2490 C.2   197  ASP197      0.2293
     69  O         30.8660   -1.6320    9.8340 O.2   197  ASP197     -0.2864
     70  CB        33.3970   -1.0290   10.7570 C.3   197  ASP197      0.1436
     71  CG        33.3570    0.2940    9.9410 C.2   197  ASP197      0.3671
     72  OD1       33.7960    0.2640    8.7520 O.co2 197  ASP197     -0.2456
     73  OD2       32.9050    1.3520   10.4860 O.co2 197  ASP197     -0.2456
     74  N         25.7620   10.1640    8.9800 N.3   280  ARG280     -0.1245
     75  CA        26.6880   10.7620    9.9430 C.3   280  ARG280      0.1563
     76  C         26.3590   12.2280   10.2310 C.2   280  ARG280      0.2260
     77  O         26.4780   12.6820   11.3680 O.2   280  ARG280     -0.2867
     78  CB        28.1410   10.6650    9.4370 C.3   280  ARG280      0.0307
     79  CG        29.0210    9.6740   10.1740 C.3   280  ARG280      0.0489
     80  CD        28.3060    8.3510   10.2960 C.3   280  ARG280      0.2205
     81  NE        29.1990    7.1970   10.2730 N.pl3 280  ARG280     -0.0865
     82  CZ        28.7590    5.9750    9.9990 C.cat 280  ARG280      0.5346
     83  NH1       27.4680    5.7970    9.7630 N.pl3 280  ARG280      0.1354
     84  NH2       29.5730    4.9390    9.9710 N.pl3 280  ARG280      0.1354
@<TRIPOS>BOND
     1    61    59    1
     2    59    58    1
     3    60    58    1
     4    58    55    1
     5    55    54    1
     6    55    56    1
     7    56    57    2
     8    56    62   am
     9    62    63    1
    10     8     6   ar
    11    63    64    1
    12     5     6    1
    13     5     2    1
    14     6     7   ar
    15    64    66   am
    16    64    65    2
    17     1     2    1
    18    72    71   ar
    19    66    67    1
    20     2     3    1
    21    74    75    1
    22    68    69    2
    23    68    67    1
    24    78    75    1
    25    78    79    1
    26    83    82    1
    27    67    70    1
    28    71    73   ar
    29    71    70    1
    30    75    76    1
    31    84    82    1
    32    82    81    2
    33    79    80    1
    34    76    77    2
    35    81    80    1
    36     3     4    2
    37     3     9   am
    38     9    10    1
    39    12    11    2
    40    46    45    1
    41    10    11    1
    42    10    13    1
    43    11    17   am
    44    14    13    1
    45    14    16    1
    46    13    15    1
    47    37    39   ar
    48    37    35   ar
    49    34    35    1
    50    34    31    1
    51    17    18    1
    52    45    42    1
    53    39    40   ar
    54    18    19    1
    55    18    21    1
    56    35    36   ar
    57    23    22    1
    58    25    19   am
    59    25    26    1
    60    41    42    1
    61    41    32   am
    62    30    31    1
    63    30    27   am
    64    40    38   ar
    65    36    38   ar
    66    42    43    1
    67    19    20    2
    68    31    32    1
    69    21    22    1
    70    26    27    1
    71    26    29    1
    72    32    33    2
    73    22    24    1
    74    27    28    2
    75    43    47   am
    76    43    44    2
    77    47    48    1
    78    52    51    1
    79    48    51    1
    80    48    49    1
    81    51    53    1
    82    49    50    2
