@<TRIPOS>MOLECULE
tmp/5mbxA01.pdb
 176 174 0 0 0
SMALL
GASTEIGER

@<TRIPOS>ATOM
      1  N          3.4000   44.2380    6.4590 N.3    55  TRP55      -0.1241
      2  CA         2.0740   44.7130    6.8260 C.3    55  TRP55       0.1605
      3  C          2.0000   46.2420    6.9820 C.2    55  TRP55       0.2264
      4  O          2.9960   46.9050    7.2770 O.2    55  TRP55      -0.2867
      5  CB         1.7040   44.1760    8.2210 C.3    55  TRP55       0.0550
      6  CG         1.5150   42.6890    8.2820 C.ar   55  TRP55       0.0003
      7  CD1        0.4600   41.9790    7.7860 C.ar   55  TRP55       0.0946
      8  CD2        2.4820   41.7260    8.7190 C.ar   55  TRP55       0.0152
      9  NE1        0.6950   40.6250    7.9200 N.ar   55  TRP55      -0.2442
     10  CE2        1.8960   40.4470    8.5620 C.ar   55  TRP55       0.0810
     11  CE3        3.7280   41.8270    9.3450 C.ar   55  TRP55       0.0012
     12  CZ2        2.5590   39.2610    8.9340 C.ar   55  TRP55       0.0191
     13  CZ3        4.3910   40.6540    9.7160 C.ar   55  TRP55       0.0001
     14  CH2        3.8020   39.3930    9.5170 C.ar   55  TRP55       0.0015
     15  N          0.9190   48.2960    9.6730 N.3    57  HIS57      -0.1241
     16  CA         0.6670   48.1130   11.0950 C.3    57  HIS57       0.1621
     17  C         -0.3290   49.1650   11.5350 C.2    57  HIS57       0.2264
     18  O         -0.0010   50.3480   11.5810 O.2    57  HIS57      -0.2867
     19  CB         1.9540   48.1970   11.9330 C.3    57  HIS57       0.0745
     20  CG         2.9050   47.0620   11.7380 C.ar   57  HIS57       0.0817
     21  ND1        2.5120   45.7430   11.9290 N.ar   57  HIS57      -0.2268
     22  CD2        4.2360   47.0920   11.4860 C.ar   57  HIS57       0.1154
     23  CE1        3.6120   45.0130   11.7580 C.ar   57  HIS57       0.1986
     24  NE2        4.6640   45.7710   11.4520 N.ar   57  HIS57      -0.2212
     25  N          8.8970   35.5150   19.3280 N.3   161  ILE161     -0.1231
     26  CA         8.0080   36.3230   18.5010 C.3   161  ILE161      0.1692
     27  C          8.2830   37.7990   18.8910 C.2   161  ILE161      0.2591
     28  O          8.3930   38.6380   17.9970 O.2   161  ILE161     -0.2718
     29  CB         6.5210   35.9740   18.7670 C.3   161  ILE161      0.0266
     30  CG1        6.2180   34.5820   18.1600 C.3   161  ILE161      0.0019
     31  CG2        5.5710   37.0490   18.1580 C.3   161  ILE161      0.0020
     32  CD1        4.9020   33.9580   18.7260 C.3   161  ILE161      0.0001
     33  N          8.4070   38.1190   20.1940 N.am  162  GLU162     -0.1979
     34  CA         8.6770   39.4910   20.6100 C.3   162  GLU162      0.1602
     35  C         10.0130   39.9800   20.0430 C.2   162  GLU162      0.2287
     36  O         10.1340   41.1680   19.7020 O.2   162  GLU162     -0.2864
     37  CB         8.6110   39.6210   22.1440 C.3   162  GLU162      0.0415
     38  CG         8.2280   41.0150   22.6180 C.3   162  GLU162      0.1163
     39  CD         6.8580   41.5120   22.1970 C.2   162  GLU162      0.3649
     40  OE1        6.7090   42.7480   22.1010 O.co2 162  GLU162     -0.2457
     41  OE2        5.9270   40.6950   21.9940 O.co2 162  GLU162     -0.2457
     42  N         11.1780   39.1050   17.1410 N.3   164  CYS164     -0.1221
     43  CA        10.8720   39.5270   15.7640 C.3   164  CYS164      0.1808
     44  C         10.2370   40.9170   15.7880 C.2   164  CYS164      0.2601
     45  O         10.5800   41.7810   14.9690 O.2   164  CYS164     -0.2717
     46  CB         9.9250   38.5340   15.0940 C.3   164  CYS164      0.0970
     47  SG        10.6960   36.9570   14.6790 S.3   164  CYS164     -0.0800
     48  N          9.2680   41.1220   16.6820 N.am  165  VAL165     -0.1965
     49  CA         8.5630   42.4110   16.7260 C.3   165  VAL165      0.1727
     50  C          9.4880   43.5750   17.0510 C.2   165  VAL165      0.2616
     51  O          9.3990   44.6560   16.4090 O.2   165  VAL165     -0.2715
     52  CB         7.3840   42.3120   17.7000 C.3   165  VAL165      0.0290
     53  CG1        6.7160   43.6800   17.9000 C.3   165  VAL165      0.0023
     54  CG2        6.3620   41.2550   17.2350 C.3   165  VAL165      0.0023
     55  N         10.4650   43.3620   17.9510 N.am  166  SER166     -0.1950
     56  CA        11.3850   44.4460   18.2770 C.3   166  SER166      0.1924
     57  C         12.5560   44.5220   17.2950 C.2   166  SER166      0.2314
     58  O         13.2650   45.5400   17.2460 O.2   166  SER166     -0.2863
     59  CB        11.9170   44.2540   19.6950 C.3   166  SER166      0.2116
     60  OG        11.0270   44.8240   20.6480 O.3   166  SER166     -0.2180
     61  N         10.3590   51.5110   26.4230 N.3   179  PHE179     -0.1241
     62  CA         9.5840   50.5670   25.6330 C.3   179  PHE179      0.1605
     63  C          8.1560   51.0020   25.2890 C.2   179  PHE179      0.2264
     64  O          7.7300   50.8610   24.1160 O.2   179  PHE179     -0.2867
     65  CB         9.5900   49.1860   26.3230 C.3   179  PHE179      0.0534
     66  CG         9.1070   48.0350   25.4740 C.ar  179  PHE179     -0.0203
     67  CD1        9.7760   47.6850   24.3030 C.ar  179  PHE179     -0.0042
     68  CD2        8.0560   47.2360   25.9010 C.ar  179  PHE179     -0.0042
     69  CE1        9.3820   46.5570   23.5560 C.ar  179  PHE179     -0.0003
     70  CE2        7.6770   46.0960   25.1760 C.ar  179  PHE179     -0.0003
     71  CZ         8.3420   45.7730   24.0030 C.ar  179  PHE179     -0.0000
     72  N          6.5920   53.5050   22.0640 N.3   182  TYR182     -0.1241
     73  CA         6.1750   53.0610   20.7360 C.3   182  TYR182      0.1605
     74  C          4.6420   53.0860   20.6870 C.2   182  TYR182      0.2264
     75  O          3.9880   52.5900   21.6190 O.2   182  TYR182     -0.2867
     76  CB         6.7230   51.6560   20.4390 C.3   182  TYR182      0.0534
     77  CG         6.2600   51.1320   19.1000 C.ar  182  TYR182     -0.0201
     78  CD1        6.8210   51.6010   17.9110 C.ar  182  TYR182     -0.0009
     79  CD2        5.2190   50.2190   19.0130 C.ar  182  TYR182     -0.0009
     80  CE1        6.3670   51.1550   16.6720 C.ar  182  TYR182      0.0417
     81  CE2        4.7440   49.7700   17.7730 C.ar  182  TYR182      0.0417
     82  CZ         5.3310   50.2360   16.6050 C.ar  182  TYR182      0.1957
     83  OH         4.8610   49.7730   15.3850 O.3   182  TYR182     -0.2866
     84  N         15.9050   40.8470   11.4250 N.3   291  ASN291     -0.1240
     85  CA        14.7280   39.9940   11.3060 C.3   291  ASN291      0.1653
     86  C         14.7060   39.5940    9.8400 C.2   291  ASN291      0.2266
     87  O         14.8160   40.4570    8.9540 O.2   291  ASN291     -0.2867
     88  CB        13.4200   40.7230   11.6900 C.3   291  ASN291      0.1155
     89  CG        12.2170   39.7990   11.7620 C.2   291  ASN291      0.2627
     90  OD1       12.3330   38.5810   11.9830 O.2   291  ASN291     -0.2716
     91  ND2       11.0080   40.3290   11.5980 N.am  291  ASN291     -0.0877
     92  N         -1.0730   30.2430    9.9300 N.3   309  PHE309     -0.1241
     93  CA         0.2310   30.2380   10.5860 C.3   309  PHE309      0.1605
     94  C          0.5070   28.8950   11.2340 C.2   309  PHE309      0.2264
     95  O         -0.3630   28.3010   11.8750 O.2   309  PHE309     -0.2867
     96  CB         0.3120   31.3930   11.6130 C.3   309  PHE309      0.0534
     97  CG         1.6810   31.7220   12.1750 C.ar  309  PHE309     -0.0203
     98  CD1        2.6310   32.3770   11.4010 C.ar  309  PHE309     -0.0042
     99  CD2        1.9740   31.4930   13.5140 C.ar  309  PHE309     -0.0042
    100  CE1        3.8880   32.6990   11.9270 C.ar  309  PHE309     -0.0003
    101  CE2        3.2300   31.8200   14.0400 C.ar  309  PHE309     -0.0003
    102  CZ         4.1820   32.4080   13.2370 C.ar  309  PHE309     -0.0000
    103  N         10.0900   31.2620   14.6790 N.3   336  ILE336     -0.1245
    104  CA         8.8370   31.2870   15.4290 C.3   336  ILE336      0.1561
    105  C          7.7710   30.3870   14.8340 C.2   336  ILE336      0.2260
    106  O          6.8130   30.0040   15.5170 O.2   336  ILE336     -0.2867
    107  CB         8.3270   32.7410   15.5540 C.3   336  ILE336      0.0252
    108  CG1        7.9890   33.3390   14.1630 C.3   336  ILE336      0.0019
    109  CG2        9.3530   33.6030   16.2940 C.3   336  ILE336      0.0019
    110  CD1        7.1600   34.7130   14.2500 C.3   336  ILE336      0.0001
    111  N          9.8380   33.2110    9.9260 N.3   349  PHE349     -0.1241
    112  CA        10.3870   34.4660   10.4540 C.3   349  PHE349      0.1605
    113  C         11.3870   34.0920   11.5510 C.2   349  PHE349      0.2264
    114  O         11.1170   33.2110   12.3780 O.2   349  PHE349     -0.2867
    115  CB         9.2720   35.3260   11.0700 C.3   349  PHE349      0.0534
    116  CG         8.1990   35.7910   10.1240 C.ar  349  PHE349     -0.0203
    117  CD1        7.0830   35.0060    9.8810 C.ar  349  PHE349     -0.0042
    118  CD2        8.2940   37.0270    9.4970 C.ar  349  PHE349     -0.0042
    119  CE1        6.0700   35.4490    9.0230 C.ar  349  PHE349     -0.0003
    120  CE2        7.2740   37.4670    8.6320 C.ar  349  PHE349     -0.0003
    121  CZ         6.1880   36.6630    8.3990 C.ar  349  PHE349     -0.0000
    122  N         15.7100   46.7870   11.4980 N.3   404  TYR404     -0.1227
    123  CA        15.1130   48.0080   12.0240 C.3   404  TYR404      0.1736
    124  C         15.6000   48.2960   13.4010 C.2   404  TYR404      0.2596
    125  O         16.1780   47.4310   14.0870 O.2   404  TYR404     -0.2718
    126  CB        13.5710   48.0300   11.9820 C.3   404  TYR404      0.0548
    127  CG        12.8640   46.7110   12.1980 C.ar  404  TYR404     -0.0200
    128  CD1       12.5700   46.2460   13.4800 C.ar  404  TYR404     -0.0009
    129  CD2       12.4830   45.9290   11.1170 C.ar  404  TYR404     -0.0009
    130  CE1       11.8420   45.0740   13.6640 C.ar  404  TYR404      0.0417
    131  CE2       11.8400   44.7100   11.2900 C.ar  404  TYR404      0.0417
    132  CZ        11.4870   44.3000   12.5600 C.ar  404  TYR404      0.1957
    133  OH        10.8510   43.0750   12.6720 O.3   404  TYR404     -0.2866
    134  N         15.4100   49.5530   13.7750 N.am  405  SER405     -0.1938
    135  CA        15.8770   50.0460   15.0600 C.3   405  SER405      0.2055
    136  C         14.9910   49.6350   16.2240 C.2   405  SER405      0.2643
    137  O         13.7940   49.3440   16.1000 O.2   405  SER405     -0.2714
    138  CB        15.9970   51.5720   15.0050 C.3   405  SER405      0.2130
    139  OG        14.7370   52.2310   14.9790 O.3   405  SER405     -0.2179
    140  N         15.6030   49.6670   17.4100 N.am  406  TYR406     -0.1973
    141  CA        14.8970   49.5300   18.6730 C.3   406  TYR406      0.1639
    142  C         15.6420   50.3900   19.6860 C.2   406  TYR406      0.2290
    143  O         16.8060   50.7160   19.4860 O.2   406  TYR406     -0.2864
    144  CB        14.7220   48.0630   19.1630 C.3   406  TYR406      0.0560
    145  CG        15.9990   47.2980   19.3880 C.ar  406  TYR406     -0.0198
    146  CD1       16.5930   46.5680   18.3580 C.ar  406  TYR406     -0.0009
    147  CD2       16.5960   47.2490   20.6500 C.ar  406  TYR406     -0.0009
    148  CE1       17.7710   45.8520   18.5660 C.ar  406  TYR406      0.0417
    149  CE2       17.7630   46.5160   20.8770 C.ar  406  TYR406      0.0417
    150  CZ        18.3430   45.8080   19.8320 C.ar  406  TYR406      0.1957
    151  OH        19.4750   45.0550   20.0130 O.3   406  TYR406     -0.2866
    152  N          9.1610   54.5040   15.1470 N.3   440  TYR440     -0.1227
    153  CA        10.3620   53.8670   14.6280 C.3   440  TYR440      0.1736
    154  C         10.0200   52.4150   14.2620 C.2   440  TYR440      0.2596
    155  O          9.0540   51.8410   14.8090 O.2   440  TYR440     -0.2718
    156  CB        11.4990   53.8710   15.6640 C.3   440  TYR440      0.0548
    157  CG        11.1620   53.2190   16.9900 C.ar  440  TYR440     -0.0200
    158  CD1       10.5620   53.9380   18.0080 C.ar  440  TYR440     -0.0009
    159  CD2       11.4500   51.8750   17.2240 C.ar  440  TYR440     -0.0009
    160  CE1       10.3000   53.3540   19.2510 C.ar  440  TYR440      0.0417
    161  CE2       11.1360   51.2680   18.4330 C.ar  440  TYR440      0.0417
    162  CZ        10.6320   52.0250   19.4730 C.ar  440  TYR440      0.1957
    163  OH        10.3290   51.4220   20.6790 O.3   440  TYR440     -0.2866
    164  N         10.8390   51.8310   13.3710 N.am  441  SER441     -0.1938
    165  CA        10.7400   50.4480   12.8970 C.3   441  SER441      0.2055
    166  C          9.4800   50.1800   12.0780 C.2   441  SER441      0.2643
    167  O          9.1060   49.0410   11.8820 O.2   441  SER441     -0.2714
    168  CB        10.9140   49.4450   14.0420 C.3   441  SER441      0.2130
    169  OG         9.7580   49.3630   14.8590 O.3   441  SER441     -0.2179
    170  N          8.8610   51.2480   11.4830 N.am  442  THR442     -0.1950
    171  CA         7.6900   51.0720   10.6090 C.3   442  THR442      0.1897
    172  C          7.8480   51.8520    9.3250 C.2   442  THR442      0.2313
    173  O          8.6880   52.7610    9.2130 O.2   442  THR442     -0.2863
    174  CB         6.3740   51.4810   11.2790 C.3   442  THR442      0.1794
    175  OG1        6.3550   52.9190   11.4670 O.3   442  THR442     -0.2208
    176  CG2        6.1350   50.7740   12.6070 C.3   442  THR442      0.0378
@<TRIPOS>BOND
     1     1     2    1
     2     2     3    1
     3     2     5    1
     4     3     4    2
     5     7     9   ar
     6     7     6   ar
     7     9    10   ar
     8     5     6    1
     9     6     8   ar
    10   121   120   ar
    11   121   119   ar
    12    10     8   ar
    13    10    12   ar
    14   120   118   ar
    15     8    11   ar
    16    12    14   ar
    17    87    86    2
    18   119   117   ar
    19   173   172    2
    20   172   171    1
    21    11    13   ar
    22   118   116   ar
    23    14    13   ar
    24    15    16    1
    25    86    85    1
    26   117   116   ar
    27   111   112    1
    28    92    93    1
    29   116   115    1
    30   112   115    1
    31   112   113    1
    32    93    94    1
    33    93    96    1
    34   171   174    1
    35   171   170    1
    36    16    17    1
    37    16    19    1
    38   129   131   ar
    39   129   127   ar
    40    94    95    2
    41   174   175    1
    42   174   176    1
    43   131   132   ar
    44    85    84    1
    45    85    88    1
    46    98   100   ar
    47    98    97   ar
    48    24    22   ar
    49    24    23   ar
    50   170   166   am
    51    22    20   ar
    52   122   123    1
    53    17    18    2
    54   113   114    2
    55    91    89   am
    56    96    97    1
    57    88    89    1
    58    20    21   ar
    59    20    19    1
    60    23    21   ar
    61    89    90    2
    62   167   166    2
    63   100   102   ar
    64   126   123    1
    65   126   127    1
    66   123   124    1
    67   166   165    1
    68    97    99   ar
    69   127   128   ar
    70   132   133    1
    71   132   130   ar
    72   165   164    1
    73   165   168    1
    74   102   101   ar
    75   164   154   am
    76   124   134   am
    77   124   125    2
    78   128   130   ar
    79    99   101   ar
    80   134   135    1
    81   168   169    1
    82   108   110    1
    83   108   107    1
    84   154   153    1
    85   154   155    2
    86   153   152    1
    87   153   156    1
    88   103   104    1
    89    47    46    1
    90   105   104    1
    91   105   106    2
    92    45    44    2
    93   139   138    1
    94   138   135    1
    95   135   136    1
    96    46    43    1
    97    83    82    1
    98   104   107    1
    99   107   109    1
   100   156   157    1
   101    43    44    1
   102    43    42    1
   103    44    48   am
   104   137   136    2
   105   136   140   am
   106    51    50    2
   107    82    80   ar
   108    82    81   ar
   109    80    78   ar
   110    48    49    1
   111    49    50    1
   112    49    52    1
   113   157   159   ar
   114   157   158   ar
   115    50    55   am
   116   159   161   ar
   117    54    52    1
   118    58    57    2
   119    57    56    1
   120   140   141    1
   121    52    53    1
   122    81    79   ar
   123    78    77   ar
   124    55    56    1
   125    28    27    2
   126   158   160   ar
   127    31    29    1
   128    30    32    1
   129    30    29    1
   130    56    59    1
   131   146   148   ar
   132   146   145   ar
   133   161   162   ar
   134    26    29    1
   135    26    27    1
   136    26    25    1
   137   148   150   ar
   138   141   144    1
   139   141   142    1
   140    27    33   am
   141    79    77   ar
   142    77    76    1
   143   144   145    1
   144   160   162   ar
   145   145   147   ar
   146   162   163    1
   147   143   142    2
   148    59    60    1
   149    36    35    2
   150   150   151    1
   151   150   149   ar
   152    35    34    1
   153    33    34    1
   154    76    73    1
   155    34    37    1
   156   147   149   ar
   157    74    73    1
   158    74    75    2
   159    73    72    1
   160    41    39   ar
   161    40    39   ar
   162    37    38    1
   163    39    38    1
   164    69    71   ar
   165    69    67   ar
   166    71    70   ar
   167    64    63    2
   168    67    66   ar
   169    70    68   ar
   170    63    62    1
   171    66    68   ar
   172    66    65    1
   173    62    65    1
   174    62    61    1
