@<TRIPOS>MOLECULE
tmp/5mc1B00.pdb
 113 106 0 0 0
SMALL
GASTEIGER

@<TRIPOS>ATOM
      1  N         13.1090   35.2670   76.7420 N.3   239  ILE239     -0.1245
      2  CA        12.2830   36.1370   77.5410 C.3   239  ILE239      0.1561
      3  C         10.9580   36.2640   76.7970 C.2   239  ILE239      0.2260
      4  O         10.8910   36.9480   75.7700 O.2   239  ILE239     -0.2867
      5  CB        12.9600   37.5070   77.6850 C.3   239  ILE239      0.0252
      6  CG1       14.3090   37.3590   78.3960 C.3   239  ILE239      0.0019
      7  CG2       12.0360   38.4800   78.4130 C.3   239  ILE239      0.0019
      8  CD1       15.2610   38.5670   78.1830 C.3   239  ILE239      0.0001
      9  N         12.4500   42.7360   82.9910 N.3   249  LEU249     -0.1231
     10  CA        13.4330   42.8710   81.9280 C.3   249  LEU249      0.1693
     11  C         14.0440   41.5410   81.4790 C.2   249  LEU249      0.2592
     12  O         14.2830   41.3560   80.2820 O.2   249  LEU249     -0.2718
     13  CB        14.5340   43.8370   82.3280 C.3   249  LEU249      0.0284
     14  CG        14.0600   45.2510   82.6700 C.3   249  LEU249      0.0019
     15  CD1       15.2850   46.1160   82.9200 C.3   249  LEU249      0.0001
     16  CD2       13.1450   45.8400   81.5790 C.3   249  LEU249      0.0001
     17  N         14.3180   40.6580   82.4400 N.am  250  HIS250     -0.1976
     18  CA        14.9120   39.3390   82.1840 C.3   250  HIS250      0.1656
     19  C         13.9540   38.2100   82.5900 C.2   250  HIS250      0.2291
     20  O         14.3670   37.1530   83.0820 O.2   250  HIS250     -0.2864
     21  CB        16.2320   39.1830   82.9670 C.3   250  HIS250      0.0771
     22  CG        17.3400   40.0700   82.4910 C.ar  250  HIS250      0.0820
     23  ND1       18.5540   40.1410   83.1440 N.ar  250  HIS250     -0.2267
     24  CD2       17.4340   40.9010   81.4240 C.ar  250  HIS250      0.1154
     25  CE1       19.3490   40.9810   82.5010 C.ar  250  HIS250      0.1986
     26  NE2       18.6980   41.4530   81.4510 N.ar  250  HIS250     -0.2212
     27  N         11.9360   38.6230   73.7150 N.3   271  ASN271     -0.1240
     28  CA        13.3580   38.9390   73.5550 C.3   271  ASN271      0.1653
     29  C         14.0430   37.5740   73.4850 C.2   271  ASN271      0.2266
     30  O         14.1530   36.8770   74.4850 O.2   271  ASN271     -0.2867
     31  CB        13.7900   39.8140   74.7510 C.3   271  ASN271      0.1155
     32  CG        15.1980   40.3330   74.6700 C.2   271  ASN271      0.2627
     33  OD1       15.5820   41.1170   75.5510 O.2   271  ASN271     -0.2716
     34  ND2       15.9580   39.9570   73.6410 N.am  271  ASN271     -0.0877
     35  N         20.5140   38.8520   69.3270 N.3   282  ASP282     -0.1239
     36  CA        19.6780   39.3270   70.4400 C.3   282  ASP282      0.1674
     37  C         18.6270   40.2690   69.8760 C.2   282  ASP282      0.2266
     38  O         18.9260   41.4040   69.5460 O.2   282  ASP282     -0.2867
     39  CB        20.5450   40.0250   71.4880 C.3   282  ASP282      0.1410
     40  CG        19.8080   40.3310   72.7600 C.2   282  ASP282      0.3668
     41  OD1       18.6230   39.9770   72.8970 O.co2 282  ASP282     -0.2456
     42  OD2       20.4080   40.9640   73.6470 O.co2 282  ASP282     -0.2456
     43  N         17.1960   50.5130   82.2490 N.3   361  HIS361     -0.1226
     44  CA        18.3070   49.7040   81.7600 C.3   361  HIS361      0.1752
     45  C         19.0660   50.5100   80.7230 C.2   361  HIS361      0.2596
     46  O         18.6180   51.5700   80.2940 O.2   361  HIS361     -0.2718
     47  CB        17.8060   48.3720   81.1850 C.3   361  HIS361      0.0759
     48  CG        16.8850   48.5010   80.0030 C.ar  361  HIS361      0.0818
     49  ND1       17.3230   48.8230   78.7350 N.ar  361  HIS361     -0.2268
     50  CD2       15.5500   48.2880   79.8930 C.ar  361  HIS361      0.1154
     51  CE1       16.2930   48.8160   77.9010 C.ar  361  HIS361      0.1986
     52  NE2       15.2110   48.4860   78.5780 N.ar  361  HIS361     -0.2212
     53  N         20.2400   50.0120   80.3270 N.am  362  GLY362     -0.1957
     54  CA        21.0180   50.6680   79.3010 C.3   362  GLY362      0.1869
     55  C         20.4220   50.5540   77.9180 C.2   362  GLY362      0.2309
     56  O         19.7690   49.5750   77.5870 O.2   362  GLY362     -0.2863
     57  N         24.1670   47.3210   74.1730 N.3   365  HIS365     -0.1241
     58  CA        25.4330   46.7430   74.6010 C.3   365  HIS365      0.1621
     59  C         26.1820   46.1030   73.4490 C.2   365  HIS365      0.2264
     60  O         25.5910   45.7670   72.4180 O.2   365  HIS365     -0.2867
     61  CB        25.1380   45.6950   75.6930 C.3   365  HIS365      0.0745
     62  CG        24.1550   44.6490   75.2750 C.ar  365  HIS365      0.0817
     63  ND1       24.4800   43.5500   74.4910 N.ar  365  HIS365     -0.2268
     64  CD2       22.8290   44.5430   75.5280 C.ar  365  HIS365      0.1154
     65  CE1       23.3890   42.8290   74.2810 C.ar  365  HIS365      0.1986
     66  NE2       22.3810   43.4000   74.9150 N.ar  365  HIS365     -0.2212
     67  N         26.1110   39.6790   75.9530 N.3   372  HIS372     -0.1241
     68  CA        26.6980   40.8640   76.5730 C.3   372  HIS372      0.1621
     69  C         28.2010   40.7610   76.3910 C.2   372  HIS372      0.2264
     70  O         28.8890   40.1820   77.2250 O.2   372  HIS372     -0.2867
     71  CB        26.3320   40.9740   78.0490 C.3   372  HIS372      0.0745
     72  CG        24.8750   41.2170   78.2790 C.ar  372  HIS372      0.0817
     73  ND1       24.2780   41.0420   79.5050 N.ar  372  HIS372     -0.2268
     74  CD2       23.8950   41.6200   77.4340 C.ar  372  HIS372      0.1154
     75  CE1       22.9900   41.3340   79.4100 C.ar  372  HIS372      0.1986
     76  NE2       22.7290   41.6700   78.1570 N.ar  372  HIS372     -0.2212
     77  N         23.3970   51.5290   84.2680 N.3   391  SER391     -0.1217
     78  CA        23.1570   50.1760   83.7720 C.3   391  SER391      0.1889
     79  C         23.6580   49.9930   82.3480 C.2   391  SER391      0.2288
     80  O         23.6220   48.8580   81.8040 O.2   391  SER391     -0.2866
     81  CB        21.6730   49.8400   83.8180 C.3   391  SER391      0.2089
     82  OG        21.2490   49.6640   85.1550 O.3   391  SER391     -0.2183
     83  N         26.0520   49.0340   79.5620 N.3   393  ARG393     -0.1245
     84  CA        27.1080   48.0130   79.5690 C.3   393  ARG393      0.1563
     85  C         28.3590   48.4880   78.8270 C.2   393  ARG393      0.2260
     86  O         29.3840   47.7950   78.8220 O.2   393  ARG393     -0.2867
     87  CB        26.5770   46.6960   79.0070 C.3   393  ARG393      0.0307
     88  CG        25.3870   46.1930   79.8200 C.3   393  ARG393      0.0489
     89  CD        24.9420   44.8050   79.4120 C.3   393  ARG393      0.2205
     90  NE        23.7840   44.3810   80.1830 N.pl3 393  ARG393     -0.0865
     91  CZ        23.8260   43.9030   81.4200 C.cat 393  ARG393      0.5346
     92  NH1       24.9860   43.7690   82.0660 N.pl3 393  ARG393      0.1354
     93  NH2       22.6890   43.5720   82.0290 N.pl3 393  ARG393      0.1354
     94  N         18.3310   48.9450   71.9100 N.3   407  GLU407     -0.1245
     95  CA        17.1530   48.3760   72.5520 C.3   407  GLU407      0.1567
     96  C         16.4430   49.2900   73.5460 C.2   407  GLU407      0.2260
     97  O         16.2610   48.9440   74.7100 O.2   407  GLU407     -0.2867
     98  CB        17.4930   47.0200   73.1780 C.3   407  GLU407      0.0388
     99  CG        18.6030   47.0230   74.2230 C.3   407  GLU407      0.1160
    100  CD        18.8120   45.6420   74.7930 C.2   407  GLU407      0.3649
    101  OE1       17.8060   45.0260   75.2310 O.co2 407  GLU407     -0.2457
    102  OE2       19.9480   45.1290   74.7490 O.co2 407  GLU407     -0.2457
    103  N          9.7100   46.9440   74.2140 N.3   445  ARG445     -0.1245
    104  CA        11.1190   47.0670   73.8750 C.3   445  ARG445      0.1563
    105  C         11.2720   46.6630   72.4170 C.2   445  ARG445      0.2260
    106  O         10.6980   45.6800   71.9770 O.2   445  ARG445     -0.2867
    107  CB        11.9840   46.1850   74.7920 C.3   445  ARG445      0.0307
    108  CG        13.4640   46.1480   74.4200 C.3   445  ARG445      0.0489
    109  CD        14.3830   45.6310   75.5390 C.3   445  ARG445      0.2205
    110  NE        14.2570   44.2050   75.8790 N.pl3 445  ARG445     -0.0865
    111  CZ        13.7090   43.7180   76.9840 C.cat 445  ARG445      0.5346
    112  NH1       13.0870   44.5030   77.8540 N.pl3 445  ARG445      0.1354
    113  NH2       13.7330   42.4010   77.2170 N.pl3 445  ARG445      0.1354
@<TRIPOS>BOND
     1    35    36    1
     2    38    37    2
     3    37    36    1
     4    36    39    1
     5    39    40    1
     6    94    95    1
     7   106   105    2
     8   105   104    1
     9    60    59    2
    10    95    98    1
    11    95    96    1
    12    40    41   ar
    13    40    42   ar
    14    98    99    1
    15    59    58    1
    16    29    28    1
    17    29    30    2
    18    96    97    2
    19    28    27    1
    20    28    31    1
    21    34    32   am
    22   104   103    1
    23   104   107    1
    24    57    58    1
    25    99   100    1
    26    65    63   ar
    27    65    66   ar
    28   108   107    1
    29   108   109    1
    30    63    62   ar
    31    58    61    1
    32    32    31    1
    33    32    33    2
    34   102   100   ar
    35   100   101   ar
    36    66    64   ar
    37    62    64   ar
    38    62    61    1
    39   109   110    1
    40     4     3    2
    41   110   111    2
    42    67    68    1
    43    69    68    1
    44    69    70    2
    45    68    71    1
    46     1     2    1
    47     3     2    1
    48   111   113    1
    49   111   112    1
    50    74    76   ar
    51    74    72   ar
    52     2     5    1
    53    56    55    2
    54     5     6    1
    55     5     7    1
    56    51    52   ar
    57    51    49   ar
    58    55    54    1
    59    71    72    1
    60    76    75   ar
    61     8     6    1
    62    72    73   ar
    63    52    50   ar
    64    49    48   ar
    65    86    85    2
    66    85    84    1
    67    87    84    1
    68    87    88    1
    69    54    53    1
    70    75    73   ar
    71    89    88    1
    72    89    90    1
    73    83    84    1
    74    50    48   ar
    75    48    47    1
    76    90    91    2
    77    12    11    2
    78    46    45    2
    79    53    45   am
    80    45    44    1
    81    47    44    1
    82    91    93    1
    83    91    92    1
    84    24    26   ar
    85    24    22   ar
    86    26    25   ar
    87    11    10    1
    88    11    17   am
    89    16    14    1
    90    44    43    1
    91    80    79    2
    92    10    13    1
    93    10     9    1
    94    18    17    1
    95    18    19    1
    96    18    21    1
    97    13    14    1
    98    79    78    1
    99    22    21    1
   100    22    23   ar
   101    25    23   ar
   102    19    20    2
   103    14    15    1
   104    78    81    1
   105    78    77    1
   106    81    82    1
