@<TRIPOS>MOLECULE
tmp/5mcbA01.pdb
 226 217 0 0 0
SMALL
GASTEIGER

@<TRIPOS>ATOM
      1  N         33.1370   20.3530   39.4280 N.3    77  GLU77      -0.1245
      2  CA        31.8180   20.8060   39.0570 C.3    77  GLU77       0.1567
      3  C         30.8760   19.6450   38.7430 C.2    77  GLU77       0.2260
      4  O         31.2140   18.7230   37.9660 O.2    77  GLU77      -0.2867
      5  CB        31.9080   21.7280   37.8260 C.3    77  GLU77       0.0388
      6  CG        32.8280   22.9340   38.0100 C.3    77  GLU77       0.1160
      7  CD        32.7340   23.9520   36.8680 C.2    77  GLU77       0.3649
      8  OE1       31.7640   23.9310   36.0710 O.co2  77  GLU77      -0.2457
      9  OE2       33.6570   24.7630   36.7410 O.co2  77  GLU77      -0.2457
     10  N         29.5590   25.6120   36.0780 N.3   122  ASN122     -0.1225
     11  CA        29.5280   26.8290   35.2650 C.3   122  ASN122      0.1785
     12  C         28.7860   26.6300   33.9340 C.2   122  ASN122      0.2598
     13  O         28.0640   27.5040   33.5050 O.2   122  ASN122     -0.2718
     14  CB        30.9600   27.3040   34.9610 C.3   122  ASN122      0.1169
     15  CG        31.5580   28.1200   36.1040 C.2   122  ASN122      0.2627
     16  OD1       31.1000   29.2340   36.3860 O.2   122  ASN122     -0.2716
     17  ND2       32.5670   27.5770   36.7580 N.am  122  ASN122     -0.0877
     18  N         29.0090   25.5040   33.2820 N.am  123  GLY123     -0.1942
     19  CA        28.4600   25.3010   31.9600 C.3   123  GLY123      0.2014
     20  C         28.6680   23.8800   31.5340 C.2   123  GLY123      0.2639
     21  O         28.3310   22.9370   32.2860 O.2   123  GLY123     -0.2714
     22  N         29.2320   23.7380   30.3390 N.am  124  GLY124     -0.1939
     23  CA        29.3800   22.4500   29.6470 C.3   124  GLY124      0.2014
     24  C         30.1250   21.3320   30.3870 C.2   124  GLY124      0.2638
     25  O         29.6560   20.2170   30.4630 O.2   124  GLY124     -0.2714
     26  N         31.2780   21.6450   30.9650 N.am  125  LEU125     -0.1977
     27  CA        32.0430   20.6630   31.7270 C.3   125  LEU125      0.1596
     28  C         31.2660   20.1040   32.9470 C.2   125  LEU125      0.2287
     29  O         31.3060   18.9100   33.2140 O.2   125  LEU125     -0.2864
     30  CB        33.3740   21.2880   32.1720 C.3   125  LEU125      0.0297
     31  CG        34.2710   20.5080   33.1390 C.3   125  LEU125      0.0022
     32  CD1       35.7380   20.9280   32.9770 C.3   125  LEU125      0.0001
     33  CD2       33.8500   20.7230   34.5710 C.3   125  LEU125      0.0001
     34  N         28.2610   17.9810   31.6840 N.3   128  LEU128     -0.1245
     35  CA        28.7040   16.6740   31.1910 C.3   128  LEU128      0.1561
     36  C         28.9040   15.6660   32.3080 C.2   128  LEU128      0.2260
     37  O         28.5840   14.4910   32.1530 O.2   128  LEU128     -0.2867
     38  CB        29.9960   16.7910   30.4480 C.3   128  LEU128      0.0270
     39  CG        30.4730   15.5380   29.6940 C.3   128  LEU128      0.0019
     40  CD1       29.7180   15.4050   28.3810 C.3   128  LEU128      0.0001
     41  CD2       31.9810   15.6090   29.4360 C.3   128  LEU128      0.0001
     42  N         34.0570   28.9040   42.0770 N.3   263  TYR263     -0.1241
     43  CA        34.6870   29.9280   41.2650 C.3   263  TYR263      0.1605
     44  C         33.8990   30.0380   39.9420 C.2   263  TYR263      0.2264
     45  O         33.7020   29.0440   39.2850 O.2   263  TYR263     -0.2867
     46  CB        36.1460   29.6210   40.9790 C.3   263  TYR263      0.0534
     47  CG        37.0050   30.1620   42.0420 C.ar  263  TYR263     -0.0201
     48  CD1       37.1080   29.5070   43.2670 C.ar  263  TYR263     -0.0009
     49  CD2       37.6970   31.3570   41.8540 C.ar  263  TYR263     -0.0009
     50  CE1       37.9160   30.0160   44.2800 C.ar  263  TYR263      0.0417
     51  CE2       38.4990   31.8810   42.8580 C.ar  263  TYR263      0.0417
     52  CZ        38.6010   31.2000   44.0670 C.ar  263  TYR263      0.1957
     53  OH        39.3870   31.7200   45.0570 O.3   263  TYR263     -0.2866
     54  N         34.6080   31.3190   36.9660 N.3   265  ASN265     -0.1225
     55  CA        35.4430   31.4370   35.7410 C.3   265  ASN265      0.1785
     56  C         35.4050   30.2300   34.7970 C.2   265  ASN265      0.2597
     57  O         36.0870   29.2310   35.0070 O.2   265  ASN265     -0.2718
     58  CB        36.9250   31.6050   36.0830 C.3   265  ASN265      0.1169
     59  CG        37.1900   32.7460   36.9960 C.2   265  ASN265      0.2627
     60  OD1       37.7560   32.5590   38.0740 O.2   265  ASN265     -0.2716
     61  ND2       36.7920   33.9450   36.5820 N.am  265  ASN265     -0.0877
     62  N         34.6400   30.3830   33.7350 N.am  266  ASP266     -0.1960
     63  CA        34.5700   29.4920   32.5800 C.3   266  ASP266      0.1840
     64  C         35.8010   30.0190   31.7240 C.2   266  ASP266      0.2622
     65  O         35.9570   31.2240   31.5330 O.2   266  ASP266     -0.2715
     66  CB        33.1900   29.7750   31.8720 C.3   266  ASP266      0.1450
     67  CG        32.4220   28.5230   31.3990 C.2   266  ASP266      0.3671
     68  OD1       32.2720   27.5040   32.1130 O.co2 266  ASP266     -0.2456
     69  OD2       31.9030   28.5580   30.2700 O.co2 266  ASP266     -0.2456
     70  N         36.7000   29.1500   31.2700 N.am  267  ASN267     -0.1958
     71  CA        37.8210   29.5640   30.3520 C.3   267  ASN267      0.1819
     72  C         38.7240   30.8570   30.6740 C.2   267  ASN267      0.2621
     73  O         39.1800   31.5510   29.7540 O.2   267  ASN267     -0.2715
     74  CB        37.2680   29.6220   28.8880 C.3   267  ASN267      0.1195
     75  CG        37.3770   28.2790   28.1300 C.2   267  ASN267      0.2630
     76  OD1       38.2320   28.1360   27.2490 O.2   267  ASN267     -0.2716
     77  ND2       36.4970   27.3090   28.4430 N.am  267  ASN267     -0.0877
     78  N         39.0090   31.1780   31.9450 N.am  268  PHE268     -0.1960
     79  CA        40.1320   32.1210   32.2740 C.3   268  PHE268      0.1771
     80  C         40.8810   31.8190   33.5920 C.2   268  PHE268      0.2619
     81  O         40.4680   32.2640   34.6700 O.2   268  PHE268     -0.2715
     82  CB        39.7180   33.5950   32.2530 C.3   268  PHE268      0.0574
     83  CG        40.9000   34.5470   32.1950 C.ar  268  PHE268     -0.0200
     84  CD1       41.5540   34.9740   33.3640 C.ar  268  PHE268     -0.0042
     85  CD2       41.3900   34.9960   30.9660 C.ar  268  PHE268     -0.0042
     86  CE1       42.6540   35.8270   33.2990 C.ar  268  PHE268     -0.0003
     87  CE2       42.4900   35.8570   30.8960 C.ar  268  PHE268     -0.0003
     88  CZ        43.1240   36.2700   32.0630 C.ar  268  PHE268     -0.0000
     89  N         42.0100   31.1120   33.4980 N.am  269  PHE269     -0.1974
     90  CA        42.7140   30.6430   34.7010 C.3   269  PHE269      0.1639
     91  C         43.2660   31.8130   35.5510 C.2   269  PHE269      0.2290
     92  O         43.9780   32.7020   35.0530 O.2   269  PHE269     -0.2864
     93  CB        43.8290   29.6360   34.3310 C.3   269  PHE269      0.0560
     94  CG        44.7740   29.2940   35.4800 C.ar  269  PHE269     -0.0200
     95  CD1       44.3810   28.4450   36.4960 C.ar  269  PHE269     -0.0042
     96  CD2       46.0430   29.8370   35.5330 C.ar  269  PHE269     -0.0042
     97  CE1       45.2560   28.1320   37.5530 C.ar  269  PHE269     -0.0003
     98  CE2       46.9060   29.5360   36.5650 C.ar  269  PHE269     -0.0003
     99  CZ        46.5140   28.6680   37.5680 C.ar  269  PHE269     -0.0000
    100  N         41.4080   28.6070   45.3610 N.3   275  ARG275     -0.1245
    101  CA        41.0600   27.6150   44.3510 C.3   275  ARG275      0.1563
    102  C         41.9980   26.4080   44.4170 C.2   275  ARG275      0.2260
    103  O         41.5540   25.2660   44.2700 O.2   275  ARG275     -0.2867
    104  CB        41.0950   28.2750   42.9780 C.3   275  ARG275      0.0307
    105  CG        40.9930   27.3550   41.7940 C.3   275  ARG275      0.0489
    106  CD        39.6490   26.6570   41.7280 C.3   275  ARG275      0.2205
    107  NE        39.5860   25.8500   40.5070 N.pl3 275  ARG275     -0.0865
    108  CZ        38.4790   25.4090   39.8990 C.cat 275  ARG275      0.5346
    109  NH1       37.2820   25.6720   40.3880 N.pl3 275  ARG275      0.1354
    110  NH2       38.5820   24.6970   38.7820 N.pl3 275  ARG275      0.1354
    111  N         39.1240   17.2940   33.3280 N.3   312  ASP312     -0.1239
    112  CA        40.1260   18.3160   33.0800 C.3   312  ASP312      0.1674
    113  C         41.2790   18.2100   34.1020 C.2   312  ASP312      0.2266
    114  O         41.4380   17.1800   34.7440 O.2   312  ASP312     -0.2867
    115  CB        39.5060   19.7220   32.9860 C.3   312  ASP312      0.1410
    116  CG        40.2210   20.5740   31.9410 C.2   312  ASP312      0.3668
    117  OD1       41.2930   21.1160   32.2800 O.co2 312  ASP312     -0.2456
    118  OD2       39.8090   20.5910   30.7670 O.co2 312  ASP312     -0.2456
    119  N         41.6510   20.0450   36.7430 N.3   314  HIS314     -0.1241
    120  CA        41.2800   20.6260   38.0440 C.3   314  HIS314      0.1621
    121  C         41.6040   19.6560   39.2150 C.2   314  HIS314      0.2264
    122  O         42.0380   20.1060   40.2810 O.2   314  HIS314     -0.2867
    123  CB        39.8230   21.0870   38.0580 C.3   314  HIS314      0.0745
    124  CG        39.4640   21.9620   36.8970 C.ar  314  HIS314      0.0817
    125  ND1       38.1820   22.0560   36.4140 N.ar  314  HIS314     -0.2268
    126  CD2       40.2290   22.7230   36.0770 C.ar  314  HIS314      0.1154
    127  CE1       38.1650   22.8610   35.3670 C.ar  314  HIS314      0.1986
    128  NE2       39.3980   23.2620   35.1270 N.ar  314  HIS314     -0.2212
    129  N         39.2070   19.4040   27.9980 N.3   350  HIS350     -0.1226
    130  CA        38.0140   20.1310   27.5580 C.3   350  HIS350      0.1752
    131  C         38.2180   21.4860   26.8840 C.2   350  HIS350      0.2596
    132  O         37.2350   22.1700   26.6300 O.2   350  HIS350     -0.2718
    133  CB        37.1200   20.3810   28.7610 C.3   350  HIS350      0.0759
    134  CG        36.5900   19.1460   29.3810 C.ar  350  HIS350      0.0818
    135  ND1       35.4140   18.5740   28.9700 N.ar  350  HIS350     -0.2268
    136  CD2       37.0450   18.3900   30.4100 C.ar  350  HIS350      0.1154
    137  CE1       35.1690   17.5080   29.7040 C.ar  350  HIS350      0.1986
    138  NE2       36.1470   17.3710   30.5860 N.ar  350  HIS350     -0.2212
    139  N         39.4520   21.9060   26.6210 N.am  351  THR351     -0.1953
    140  CA        39.6590   23.1460   25.8420 C.3   351  THR351      0.1897
    141  C         41.0670   23.2960   25.3290 C.2   351  THR351      0.2313
    142  O         42.0050   22.8330   25.9750 O.2   351  THR351     -0.2863
    143  CB        39.3690   24.4310   26.6470 C.3   351  THR351      0.1794
    144  OG1       39.5220   25.5810   25.7870 O.3   351  THR351     -0.2208
    145  CG2       40.2960   24.5420   27.9070 C.3   351  THR351      0.0378
    146  N         42.8840   29.2860   29.3940 N.3   356  ALA356     -0.1245
    147  CA        42.1350   28.3750   30.2510 C.3   356  ALA356      0.1562
    148  C         43.0210   27.2650   30.9030 C.2   356  ALA356      0.2260
    149  O         42.5590   26.5590   31.8010 O.2   356  ALA356     -0.2867
    150  CB        41.0250   27.7420   29.4390 C.3   356  ALA356      0.0290
    151  N         45.6530   25.4460   33.2700 N.3   358  GLU358     -0.1245
    152  CA        46.1480   25.6740   34.6140 C.3   358  GLU358      0.1567
    153  C         47.6400   25.5810   34.6540 C.2   358  GLU358      0.2260
    154  O         48.2100   24.5340   34.3420 O.2   358  GLU358     -0.2867
    155  CB        45.5900   24.6490   35.5990 C.3   358  GLU358      0.0388
    156  CG        44.0980   24.7800   35.7830 C.3   358  GLU358      0.1160
    157  CD        43.6150   23.9250   36.9320 C.2   358  GLU358      0.3649
    158  OE1       43.6310   22.6870   36.8280 O.co2 358  GLU358     -0.2457
    159  OE2       43.2410   24.5100   37.9430 O.co2 358  GLU358     -0.2457
    160  N         37.1010   15.4290   23.3160 N.3   428  VAL428     -0.1245
    161  CA        35.6800   15.3410   23.5800 C.3   428  VAL428      0.1561
    162  C         34.8440   15.4470   22.3060 C.2   428  VAL428      0.2260
    163  O         33.6180   15.4200   22.3720 O.2   428  VAL428     -0.2867
    164  CB        35.2520   16.3500   24.6750 C.3   428  VAL428      0.0252
    165  CG1       35.7910   15.8930   26.0370 C.3   428  VAL428      0.0019
    166  CG2       35.6800   17.7700   24.3620 C.3   428  VAL428      0.0019
    167  N         31.4500   13.5980   23.1140 N.3   457  ASN457     -0.1240
    168  CA        30.4640   13.9070   24.1470 C.3   457  ASN457      0.1653
    169  C         29.0290   13.4800   23.7520 C.2   457  ASN457      0.2266
    170  O         28.7320   13.1570   22.5900 O.2   457  ASN457     -0.2867
    171  CB        30.4850   15.4120   24.4840 C.3   457  ASN457      0.1155
    172  CG        31.6600   15.8170   25.3850 C.2   457  ASN457      0.2627
    173  OD1       32.3610   14.9710   25.9460 O.2   457  ASN457     -0.2716
    174  ND2       31.8600   17.1350   25.5450 N.am  457  ASN457     -0.0877
    175  N         34.7910   33.7560   22.0570 N.3   546  TYR546     -0.1227
    176  CA        34.9100   32.6530   21.0970 C.3   546  TYR546      0.1736
    177  C         33.5650   32.0810   20.6440 C.2   546  TYR546      0.2595
    178  O         33.4830   31.5350   19.5150 O.2   546  TYR546     -0.2718
    179  CB        35.8530   31.5530   21.5900 C.3   546  TYR546      0.0548
    180  CG        35.2530   30.4440   22.4330 C.ar  546  TYR546     -0.0200
    181  CD1       34.6790   29.3280   21.8460 C.ar  546  TYR546     -0.0009
    182  CD2       35.3540   30.4660   23.8070 C.ar  546  TYR546     -0.0009
    183  CE1       34.2020   28.2920   22.6040 C.ar  546  TYR546      0.0417
    184  CE2       34.8690   29.4290   24.5780 C.ar  546  TYR546      0.0417
    185  CZ        34.2890   28.3490   23.9800 C.ar  546  TYR546      0.1957
    186  OH        33.7850   27.3280   24.7660 O.3   546  TYR546     -0.2866
    187  N         32.5270   32.2140   21.4780 N.am  547  LYS547     -0.1980
    188  CA        31.1920   31.7000   21.1210 C.3   547  LYS547      0.1596
    189  C         30.4380   32.6430   20.1670 C.2   547  LYS547      0.2287
    190  O         29.4470   32.2500   19.5690 O.2   547  LYS547     -0.2864
    191  CB        30.3690   31.3460   22.3790 C.3   547  LYS547      0.0298
    192  CG        30.9890   30.2080   23.1900 C.3   547  LYS547      0.0038
    193  CD        30.4230   30.1230   24.6070 C.3   547  LYS547      0.0206
    194  CE        30.8630   28.8930   25.4130 C.3   547  LYS547      0.1093
    195  NZ        30.3230   27.5730   24.8440 N.3   547  LYS547     -0.1314
    196  N         35.4800   25.6850   19.9650 N.3   645  GLU645     -0.1231
    197  CA        34.5270   24.9300   20.8030 C.3   645  GLU645      0.1699
    198  C         34.9220   23.4690   20.7580 C.2   645  GLU645      0.2592
    199  O         34.7770   22.8460   19.7360 O.2   645  GLU645     -0.2718
    200  CB        33.0710   25.1180   20.3420 C.3   645  GLU645      0.0402
    201  CG        32.0220   24.5890   21.3490 C.3   645  GLU645      0.1161
    202  CD        31.9030   25.4810   22.5740 C.2   645  GLU645      0.3649
    203  OE1       31.1600   26.4960   22.4840 O.co2 645  GLU645     -0.2457
    204  OE2       32.6110   25.2230   23.5820 O.co2 645  GLU645     -0.2457
    205  N         35.4650   22.9310   21.8510 N.am  646  ALA646     -0.1966
    206  CA        35.9770   21.5440   21.8340 C.3   646  ALA646      0.1728
    207  C         34.9310   20.5380   21.3550 C.2   646  ALA646      0.2617
    208  O         35.2020   19.7190   20.4600 O.2   646  ALA646     -0.2715
    209  CB        36.5390   21.1470   23.1930 C.3   646  ALA646      0.0334
    210  N         33.7360   20.6240   21.9220 N.am  647  SER647     -0.1936
    211  CA        32.6250   19.7730   21.5120 C.3   647  SER647      0.2055
    212  C         31.3380   20.5810   21.3430 C.2   647  SER647      0.2644
    213  O         30.7840   20.6930   20.2170 O.2   647  SER647     -0.2714
    214  CB        32.4380   18.6020   22.4920 C.3   647  SER647      0.2130
    215  OG        31.3130   17.8070   22.1150 O.3   647  SER647     -0.2179
    216  N         30.9100   21.1760   22.4440 N.am  648  GLY648     -0.1939
    217  CA        29.5750   21.6680   22.6490 C.3   648  GLY648      0.2014
    218  C         28.6960   20.5030   23.1430 C.2   648  GLY648      0.2639
    219  O         28.9000   19.3370   22.7360 O.2   648  GLY648     -0.2714
    220  N         27.7370   20.8070   24.0060 N.am  649  THR649     -0.1950
    221  CA        26.6170   19.8700   24.2840 C.3   649  THR649      0.1897
    222  C         25.2280   20.4740   24.1350 C.2   649  THR649      0.2313
    223  O         24.2490   19.7330   23.8840 O.2   649  THR649     -0.2863
    224  CB        26.7240   19.2860   25.6910 C.3   649  THR649      0.1794
    225  OG1       26.9240   20.3580   26.5990 O.3   649  THR649     -0.2208
    226  CG2       27.8920   18.3980   25.7880 C.3   649  THR649      0.0378
@<TRIPOS>BOND
     1   178   177    2
     2   190   189    2
     3   199   198    2
     4   196   197    1
     5   189   188    1
     6   213   212    2
     7   200   197    1
     8   200   201    1
     9   208   207    2
    10   177   176    1
    11   177   187   am
    12   198   197    1
    13   198   205   am
    14   176   179    1
    15   176   175    1
    16   188   187    1
    17   188   191    1
    18   212   211    1
    19   212   216   am
    20   201   202    1
    21   207   206    1
    22   207   210   am
    23   211   210    1
    24   211   214    1
    25   179   180    1
    26   206   205    1
    27   206   209    1
    28   181   180   ar
    29   181   183   ar
    30   215   214    1
    31   162   163    2
    32   162   161    1
    33   191   192    1
    34   180   182   ar
    35   216   217    1
    36   203   202   ar
    37   202   204   ar
    38   170   169    2
    39   183   185   ar
    40   217   218    1
    41   219   218    2
    42   167   168    1
    43   218   220   am
    44   192   193    1
    45   160   161    1
    46   161   164    1
    47   169   168    1
    48   182   184   ar
    49   223   222    2
    50   185   184   ar
    51   185   186    1
    52   220   221    1
    53   222   221    1
    54   168   171    1
    55   221   224    1
    56   166   164    1
    57   171   172    1
    58   193   194    1
    59   164   165    1
    60   195   194    1
    61   141   140    1
    62   141   142    2
    63   172   174   am
    64   172   173    2
    65   224   226    1
    66   224   225    1
    67   144   143    1
    68   140   139    1
    69   140   143    1
    70   139   131   am
    71   132   131    2
    72   143   145    1
    73   131   130    1
    74    76    75    2
    75   130   129    1
    76   130   133    1
    77    75    77   am
    78    75    74    1
    79    40    39    1
    80   133   134    1
    81    74    71    1
    82   135   134   ar
    83   135   137   ar
    84   134   136   ar
    85   146   147    1
    86    41    39    1
    87   150   147    1
    88    23    22    1
    89    23    24    1
    90    39    38    1
    91   137   138   ar
    92    73    72    2
    93   147   148    1
    94    69    67   ar
    95    22    20   am
    96    71    72    1
    97    71    70    1
    98    24    25    2
    99    24    26   am
   100   136   138   ar
   101    38    35    1
   102    72    78   am
   103   118   116   ar
   104    87    85   ar
   105    87    88   ar
   106   148   149    2
   107    26    27    1
   108    85    83   ar
   109    35    34    1
   110    35    36    1
   111    70    64   am
   112    67    66    1
   113    67    68   ar
   114    65    64    2
   115    20    19    1
   116    20    21    2
   117    64    63    1
   118    27    30    1
   119    27    28    1
   120    66    63    1
   121   116   117   ar
   122   116   115    1
   123    78    79    1
   124    19    18    1
   125    88    86   ar
   126    37    36    2
   127    30    31    1
   128    83    82    1
   129    83    84   ar
   130    82    79    1
   131    79    80    1
   132    63    62    1
   133    28    29    2
   134    32    31    1
   135   115   112    1
   136   112   111    1
   137   112   113    1
   138    31    33    1
   139   151   152    1
   140    18    12   am
   141    86    84   ar
   142    89    80   am
   143    89    90    1
   144    13    12    2
   145    80    81    2
   146    62    56   am
   147    12    11    1
   148   113   114    2
   149    93    90    1
   150    93    94    1
   151   154   153    2
   152   152   153    1
   153   152   155    1
   154    90    91    1
   155    56    57    2
   156    56    55    1
   157    14    11    1
   158    14    15    1
   159    92    91    2
   160   128   127   ar
   161   128   126   ar
   162    11    10    1
   163   127   125   ar
   164    94    96   ar
   165    94    95   ar
   166    96    98   ar
   167   155   156    1
   168    55    58    1
   169    55    54    1
   170   156   157    1
   171     8     7   ar
   172   126   124   ar
   173    58    59    1
   174    15    16    2
   175    15    17   am
   176   125   124   ar
   177    95    97   ar
   178    98    99   ar
   179    61    59   am
   180     9     7   ar
   181   119   120    1
   182   158   157   ar
   183     7     6    1
   184   124   123    1
   185   157   159   ar
   186    59    60    2
   187    97    99   ar
   188     5     6    1
   189     5     2    1
   190     4     3    2
   191   120   123    1
   192   120   121    1
   193     3     2    1
   194   110   108    1
   195     2     1    1
   196   121   122    2
   197    45    44    2
   198   108   109    1
   199   108   107    2
   200    44    43    1
   201   107   106    1
   202    46    43    1
   203    46    47    1
   204    43    42    1
   205   106   105    1
   206   105   104    1
   207    49    47   ar
   208    49    51   ar
   209    47    48   ar
   210    51    52   ar
   211   104   101    1
   212    48    50   ar
   213    52    50   ar
   214    52    53    1
   215   103   102    2
   216   101   102    1
   217   101   100    1
