@<TRIPOS>MOLECULE
tmp/5mcoA00.pdb
 155 154 0 0 0
SMALL
GASTEIGER

@<TRIPOS>ATOM
      1  N         15.7450  -35.3920  -26.9190 N.3   253  LYS253     -0.1231
      2  CA        15.8860  -36.8210  -26.5990 C.3   253  LYS253      0.1693
      3  C         17.3380  -37.4310  -26.6480 C.2   253  LYS253      0.2592
      4  O         17.5200  -38.5710  -26.2700 O.2   253  LYS253     -0.2718
      5  CB        14.9080  -37.6460  -27.4560 C.3   253  LYS253      0.0285
      6  CG        13.5070  -37.8340  -26.8500 C.3   253  LYS253      0.0035
      7  CD        12.9890  -36.6490  -26.0270 C.3   253  LYS253      0.0206
      8  CE        11.8370  -37.0480  -25.1160 C.3   253  LYS253      0.1093
      9  NZ        11.2370  -35.8740  -24.4300 N.3   253  LYS253     -0.1314
     10  N         18.3570  -36.7100  -27.1230 N.am  254  PHE254     -0.1963
     11  CA        19.7360  -37.2670  -27.1740 C.3   254  PHE254      0.1756
     12  C         20.2730  -37.4190  -25.7420 C.2   254  PHE254      0.2461
     13  O         19.9520  -36.5960  -24.8880 O.2   254  PHE254     -0.2730
     14  CB        20.6910  -36.3620  -27.9870 C.3   254  PHE254      0.0574
     15  CG        20.5440  -36.4600  -29.4980 C.ar  254  PHE254     -0.0200
     16  CD1       19.5040  -37.1710  -30.1090 C.ar  254  PHE254     -0.0042
     17  CD2       21.4500  -35.8180  -30.3250 C.ar  254  PHE254     -0.0042
     18  CE1       19.4070  -37.2360  -31.5120 C.ar  254  PHE254     -0.0003
     19  CE2       21.3570  -35.8840  -31.7140 C.ar  254  PHE254     -0.0003
     20  CZ        20.3440  -36.5980  -32.3160 C.ar  254  PHE254     -0.0000
     21  N         21.0900  -38.4570  -25.4820 N.am  255  PRO255     -0.2727
     22  CA        21.5740  -38.6590  -24.1230 C.3   255  PRO255      0.1402
     23  C         22.4700  -37.5100  -23.7040 C.2   255  PRO255      0.2269
     24  O         23.1870  -36.9460  -24.5180 O.2   255  PRO255     -0.2865
     25  CB        22.4220  -39.9350  -24.2110 C.3   255  PRO255      0.0296
     26  CG        22.7260  -40.0970  -25.6640 C.3   255  PRO255      0.0237
     27  CD        21.6220  -39.4560  -26.4350 C.3   255  PRO255      0.0939
     28  N         26.1460  -37.2670  -24.8520 N.3   258  PHE258     -0.1241
     29  CA        26.5990  -36.8600  -26.1580 C.3   258  PHE258      0.1605
     30  C         27.0630  -35.4220  -26.0230 C.2   258  PHE258      0.2264
     31  O         28.0760  -35.0050  -26.5810 O.2   258  PHE258     -0.2867
     32  CB        25.4480  -36.9650  -27.1210 C.3   258  PHE258      0.0534
     33  CG        25.6420  -36.1910  -28.3910 C.ar  258  PHE258     -0.0203
     34  CD1       26.5760  -36.6180  -29.3830 C.ar  258  PHE258     -0.0042
     35  CD2       24.8770  -35.0350  -28.6480 C.ar  258  PHE258     -0.0042
     36  CE1       26.7280  -35.8950  -30.5880 C.ar  258  PHE258     -0.0003
     37  CE2       25.0230  -34.3160  -29.8520 C.ar  258  PHE258     -0.0003
     38  CZ        25.9610  -34.7540  -30.8090 C.ar  258  PHE258     -0.0000
     39  N         30.3980  -34.8730  -24.5880 N.3   261  GLY261     -0.1210
     40  CA        31.4850  -35.4420  -25.3960 C.3   261  GLY261      0.1956
     41  C         31.9520  -36.8040  -24.8960 C.2   261  GLY261      0.2612
     42  O         33.0780  -37.2260  -25.1490 O.2   261  GLY261     -0.2717
     43  N         31.0670  -37.4840  -24.1830 N.am  262  GLU262     -0.1965
     44  CA        31.3530  -38.8050  -23.6750 C.3   262  GLU262      0.1733
     45  C         30.7970  -39.8640  -24.5920 C.2   262  GLU262      0.2616
     46  O         31.2270  -41.0020  -24.4830 O.2   262  GLU262     -0.2715
     47  CB        30.8140  -38.9670  -22.2610 C.3   262  GLU262      0.0429
     48  CG        31.7850  -38.4380  -21.2520 C.3   262  GLU262      0.1163
     49  CD        31.1450  -38.2190  -19.9080 C.2   262  GLU262      0.3649
     50  OE1       31.9050  -37.9490  -18.9510 O.co2 262  GLU262     -0.2457
     51  OE2       29.8940  -38.3050  -19.7990 O.co2 262  GLU262     -0.2457
     52  N         29.8650  -39.4900  -25.4890 N.am  263  GLN263     -0.1963
     53  CA        29.4260  -40.3880  -26.5910 C.3   263  GLN263      0.1733
     54  C         29.1940  -39.8310  -27.9770 C.2   263  GLN263      0.2616
     55  O         28.8090  -38.6940  -28.1050 O.2   263  GLN263     -0.2715
     56  CB        28.2140  -41.2430  -26.2510 C.3   263  GLN263      0.0408
     57  CG        27.3090  -40.7760  -25.1780 C.3   263  GLN263      0.0908
     58  CD        26.6680  -41.9690  -24.5490 C.2   263  GLN263      0.2608
     59  OE1       25.8260  -42.6200  -25.1580 O.2   263  GLN263     -0.2717
     60  NE2       27.0980  -42.2980  -23.3500 N.am  263  GLN263     -0.0878
     61  N         29.4170  -40.6780  -28.9900 N.am  264  LEU264     -0.1963
     62  CA        29.2350  -40.3990  -30.4440 C.3   264  LEU264      0.1728
     63  C         27.7830  -40.5810  -30.9460 C.2   264  LEU264      0.2616
     64  O         27.0510  -41.4270  -30.4670 O.2   264  LEU264     -0.2715
     65  CB        30.1190  -41.3550  -31.2450 C.3   264  LEU264      0.0311
     66  CG        31.5720  -41.3380  -30.7450 C.3   264  LEU264      0.0022
     67  CD1       32.4400  -42.3450  -31.4480 C.3   264  LEU264      0.0001
     68  CD2       32.1570  -39.9620  -30.9270 C.3   264  LEU264      0.0001
     69  N         27.3410  -39.7810  -31.8980 N.am  265  VAL265     -0.1963
     70  CA        26.0640  -40.0290  -32.4840 C.3   265  VAL265      0.1727
     71  C         26.3540  -40.6050  -33.8620 C.2   265  VAL265      0.2616
     72  O         27.2290  -40.0730  -34.5740 O.2   265  VAL265     -0.2715
     73  CB        25.2680  -38.7430  -32.5750 C.3   265  VAL265      0.0290
     74  CG1       26.0540  -37.6800  -33.3500 C.3   265  VAL265      0.0023
     75  CG2       23.8780  -39.0100  -33.1480 C.3   265  VAL265      0.0023
     76  N         25.6470  -41.6900  -34.2350 N.am  266  CYS266     -0.1954
     77  CA        25.8830  -42.4370  -35.4920 C.3   266  CYS266      0.1843
     78  C         24.7000  -42.4810  -36.4470 C.2   266  CYS266      0.2625
     79  O         23.6010  -42.8640  -36.0540 O.2   266  CYS266     -0.2714
     80  CB        26.2490  -43.8480  -35.1500 C.3   266  CYS266      0.0997
     81  SG        27.7150  -43.9000  -34.1470 S.3   266  CYS266     -0.0797
     82  N         24.9320  -42.0870  -37.6960 N.am  267  TRP267     -0.1960
     83  CA        23.9140  -42.1080  -38.7200 C.3   267  TRP267      0.1771
     84  C         24.3220  -42.9620  -39.9090 C.2   267  TRP267      0.2616
     85  O         25.5260  -43.2180  -40.1290 O.2   267  TRP267     -0.2715
     86  CB        23.6760  -40.7320  -39.2260 C.3   267  TRP267      0.0590
     87  CG        22.7620  -39.8910  -38.4000 C.ar  267  TRP267      0.0006
     88  CD1       21.4000  -40.0030  -38.3020 C.ar  267  TRP267      0.0946
     89  CD2       23.1310  -38.7680  -37.5840 C.ar  267  TRP267      0.0152
     90  NE1       20.9130  -39.0470  -37.4430 N.ar  267  TRP267     -0.2442
     91  CE2       21.9500  -38.2520  -37.0250 C.ar  267  TRP267      0.0810
     92  CE3       24.3460  -38.1530  -37.2770 C.ar  267  TRP267      0.0012
     93  CZ2       21.9480  -37.1200  -36.2110 C.ar  267  TRP267      0.0191
     94  CZ3       24.3440  -37.0520  -36.4810 C.ar  267  TRP267      0.0001
     95  CH2       23.1600  -36.5510  -35.9320 C.ar  267  TRP267      0.0015
     96  N         23.3290  -43.4190  -40.6880 N.am  268  GLN268     -0.2030
     97  CA        23.6590  -44.1080  -41.9010 C.3   268  GLN268      0.1287
     98  C         24.5330  -43.1900  -42.7470 C.3   268  GLN268      0.2036
     99  O         24.1910  -41.9680  -42.9760 O.3   268  GLN268     -0.2185
    100  CB        22.4220  -44.4850  -42.6600 C.3   268  GLN268      0.0340
    101  CG        22.7350  -45.5290  -43.7200 C.3   268  GLN268      0.0904
    102  CD        21.5500  -45.9200  -44.5970 C.2   268  GLN268      0.2608
    103  OE1       20.4180  -45.5230  -44.3730 O.2   268  GLN268     -0.2717
    104  NE2       21.8280  -46.7110  -45.5970 N.am  268  GLN268     -0.0878
    105  N         35.5770  -46.6210  -35.2380 N.3   309  VAL309     -0.1231
    106  CA        34.8830  -47.0170  -33.9850 C.3   309  VAL309      0.1692
    107  C         33.5600  -47.7690  -34.2600 C.2   309  VAL309      0.2592
    108  O         32.8480  -48.1830  -33.3200 O.2   309  VAL309     -0.2718
    109  CB        34.5030  -45.8120  -33.0920 C.3   309  VAL309      0.0266
    110  CG1       35.7250  -45.2180  -32.3710 C.3   309  VAL309      0.0020
    111  CG2       33.6810  -44.8150  -33.9180 C.3   309  VAL309      0.0020
    112  N         33.2390  -47.9090  -35.5510 N.am  310  ALA310     -0.1966
    113  CA        31.9560  -48.4350  -36.0180 C.3   310  ALA310      0.1728
    114  C         32.0250  -48.7330  -37.5390 C.2   310  ALA310      0.2616
    115  O         32.8740  -48.1850  -38.2180 O.2   310  ALA310     -0.2715
    116  CB        30.8580  -47.4300  -35.6930 C.3   310  ALA310      0.0334
    117  N         31.1630  -49.5980  -38.0650 N.am  311  THR311     -0.1951
    118  CA        31.1060  -49.9000  -39.5220 C.3   311  THR311      0.1897
    119  C         31.2090  -48.7050  -40.5080 C.2   311  THR311      0.2313
    120  O         30.6130  -47.6580  -40.2650 O.2   311  THR311     -0.2863
    121  CB        29.8000  -50.6670  -39.8700 C.3   311  THR311      0.1794
    122  OG1       29.5440  -50.5720  -41.2790 O.3   311  THR311     -0.2208
    123  CG2       28.5870  -50.0910  -39.1180 C.3   311  THR311      0.0378
    124  N         29.6560  -48.5020  -43.0490 N.3   313  GLN313     -0.1231
    125  CA        28.2580  -48.2550  -43.4570 C.3   313  GLN313      0.1698
    126  C         27.6850  -46.9360  -42.7560 C.2   313  GLN313      0.2592
    127  O         26.6400  -46.3930  -43.1760 O.2   313  GLN313     -0.2718
    128  CB        27.3790  -49.5340  -43.2160 C.3   313  GLN313      0.0381
    129  CG        27.6240  -50.7350  -44.1230 C.3   313  GLN313      0.0905
    130  CD        27.6130  -50.3940  -45.6040 C.2   313  GLN313      0.2608
    131  OE1       28.3060  -51.0220  -46.3650 O.2   313  GLN313     -0.2717
    132  NE2       26.8400  -49.3970  -46.0100 N.am  313  GLN313     -0.0878
    133  N         28.3890  -46.4430  -41.7140 N.am  314  ASP314     -0.1974
    134  CA        27.8540  -45.4540  -40.7530 C.3   314  ASP314      0.1709
    135  C         28.7650  -44.2330  -40.5200 C.2   314  ASP314      0.2293
    136  O         29.9490  -44.3890  -40.3080 O.2   314  ASP314     -0.2864
    137  CB        27.6680  -46.1510  -39.4000 C.3   314  ASP314      0.1436
    138  CG        26.4530  -47.0710  -39.3550 C.2   314  ASP314      0.3671
    139  OD1       25.6790  -47.1670  -40.3380 O.co2 314  ASP314     -0.2456
    140  OD2       26.2450  -47.6920  -38.2950 O.co2 314  ASP314     -0.2456
    141  N         29.7520  -41.4810  -37.7550 N.3   316  CYS316     -0.1235
    142  CA        29.5830  -41.2260  -36.3250 C.3   316  CYS316      0.1677
    143  C         30.3000  -39.9490  -35.9520 C.2   316  CYS316      0.2270
    144  O         31.3260  -39.6710  -36.5350 O.2   316  CYS316     -0.2867
    145  CB        30.1990  -42.3500  -35.5100 C.3   316  CYS316      0.0956
    146  SG        29.2690  -43.8720  -35.6660 S.3   316  CYS316     -0.0801
    147  N         31.3330  -36.6440  -32.9010 N.3   318  LYS318     -0.1245
    148  CA        31.4510  -36.1380  -31.5350 C.3   318  LYS318      0.1561
    149  C         31.0450  -34.6670  -31.4650 C.2   318  LYS318      0.2260
    150  O         31.3770  -33.8360  -32.3350 O.2   318  LYS318     -0.2867
    151  CB        32.8830  -36.2990  -31.0630 C.3   318  LYS318      0.0271
    152  CG        33.1540  -35.8490  -29.6500 C.3   318  LYS318      0.0035
    153  CD        34.6590  -35.8180  -29.3650 C.3   318  LYS318      0.0206
    154  CE        34.8620  -35.7460  -27.8680 C.3   318  LYS318      0.1093
    155  NZ        36.0940  -35.0990  -27.3470 N.3   318  LYS318     -0.1314
@<TRIPOS>BOND
     1   131   130    2
     2   132   130   am
     3   130   129    1
     4   104   102   am
     5   102   103    2
     6   102   101    1
     7   129   128    1
     8   101   100    1
     9   125   128    1
    10   125   124    1
    11   125   126    1
    12   127   126    2
    13    99    98    1
    14   126   133   am
    15    98    97    1
    16   100    97    1
    17    97    96    1
    18   133   134    1
    19   122   121    1
    20   134   135    1
    21   134   137    1
    22    96    84   am
    23   135   136    2
    24   119   120    2
    25   119   118    1
    26   139   138   ar
    27    85    84    2
    28    84    83    1
    29   121   118    1
    30   121   123    1
    31   118   117    1
    32   137   138    1
    33   138   140   ar
    34    86    83    1
    35    86    87    1
    36    83    82    1
    37    87    88   ar
    38    87    89   ar
    39    88    90   ar
    40   115   114    2
    41   117   114   am
    42   141   142    1
    43    82    78   am
    44    89    92   ar
    45    89    91   ar
    46   114   113    1
    47    90    91   ar
    48    92    94   ar
    49    91    93   ar
    50   144   143    2
    51    94    95   ar
    52    78    79    2
    53    78    77    1
    54   142   143    1
    55   142   145    1
    56    93    95   ar
    57   113   116    1
    58   113   112    1
    59   146   145    1
    60   146    81    1
    61   112   107   am
    62    77    80    1
    63    77    76    1
    64   105   106    1
    65    80    81    1
    66    72    71    2
    67   107   106    1
    68   107   108    2
    69    76    71   am
    70   106   109    1
    71   111   109    1
    72    71    70    1
    73    74    73    1
    74    75    73    1
    75   109   110    1
    76   147   148    1
    77    73    70    1
    78    70    69    1
    79   150   149    2
    80    20    19   ar
    81    20    18   ar
    82    69    63   am
    83    19    17   ar
    84   148   149    1
    85   148   151    1
    86    18    16   ar
    87    67    66    1
    88    65    66    1
    89    65    62    1
    90   151   152    1
    91    63    64    2
    92    63    62    1
    93    68    66    1
    94    38    36   ar
    95    38    37   ar
    96    36    34   ar
    97    62    61    1
    98    17    15   ar
    99    16    15   ar
   100    37    35   ar
   101   152   153    1
   102    15    14    1
   103    34    33   ar
   104   153   154    1
   105    61    54   am
   106    35    33   ar
   107    33    32    1
   108    55    54    2
   109    14    11    1
   110    54    53    1
   111   154   155    1
   112     5     6    1
   113     5     2    1
   114    11    10    1
   115    11    12    1
   116    10     3   am
   117    32    29    1
   118     1     2    1
   119     6     7    1
   120     3     2    1
   121     3     4    2
   122    53    56    1
   123    53    52    1
   124    31    30    2
   125    27    26    1
   126    27    21    1
   127    56    57    1
   128    29    30    1
   129    29    28    1
   130     7     8    1
   131    12    21   am
   132    12    13    2
   133    26    25    1
   134    52    45   am
   135    21    22    1
   136    40    41    1
   137    40    39    1
   138    57    58    1
   139    59    58    2
   140    42    41    2
   141     8     9    1
   142    41    43   am
   143    45    46    2
   144    45    44    1
   145    58    60   am
   146    24    23    2
   147    25    22    1
   148    43    44    1
   149    22    23    1
   150    44    47    1
   151    47    48    1
   152    48    49    1
   153    49    51   ar
   154    49    50   ar
