@<TRIPOS>MOLECULE
tmp/5mcpF00.pdb
 102 95 0 0 0
SMALL
GASTEIGER

@<TRIPOS>ATOM
      1  N        -38.6800    2.3760   10.7330 N.3   126  ALA126     -0.1245
      2  CA       -38.0990    2.0690   12.0310 C.3   126  ALA126      0.1562
      3  C        -39.1100    2.0190   13.1680 C.2   126  ALA126      0.2260
      4  O        -38.7680    1.5340   14.2530 O.2   126  ALA126     -0.2867
      5  CB       -37.0140    3.0990   12.3720 C.3   126  ALA126      0.0290
      6  N        -40.2820    1.0120   23.1840 N.3   131  ILE131     -0.1245
      7  CA       -40.4560    1.4350   21.8020 C.3   131  ILE131      0.1561
      8  C        -39.0860    1.5960   21.1640 C.2   131  ILE131      0.2260
      9  O        -38.1190    1.9420   21.8430 O.2   131  ILE131     -0.2867
     10  CB       -41.2660    2.7380   21.7080 C.3   131  ILE131      0.0252
     11  CG1      -41.8310    2.9370   20.2990 C.3   131  ILE131      0.0019
     12  CG2      -40.4990    3.9210   22.3020 C.3   131  ILE131      0.0019
     13  CD1      -42.9360    3.9350   20.2390 C.3   131  ILE131      0.0001
     14  N        -37.3220    3.2500   17.5070 N.3   133  THR133     -0.1203
     15  CA       -37.5140    4.0390   16.3010 C.3   133  THR133      0.1994
     16  C        -36.1520    4.3290   15.6800 C.2   133  THR133      0.2619
     17  O        -35.1040    3.9650   16.2240 O.2   133  THR133     -0.2717
     18  CB       -38.2580    5.3450   16.6070 C.3   133  THR133      0.1784
     19  OG1      -37.4070    6.2170   17.3600 O.3   133  THR133     -0.2211
     20  CG2      -39.5280    5.0730   17.4040 C.3   133  THR133      0.0376
     21  N        -36.1720    4.9970   14.5250 N.am  134  SER134     -0.1937
     22  CA       -34.9250    5.3440   13.8510 C.3   134  SER134      0.2055
     23  C        -34.0840    6.2810   14.7080 C.2   134  SER134      0.2643
     24  O        -32.8620    6.1160   14.8110 O.2   134  SER134     -0.2714
     25  CB       -35.2180    5.9750   12.4910 C.3   134  SER134      0.2130
     26  OG       -36.1000    7.0770   12.6160 O.3   134  SER134     -0.2179
     27  N        -34.7230    7.2820   15.3210 N.am  135  ARG135     -0.1963
     28  CA       -33.9970    8.2590   16.1260 C.3   135  ARG135      0.1729
     29  C        -33.1630    7.5850   17.2100 C.2   135  ARG135      0.2616
     30  O        -32.0580    8.0390   17.5280 O.2   135  ARG135     -0.2715
     31  CB       -34.9850    9.2490   16.7480 C.3   135  ARG135      0.0348
     32  CG       -34.3270   10.3820   17.5210 C.3   135  ARG135      0.0492
     33  CD       -35.3510   11.3190   18.1540 C.3   135  ARG135      0.2205
     34  NE       -36.3370   11.8200   17.1990 N.pl3 135  ARG135     -0.0865
     35  CZ       -37.3750   12.5830   17.5300 C.cat 135  ARG135      0.5346
     36  NH1      -37.5680   12.9380   18.7940 N.pl3 135  ARG135      0.1354
     37  NH2      -38.2220   12.9960   16.5970 N.pl3 135  ARG135      0.1354
     38  N        -33.6720    6.4950   17.7870 N.am  136  ASP136     -0.1971
     39  CA       -32.9490    5.8160   18.8580 C.3   136  ASP136      0.1709
     40  C        -31.7320    5.0630   18.3380 C.2   136  ASP136      0.2293
     41  O        -30.7600    4.8750   19.0780 O.2   136  ASP136     -0.2864
     42  CB       -33.8730    4.8440   19.5910 C.3   136  ASP136      0.1436
     43  CG       -34.8990    5.5490   20.4550 C.2   136  ASP136      0.3671
     44  OD1      -34.6140    6.6660   20.9340 O.co2 136  ASP136     -0.2456
     45  OD2      -35.9950    4.9810   20.6550 O.co2 136  ASP136     -0.2456
     46  N        -34.2490    2.0460   24.5900 N.3   148  MET148     -0.1245
     47  CA       -35.5570    2.0320   23.9440 C.3   148  MET148      0.1570
     48  C        -36.6550    2.3220   24.9620 C.2   148  MET148      0.2261
     49  O        -36.4010    2.9130   26.0130 O.2   148  MET148     -0.2867
     50  CB       -35.8110    0.6870   23.2600 C.3   148  MET148      0.0387
     51  CG       -34.8380    0.2920   22.1760 C.3   148  MET148      0.0595
     52  SD       -34.8110    1.6310   20.8820 S.3   148  MET148     -0.1393
     53  CE       -33.1480    1.3570   20.2020 C.3   148  MET148      0.0692
     54  N        -40.8800    3.5140   29.1190 N.3   150  ASP150     -0.1225
     55  CA       -42.1330    4.2120   29.3860 C.3   150  ASP150      0.1805
     56  C        -42.7280    4.6770   28.0630 C.2   150  ASP150      0.2598
     57  O        -42.1570    5.5370   27.3850 O.2   150  ASP150     -0.2718
     58  CB       -41.8950    5.3880   30.3280 C.3   150  ASP150      0.1424
     59  CG       -43.1490    5.9300   30.9740 C.2   150  ASP150      0.3668
     60  OD1      -44.2400    5.4080   30.8060 O.co2 150  ASP150     -0.2456
     61  OD2      -43.0380    6.8440   31.7940 O.co2 150  ASP150     -0.2456
     62  N        -43.8770    4.1140   27.6970 N.am  151  VAL151     -0.1966
     63  CA       -44.5280    4.3930   26.4230 C.3   151  VAL151      0.1727
     64  C        -45.9280    4.9220   26.6970 C.2   151  VAL151      0.2616
     65  O        -46.6860    4.3210   27.4660 O.2   151  VAL151     -0.2715
     66  CB       -44.5860    3.1380   25.5300 C.3   151  VAL151      0.0290
     67  CG1      -45.3700    3.4200   24.2510 C.3   151  VAL151      0.0023
     68  CG2      -43.1810    2.6590   25.1990 C.3   151  VAL151      0.0023
     69  N        -46.2630    6.0430   26.0670 N.am  152  ILE152     -0.1977
     70  CA       -47.6180    6.5730   26.0890 C.3   152  ILE152      0.1596
     71  C        -48.4970    5.7510   25.1520 C.2   152  ILE152      0.2287
     72  O        -48.1160    5.4710   24.0140 O.2   152  ILE152     -0.2864
     73  CB       -47.6420    8.0580   25.6950 C.3   152  ILE152      0.0276
     74  CG1      -47.0000    8.8780   26.8330 C.3   152  ILE152      0.0022
     75  CG2      -49.0430    8.5210   25.3780 C.3   152  ILE152      0.0022
     76  CD1      -46.7150   10.3090   26.4690 C.3   152  ILE152      0.0001
     77  N        -51.4510   12.7000   19.5000 N.3   160  LEU160     -0.1245
     78  CA       -50.0970   12.6870   18.9550 C.3   160  LEU160      0.1561
     79  C        -49.5140   14.0920   18.9010 C.2   160  LEU160      0.2260
     80  O        -48.3450   14.3020   19.2460 O.2   160  LEU160     -0.2867
     81  CB       -50.1000   12.0540   17.5640 C.3   160  LEU160      0.0270
     82  CG       -50.6090   10.6200   17.4820 C.3   160  LEU160      0.0019
     83  CD1      -50.7600   10.1650   16.0450 C.3   160  LEU160      0.0001
     84  CD2      -49.7070    9.6560   18.2300 C.3   160  LEU160      0.0001
     85  N        -46.2790   15.1900   20.7260 N.3   164  LYS164     -0.1231
     86  CA       -45.2790   15.2840   19.6630 C.3   164  LYS164      0.1693
     87  C        -44.5550   13.9570   19.4520 C.2   164  LYS164      0.2591
     88  O        -43.3770   13.9330   19.0850 O.2   164  LYS164     -0.2718
     89  CB       -44.2690   16.3980   19.9550 C.3   164  LYS164      0.0285
     90  CG       -44.9780   17.6690   20.3460 C.3   164  LYS164      0.0035
     91  CD       -45.2470   18.3230   18.9940 C.3   164  LYS164      0.0206
     92  CE       -45.3020   19.8110   19.3010 C.3   164  LYS164      0.1093
     93  NZ       -46.6310   20.2170   19.8410 N.3   164  LYS164     -0.1314
     94  N        -45.2520   12.8480   19.6790 N.am  165  LYS165     -0.1980
     95  CA       -44.6620   11.5240   19.5210 C.3   165  LYS165      0.1596
     96  C        -44.9660   10.9550   18.1390 C.2   165  LYS165      0.2287
     97  O        -45.9750   11.2980   17.5230 O.2   165  LYS165     -0.2864
     98  CB       -45.1810   10.5760   20.6050 C.3   165  LYS165      0.0298
     99  CG       -44.4630    9.2330   20.7400 C.3   165  LYS165      0.0038
    100  CD       -44.8870    8.4360   21.9650 C.3   165  LYS165      0.0206
    101  CE       -43.7950    7.5020   22.4720 C.3   165  LYS165      0.1093
    102  NZ       -43.9980    6.9970   23.8530 N.3   165  LYS165     -0.1314
@<TRIPOS>BOND
     1     1     2    1
     2     2     5    1
     3     2     3    1
     4    25    26    1
     5    25    22    1
     6     3     4    2
     7    22    21    1
     8    22    23    1
     9    21    16   am
    10    23    24    2
    11    23    27   am
    12    27    28    1
    13    16    17    2
    14    16    15    1
    15    83    82    1
    16    28    31    1
    17    28    29    1
    18    15    18    1
    19    15    14    1
    20    37    35    1
    21    18    19    1
    22    18    20    1
    23    31    32    1
    24    34    35    2
    25    34    33    1
    26    29    30    2
    27    29    38   am
    28    82    81    1
    29    82    84    1
    30    32    33    1
    31    97    96    2
    32    35    36    1
    33    81    78    1
    34    38    39    1
    35    96    95    1
    36    40    39    1
    37    40    41    2
    38    39    42    1
    39    79    78    1
    40    79    80    2
    41    78    77    1
    42    91    92    1
    43    91    90    1
    44    88    87    2
    45    92    93    1
    46    87    86    1
    47    87    94   am
    48    95    94    1
    49    95    98    1
    50    42    43    1
    51    86    89    1
    52    86    85    1
    53    89    90    1
    54    53    52    1
    55    13    11    1
    56    11    10    1
    57    43    45   ar
    58    43    44   ar
    59    98    99    1
    60    99   100    1
    61    52    51    1
    62     8     7    1
    63     8     9    2
    64    10     7    1
    65    10    12    1
    66     7     6    1
    67   100   101    1
    68    51    50    1
    69   101   102    1
    70    50    47    1
    71    47    46    1
    72    47    48    1
    73    72    71    2
    74    67    66    1
    75    48    49    2
    76    71    70    1
    77    68    66    1
    78    75    73    1
    79    66    63    1
    80    73    70    1
    81    73    74    1
    82    69    70    1
    83    69    64   am
    84    63    64    1
    85    63    62    1
    86    76    74    1
    87    64    65    2
    88    57    56    2
    89    62    56   am
    90    56    55    1
    91    54    55    1
    92    55    58    1
    93    58    59    1
    94    60    59   ar
    95    59    61   ar
