@<TRIPOS>MOLECULE
tmp/5mcpE00.pdb
 121 116 0 0 0
SMALL
GASTEIGER

@<TRIPOS>ATOM
      1  N        -35.8570  -52.5490  -36.7420 N.3   135  ALA135     -0.1245
      2  CA       -35.1140  -53.8120  -36.7180 C.3   135  ALA135      0.1562
      3  C        -35.9490  -54.9870  -37.2240 C.2   135  ALA135      0.2260
      4  O        -36.1230  -55.9850  -36.5250 O.2   135  ALA135     -0.2867
      5  CB       -34.6070  -54.1000  -35.3110 C.3   135  ALA135      0.0290
      6  N        -36.7810  -65.7190  -37.7860 N.3   141  ILE141     -0.1245
      7  CA       -36.8760  -64.3160  -37.4050 C.3   141  ILE141      0.1561
      8  C        -35.5280  -63.8210  -36.8940 C.2   141  ILE141      0.2260
      9  O        -34.7700  -64.5750  -36.2840 O.2   141  ILE141     -0.2867
     10  CB       -37.9730  -64.1000  -36.3490 C.3   141  ILE141      0.0252
     11  CG1      -37.6580  -64.8070  -35.0230 C.3   141  ILE141      0.0019
     12  CG2      -39.2970  -64.5560  -36.9220 C.3   141  ILE141      0.0019
     13  CD1      -38.6380  -64.4560  -33.9230 C.3   141  ILE141      0.0001
     14  N        -33.8080  -60.1580  -35.0200 N.3   143  THR143     -0.1203
     15  CA       -34.1170  -58.8940  -34.3690 C.3   143  THR143      0.1994
     16  C        -32.8160  -58.1980  -33.9820 C.2   143  THR143      0.2619
     17  O        -31.7160  -58.7090  -34.2130 O.2   143  THR143     -0.2717
     18  CB       -35.0060  -59.1120  -33.1390 C.3   143  THR143      0.1784
     19  OG1      -34.2420  -59.7350  -32.1030 O.3   143  THR143     -0.2211
     20  CG2      -36.1850  -60.0120  -33.4890 C.3   143  THR143      0.0376
     21  N        -32.9530  -57.0130  -33.3820 N.am  144  SER144     -0.1937
     22  CA       -31.7830  -56.2230  -33.0090 C.3   144  SER144      0.2055
     23  C        -30.8840  -56.9760  -32.0350 C.2   144  SER144      0.2643
     24  O        -29.6550  -56.9390  -32.1620 O.2   144  SER144     -0.2714
     25  CB       -32.2230  -54.8910  -32.4030 C.3   144  SER144      0.2130
     26  OG       -33.1130  -55.0940  -31.3200 O.3   144  SER144     -0.2179
     27  N        -31.4760  -57.6470  -31.0420 N.am  145  ARG145     -0.1963
     28  CA       -30.6720  -58.3550  -30.0510 C.3   145  ARG145      0.1729
     29  C        -29.6970  -59.3160  -30.7170 C.2   145  ARG145      0.2616
     30  O        -28.5810  -59.5160  -30.2220 O.2   145  ARG145     -0.2715
     31  CB       -31.5770  -59.1120  -29.0770 C.3   145  ARG145      0.0348
     32  CG       -30.8310  -59.7570  -27.9150 C.3   145  ARG145      0.0492
     33  CD       -31.7610  -60.5440  -27.0030 C.3   145  ARG145      0.2205
     34  NE       -32.9210  -59.7690  -26.5710 N.pl3 145  ARG145     -0.0865
     35  CZ       -33.9160  -60.2610  -25.8390 C.cat 145  ARG145      0.5346
     36  NH1      -33.8950  -61.5300  -25.4490 N.pl3 145  ARG145      0.1354
     37  NH2      -34.9350  -59.4850  -25.4940 N.pl3 145  ARG145      0.1354
     38  N        -30.0980  -59.9200  -31.8380 N.am  146  ASP146     -0.1971
     39  CA       -29.2310  -60.8710  -32.5250 C.3   146  ASP146      0.1709
     40  C        -28.0620  -60.1730  -33.2090 C.2   146  ASP146      0.2293
     41  O        -26.9950  -60.7750  -33.3740 O.2   146  ASP146     -0.2864
     42  CB       -30.0390  -61.6680  -33.5490 C.3   146  ASP146      0.1436
     43  CG       -31.0050  -62.6450  -32.9020 C.2   146  ASP146      0.3671
     44  OD1      -30.7190  -63.1140  -31.7800 O.co2 146  ASP146     -0.2456
     45  OD2      -32.0520  -62.9430  -33.5170 O.co2 146  ASP146     -0.2456
     46  N        -33.2890  -66.5120  -35.5960 N.3   160  THR160     -0.1218
     47  CA       -33.9260  -67.5160  -34.7530 C.3   160  THR160      0.1862
     48  C        -34.7030  -68.4880  -35.6340 C.2   160  THR160      0.2287
     49  O        -35.6600  -68.0920  -36.3100 O.2   160  THR160     -0.2866
     50  CB       -34.8520  -66.8520  -33.7350 C.3   160  THR160      0.1770
     51  OG1      -34.0430  -65.9910  -32.9210 O.3   160  THR160     -0.2211
     52  CG2      -35.5380  -67.8290  -32.8380 C.3   160  THR160      0.0375
     53  N        -36.5620  -71.6320  -34.9930 N.3   162  ASP162     -0.1225
     54  CA       -37.9080  -72.0280  -34.5820 C.3   162  ASP162      0.1805
     55  C        -38.7120  -70.7780  -34.2520 C.2   162  ASP162      0.2598
     56  O        -38.6250  -70.2390  -33.1470 O.2   162  ASP162     -0.2718
     57  CB       -37.8420  -72.9780  -33.3920 C.3   162  ASP162      0.1424
     58  CG       -37.2330  -74.3210  -33.7510 C.2   162  ASP162      0.3668
     59  OD1      -36.7330  -74.4620  -34.8880 O.co2 162  ASP162     -0.2456
     60  OD2      -37.2580  -75.2370  -32.9020 O.co2 162  ASP162     -0.2456
     61  N        -39.5090  -70.3190  -35.2110 N.am  163  VAL163     -0.1966
     62  CA       -40.3050  -69.1080  -35.0500 C.3   163  VAL163      0.1727
     63  C        -41.6290  -69.4750  -34.3930 C.2   163  VAL163      0.2616
     64  O        -42.3900  -70.2940  -34.9210 O.2   163  VAL163     -0.2715
     65  CB       -40.5340  -68.4120  -36.3990 C.3   163  VAL163      0.0290
     66  CG1      -41.3740  -67.1480  -36.2490 C.3   163  VAL163      0.0023
     67  CG2      -39.1750  -68.0180  -36.9820 C.3   163  VAL163      0.0023
     68  N        -41.9040  -68.8710  -33.2360 N.am  164  ILE164     -0.1977
     69  CA       -43.1950  -69.0450  -32.5850 C.3   164  ILE164      0.1596
     70  C        -44.2590  -68.2880  -33.3660 C.2   164  ILE164      0.2287
     71  O        -44.0500  -67.1430  -33.7910 O.2   164  ILE164     -0.2864
     72  CB       -43.1310  -68.5670  -31.1250 C.3   164  ILE164      0.0276
     73  CG1      -42.2650  -69.5590  -30.3210 C.3   164  ILE164      0.0022
     74  CG2      -44.5120  -68.4080  -30.5370 C.3   164  ILE164      0.0022
     75  CD1      -41.8970  -69.0740  -28.9460 C.3   164  ILE164      0.0001
     76  N        -42.9030  -63.8350  -23.7850 N.3   182  LYS182     -0.1231
     77  CA       -41.9680  -62.7220  -23.6340 C.3   182  LYS182      0.1693
     78  C        -41.2220  -62.4450  -24.9360 C.2   182  LYS182      0.2592
     79  O        -40.0680  -62.0100  -24.9240 O.2   182  LYS182     -0.2718
     80  CB       -40.9760  -62.9840  -22.4980 C.3   182  LYS182      0.0285
     81  CG       -41.6500  -63.1870  -21.1500 C.3   182  LYS182      0.0035
     82  CD       -42.3870  -61.9800  -20.6660 C.3   182  LYS182      0.0206
     83  CE       -42.3710  -61.9100  -19.1440 C.3   182  LYS182      0.1093
     84  NZ       -43.6080  -62.4700  -18.5580 N.3   182  LYS182     -0.1314
     85  N        -41.8760  -62.6970  -26.0660 N.am  183  LYS183     -0.1966
     86  CA       -41.2880  -62.4900  -27.3790 C.3   183  LYS183      0.1728
     87  C        -41.6840  -61.1220  -27.9210 C.2   183  LYS183      0.2617
     88  O        -42.7390  -60.5790  -27.5830 O.2   183  LYS183     -0.2715
     89  CB       -41.7320  -63.5860  -28.3520 C.3   183  LYS183      0.0311
     90  CG       -41.1810  -64.9160  -27.9990 C.3   183  LYS183      0.0038
     91  CD       -39.7670  -64.9850  -28.3980 C.3   183  LYS183      0.0206
     92  CE       -39.1930  -66.3720  -28.3970 C.3   183  LYS183      0.1093
     93  NZ       -37.7630  -66.3710  -28.7620 N.3   183  LYS183     -0.1314
     94  N        -40.8230  -60.5710  -28.7730 N.am  184  GLY184     -0.1940
     95  CA       -41.0370  -59.2430  -29.3130 C.3   184  GLY184      0.2014
     96  C        -42.0470  -59.1950  -30.4410 C.2   184  GLY184      0.2639
     97  O        -42.9260  -58.3290  -30.4530 O.2   184  GLY184     -0.2714
     98  N        -41.9330  -60.1160  -31.3940 N.am  185  LYS185     -0.1963
     99  CA       -42.7820  -60.1310  -32.5750 C.3   185  LYS185      0.1728
    100  C        -43.6000  -61.4150  -32.6230 C.2   185  LYS185      0.2616
    101  O        -43.2790  -62.4090  -31.9650 O.2   185  LYS185     -0.2715
    102  CB       -41.9460  -59.9990  -33.8560 C.3   185  LYS185      0.0311
    103  CG       -41.1430  -58.7210  -33.9550 C.3   185  LYS185      0.0038
    104  CD       -42.0530  -57.5100  -33.9200 C.3   185  LYS185      0.0206
    105  CE       -41.3240  -56.2670  -34.4000 C.3   185  LYS185      0.1093
    106  NZ       -40.0340  -56.1230  -33.6710 N.3   185  LYS185     -0.1314
    107  N        -44.6690  -61.3790  -33.4200 N.am  186  LEU186     -0.1964
    108  CA       -45.5250  -62.5430  -33.6410 C.3   186  LEU186      0.1713
    109  C        -45.9240  -62.5790  -35.1070 C.2   186  LEU186      0.2458
    110  O        -46.8990  -61.9390  -35.5170 O.2   186  LEU186     -0.2730
    111  CB       -46.7610  -62.5060  -32.7470 C.3   186  LEU186      0.0310
    112  CG       -47.6890  -63.7240  -32.7870 C.3   186  LEU186      0.0022
    113  CD1      -46.9640  -64.9760  -32.3230 C.3   186  LEU186      0.0001
    114  CD2      -48.9190  -63.4750  -31.9320 C.3   186  LEU186      0.0001
    115  N        -45.1940  -63.3260  -35.9320 N.am  187  PRO187     -0.2727
    116  CA       -45.5300  -63.3700  -37.3580 C.3   187  PRO187      0.1402
    117  C        -46.7670  -64.2210  -37.6000 C.2   187  PRO187      0.2269
    118  O        -46.9520  -65.2730  -36.9840 O.2   187  PRO187     -0.2865
    119  CB       -44.2820  -63.9860  -37.9930 C.3   187  PRO187      0.0296
    120  CG       -43.7250  -64.8670  -36.9240 C.3   187  PRO187      0.0237
    121  CD       -44.0930  -64.2470  -35.5970 C.3   187  PRO187      0.0939
@<TRIPOS>BOND
     1   119   116    1
     2   119   120    1
     3     6     7    1
     4   117   116    1
     5   117   118    2
     6     7     8    1
     7     7    10    1
     8   116   115    1
     9     3     2    1
    10     3     4    2
    11    67    65    1
    12   120   121    1
    13    12    10    1
    14     8     9    2
    15     1     2    1
    16     2     5    1
    17    65    66    1
    18    65    62    1
    19    10    11    1
    20    49    48    2
    21   115   121    1
    22   115   109   am
    23    48    47    1
    24    46    47    1
    25   110   109    2
    26    61    62    1
    27    61    55   am
    28   109   108    1
    29    62    63    1
    30    11    13    1
    31    14    15    1
    32    53    54    1
    33    64    63    2
    34    59    58   ar
    35    47    50    1
    36    54    55    1
    37    54    57    1
    38   105   104    1
    39   105   106    1
    40    63    68   am
    41    15    16    1
    42    15    18    1
    43    55    56    2
    44    17    16    2
    45    16    21   am
    46   103   104    1
    47   103   102    1
    48   102    99    1
    49    71    70    2
    50    58    57    1
    51    58    60   ar
    52    50    51    1
    53    50    52    1
    54   108   107    1
    55   108   111    1
    56    42    43    1
    57    42    39    1
    58    45    43   ar
    59    20    18    1
    60   107   100   am
    61    21    22    1
    62    41    40    2
    63    70    69    1
    64    68    69    1
    65    40    39    1
    66    18    19    1
    67    22    25    1
    68    22    23    1
    69    43    44   ar
    70   112   111    1
    71   112   113    1
    72   112   114    1
    73   100    99    1
    74   100   101    2
    75    69    72    1
    76    99    98    1
    77    39    38    1
    78    25    26    1
    79    24    23    2
    80    23    27   am
    81    38    29   am
    82    98    96   am
    83    72    74    1
    84    72    73    1
    85    27    28    1
    86    29    30    2
    87    29    28    1
    88    97    96    2
    89    96    95    1
    90    73    75    1
    91    28    31    1
    92    95    94    1
    93    31    32    1
    94    94    87   am
    95    93    92    1
    96    91    92    1
    97    91    90    1
    98    89    90    1
    99    89    86    1
   100    87    88    2
   101    87    86    1
   102    32    33    1
   103    86    85    1
   104    33    34    1
   105    34    35    2
   106    85    78   am
   107    35    37    1
   108    35    36    1
   109    78    79    2
   110    78    77    1
   111    76    77    1
   112    77    80    1
   113    80    81    1
   114    81    82    1
   115    82    83    1
   116    83    84    1
