@<TRIPOS>MOLECULE
tmp/5mcpB02.pdb
 146 140 0 0 0
SMALL
GASTEIGER

@<TRIPOS>ATOM
      1  N        -17.7530   20.0880    7.5300 N.3   122  ILE122     -0.1245
      2  CA       -18.4720   20.5950    6.3650 C.3   122  ILE122      0.1561
      3  C        -17.9570   22.0020    6.0960 C.2   122  ILE122      0.2260
      4  O        -18.4720   22.9740    6.6560 O.2   122  ILE122     -0.2867
      5  CB       -19.9990   20.5990    6.5780 C.3   122  ILE122      0.0252
      6  CG1      -20.4990   19.1940    6.9340 C.3   122  ILE122      0.0019
      7  CG2      -20.7050   21.1350    5.3320 C.3   122  ILE122      0.0019
      8  CD1      -21.9680   19.1480    7.3290 C.3   122  ILE122      0.0001
      9  N        -18.0070   23.9730    3.4540 N.3   124  ALA124     -0.1231
     10  CA       -18.8940   24.8640    2.7030 C.3   124  ALA124      0.1679
     11  C        -20.3430   24.4780    2.9790 C.2   124  ALA124      0.2434
     12  O        -21.0050   23.8620    2.1310 O.2   124  ALA124     -0.2733
     13  CB       -18.5930   24.8180    1.2070 C.3   124  ALA124      0.0304
     14  N        -20.8750   24.8420    4.1410 N.am  125  PRO125     -0.2718
     15  CA       -22.2350   24.4280    4.4980 C.3   125  PRO125      0.1535
     16  C        -23.3130   25.2250    3.7770 C.2   125  PRO125      0.2598
     17  O        -23.1460   26.4020    3.4510 O.2   125  PRO125     -0.2715
     18  CB       -22.2890   24.6800    6.0090 C.3   125  PRO125      0.0310
     19  CG       -21.3330   25.7920    6.2290 C.3   125  PRO125      0.0237
     20  CD       -20.2320   25.6160    5.2160 C.3   125  PRO125      0.0939
     21  N        -24.4410   24.5570    3.5470 N.am  126  VAL126     -0.1978
     22  CA       -25.6330   25.2030    3.0090 C.3   126  VAL126      0.1596
     23  C        -26.3870   25.8590    4.1540 C.2   126  VAL126      0.2287
     24  O        -26.6450   25.2290    5.1870 O.2   126  VAL126     -0.2864
     25  CB       -26.5220   24.1850    2.2750 C.3   126  VAL126      0.0276
     26  CG1      -27.8120   24.8440    1.7900 C.3   126  VAL126      0.0022
     27  CG2      -25.7690   23.5590    1.1110 C.3   126  VAL126      0.0022
     28  N        -34.2850   20.6620    1.0980 N.3   141  LYS141     -0.1245
     29  CA       -34.0350   19.2980    1.5530 C.3   141  LYS141      0.1561
     30  C        -34.1160   18.3080    0.3980 C.2   141  LYS141      0.2260
     31  O        -33.3610   17.3290    0.3550 O.2   141  LYS141     -0.2867
     32  CB       -35.0230   18.9010    2.6490 C.3   141  LYS141      0.0271
     33  CG       -34.7250   17.5190    3.2220 C.3   141  LYS141      0.0035
     34  CD       -35.7170   17.0740    4.2810 C.3   141  LYS141      0.0206
     35  CE       -35.3150   15.7110    4.8290 C.3   141  LYS141      0.1093
     36  NZ       -36.2170   15.2240    5.9070 N.3   141  LYS141     -0.1314
     37  N        -30.6800   16.7920   -0.1470 N.3   145  GLY145     -0.1210
     38  CA       -30.8120   15.5280    0.5440 C.3   145  GLY145      0.1956
     39  C        -30.5240   15.5870    2.0270 C.2   145  GLY145      0.2612
     40  O        -30.5540   14.5410    2.6900 O.2   145  GLY145     -0.2717
     41  N        -30.2370   16.7710    2.5650 N.am  146  PHE146     -0.1962
     42  CA       -30.0510   16.9750    3.9930 C.3   146  PHE146      0.1771
     43  C        -30.7810   18.2530    4.3770 C.2   146  PHE146      0.2619
     44  O        -30.8940   19.1800    3.5710 O.2   146  PHE146     -0.2715
     45  CB       -28.5670   17.0590    4.3840 C.3   146  PHE146      0.0574
     46  CG       -27.7440   17.9240    3.4720 C.ar  146  PHE146     -0.0200
     47  CD1      -27.8170   19.3040    3.5490 C.ar  146  PHE146     -0.0042
     48  CD2      -26.8780   17.3530    2.5550 C.ar  146  PHE146     -0.0042
     49  CE1      -27.0550   20.0990    2.7120 C.ar  146  PHE146     -0.0003
     50  CE2      -26.1120   18.1430    1.7190 C.ar  146  PHE146     -0.0003
     51  CZ       -26.1990   19.5180    1.7990 C.ar  146  PHE146     -0.0000
     52  N        -31.2880   18.2930    5.6100 N.am  147  ALA147     -0.1963
     53  CA       -32.1030   19.4110    6.0660 C.3   147  ALA147      0.1728
     54  C        -31.4870   20.2190    7.1990 C.2   147  ALA147      0.2617
     55  O        -32.0610   21.2440    7.5780 O.2   147  ALA147     -0.2715
     56  CB       -33.4800   18.9110    6.5160 C.3   147  ALA147      0.0334
     57  N        -30.3570   19.7950    7.7550 N.am  148  GLY148     -0.1940
     58  CA       -29.7970   20.4890    8.8980 C.3   148  GLY148      0.2014
     59  C        -29.0860   21.7660    8.5000 C.2   148  GLY148      0.2638
     60  O        -27.8680   21.7690    8.2930 O.2   148  GLY148     -0.2714
     61  N        -29.8380   22.8640    8.3990 N.am  149  PHE149     -0.1973
     62  CA       -29.2990   24.1180    7.8970 C.3   149  PHE149      0.1639
     63  C        -29.1250   25.0990    9.0460 C.2   149  PHE149      0.2290
     64  O        -30.1120   25.4080    9.7300 O.2   149  PHE149     -0.2864
     65  CB       -30.2150   24.7230    6.8340 C.3   149  PHE149      0.0560
     66  CG       -30.5700   23.7770    5.7250 C.ar  149  PHE149     -0.0200
     67  CD1      -29.6010   23.2920    4.8640 C.ar  149  PHE149     -0.0042
     68  CD2      -31.8880   23.4050    5.5220 C.ar  149  PHE149     -0.0042
     69  CE1      -29.9390   22.4240    3.8390 C.ar  149  PHE149     -0.0003
     70  CE2      -32.2320   22.5450    4.4990 C.ar  149  PHE149     -0.0003
     71  CZ       -31.2580   22.0570    3.6540 C.ar  149  PHE149     -0.0000
     72  N        -33.5880   21.9850   11.4880 N.3   166  THR166     -0.1203
     73  CA       -33.2570   20.6320   11.0580 C.3   166  THR166      0.1994
     74  C        -34.5260   19.8890   10.6510 C.2   166  THR166      0.2618
     75  O        -35.6330   20.4350   10.6850 O.2   166  THR166     -0.2717
     76  CB       -32.5150   19.8720   12.1650 C.3   166  THR166      0.1784
     77  OG1      -33.4050   19.6350   13.2640 O.3   166  THR166     -0.2211
     78  CG2      -31.3150   20.6720   12.6550 C.3   166  THR166      0.0376
     79  N        -34.3520   18.6220   10.2590 N.am  167  SER167     -0.1951
     80  CA       -35.4890   17.8070    9.8390 C.3   167  SER167      0.1924
     81  C        -36.4880   17.6240   10.9720 C.2   167  SER167      0.2314
     82  O        -37.7020   17.7350   10.7650 O.2   167  SER167     -0.2863
     83  CB       -35.0110   16.4360    9.3570 C.3   167  SER167      0.2116
     84  OG       -34.3140   16.5120    8.1300 O.3   167  SER167     -0.2180
     85  N        -27.2070   16.6110   16.5360 N.3   207  GLY207     -0.1210
     86  CA       -26.7520   16.1180   15.2470 C.3   207  GLY207      0.1956
     87  C        -25.6180   16.9340   14.6530 C.2   207  GLY207      0.2611
     88  O        -24.6630   16.3740   14.1060 O.2   207  GLY207     -0.2717
     89  N        -25.7150   18.2590   14.7240 N.am  208  LYS208     -0.1979
     90  CA       -24.7760   19.1420   14.0490 C.3   208  LYS208      0.1596
     91  C        -24.0840   20.0560   15.0550 C.2   208  LYS208      0.2287
     92  O        -24.5990   20.3170   16.1450 O.2   208  LYS208     -0.2864
     93  CB       -25.4970   19.9830   12.9850 C.3   208  LYS208      0.0298
     94  CG       -26.6920   19.2780   12.3480 C.3   208  LYS208      0.0038
     95  CD       -26.3050   18.0260   11.5760 C.3   208  LYS208      0.0206
     96  CE       -27.5400   17.3470   10.9910 C.3   208  LYS208      0.1093
     97  NZ       -28.6610   17.2480   11.9760 N.3   208  LYS208     -0.1314
     98  N        -19.0500   23.4000    9.8280 N.3   221  MET221     -0.1245
     99  CA       -19.9580   22.6260   10.6650 C.3   221  MET221      0.1570
    100  C        -19.5850   21.1480   10.6270 C.2   221  MET221      0.2261
    101  O        -19.0120   20.6620    9.6480 O.2   221  MET221     -0.2867
    102  CB       -21.4170   22.8060   10.2190 C.3   221  MET221      0.0387
    103  CG       -22.4250   22.0520   11.0770 C.3   221  MET221      0.0595
    104  SD       -24.1530   22.4630   10.7370 S.3   221  MET221     -0.1393
    105  CE       -24.2990   22.0070    9.0140 C.3   221  MET221      0.0692
    106  N        -21.2130   17.2290   11.0360 N.3   223  SER223     -0.1202
    107  CA       -22.3450   16.3160   11.0530 C.3   223  SER223      0.2020
    108  C        -21.9130   15.0610   11.7970 C.2   223  SER223      0.2619
    109  O        -20.8490   14.5050   11.5090 O.2   223  SER223     -0.2717
    110  CB       -22.8000   15.9700    9.6350 C.3   223  SER223      0.2103
    111  OG       -23.7970   14.9620    9.6560 O.3   223  SER223     -0.2182
    112  N        -22.7170   14.6370   12.7710 N.am  224  ARG224     -0.1965
    113  CA       -22.3780   13.4390   13.5330 C.3   224  ARG224      0.1729
    114  C        -22.2600   12.2220   12.6200 C.2   224  ARG224      0.2617
    115  O        -21.4250   11.3400   12.8530 O.2   224  ARG224     -0.2715
    116  CB       -23.4200   13.2050   14.6270 C.3   224  ARG224      0.0348
    117  CG       -23.0000   12.1980   15.6910 C.3   224  ARG224      0.0492
    118  CD       -23.9710   12.2130   16.8620 C.3   224  ARG224      0.2205
    119  NE       -23.5490   11.3480   17.9610 N.pl3 224  ARG224     -0.0865
    120  CZ       -24.3270   11.0150   18.9870 C.cat 224  ARG224      0.5346
    121  NH1      -23.8640   10.2220   19.9460 N.pl3 224  ARG224      0.1354
    122  NH2      -25.5700   11.4750   19.0610 N.pl3 224  ARG224      0.1354
    123  N        -23.0860   12.1580   11.5700 N.am  225  THR225     -0.1937
    124  CA       -23.0240   11.0330   10.6400 C.3   225  THR225      0.2028
    125  C        -21.6510   10.9370    9.9850 C.2   225  THR225      0.2642
    126  O        -21.1270    9.8350    9.7810 O.2   225  THR225     -0.2714
    127  CB       -24.1050   11.1500    9.5610 C.3   225  THR225      0.1808
    128  OG1      -23.7190   12.1310    8.5900 O.3   225  THR225     -0.2208
    129  CG2      -25.4590   11.5350   10.1510 C.3   225  THR225      0.0379
    130  N        -21.0600   12.0810    9.6320 N.am  226  ASP226     -0.1971
    131  CA       -19.7520   12.0720    8.9860 C.3   226  ASP226      0.1709
    132  C        -18.7080   11.4060    9.8730 C.2   226  ASP226      0.2293
    133  O        -17.8120   10.7120    9.3780 O.2   226  ASP226     -0.2864
    134  CB       -19.3310   13.4970    8.6320 C.3   226  ASP226      0.1436
    135  CG       -20.1520   14.0840    7.4990 C.2   226  ASP226      0.3671
    136  OD1      -20.7320   13.3030    6.7150 O.co2 226  ASP226     -0.2456
    137  OD2      -20.2150   15.3270    7.3900 O.co2 226  ASP226     -0.2456
    138  N        -18.6140    7.4700    9.5000 N.3   229  LYS229     -0.1245
    139  CA       -17.7220    6.9250    8.4350 C.3   229  LYS229      0.1561
    140  C        -16.3190    7.0710    9.0780 C.2   229  LYS229      0.2260
    141  O        -16.0080    8.1900    9.4730 O.2   229  LYS229     -0.2867
    142  CB       -17.7270    7.6880    7.0870 C.3   229  LYS229      0.0271
    143  CG       -19.1210    7.8930    6.5750 C.3   229  LYS229      0.0035
    144  CD       -19.1250    8.3000    5.1400 C.3   229  LYS229      0.0206
    145  CE       -20.5200    8.7400    4.7600 C.3   229  LYS229      0.1093
    146  NZ       -20.9750    9.8540    5.6910 N.3   229  LYS229     -0.1314
@<TRIPOS>BOND
     1    37    38    1
     2    31    30    2
     3    30    29    1
     4    38    39    1
     5    28    29    1
     6    27    25    1
     7    13    10    1
     8    29    32    1
     9    50    51   ar
    10    50    48   ar
    11    26    25    1
    12    51    49   ar
    13    39    41   am
    14    39    40    2
    15    12    11    2
    16    25    22    1
    17    48    46   ar
    18    41    42    1
    19    32    33    1
    20    10    11    1
    21    10     9    1
    22    49    47   ar
    23    11    14   am
    24    22    21    1
    25    22    23    1
    26    33    34    1
    27    17    16    2
    28    46    47   ar
    29    46    45    1
    30    21    16   am
    31    44    43    2
    32    71    69   ar
    33    71    70   ar
    34    16    15    1
    35    69    67   ar
    36    42    43    1
    37    42    45    1
    38    14    15    1
    39    14    20    1
    40    23    24    2
    41    34    35    1
    42    43    52   am
    43    15    18    1
    44    70    68   ar
    45   145   144    1
    46   145   146    1
    47    35    36    1
    48    67    66   ar
    49   144   143    1
    50    20    19    1
    51     7     5    1
    52    68    66   ar
    53    52    53    1
    54    66    65    1
    55    18    19    1
    56    53    56    1
    57    53    54    1
    58     3     2    1
    59     3     4    2
    60     2     5    1
    61     2     1    1
    62   143   142    1
    63     5     6    1
    64   136   135   ar
    65    65    62    1
    66     6     8    1
    67   142   139    1
    68    54    55    2
    69    54    57   am
    70   137   135   ar
    71   135   134    1
    72    57    58    1
    73    62    61    1
    74    62    63    1
    75    84    83    1
    76    60    59    2
    77    61    59   am
    78   139   140    1
    79   139   138    1
    80    59    58    1
    81   128   127    1
    82   134   131    1
    83   131   130    1
    84   131   132    1
    85   105   104    1
    86    63    64    2
    87   140   141    2
    88    83    80    1
    89   133   132    2
    90   127   129    1
    91   127   124    1
    92   130   125   am
    93   110   111    1
    94   110   107    1
    95   101   100    2
    96   126   125    2
    97    98    99    1
    98    80    79    1
    99    80    81    1
   100   125   124    1
   101   102    99    1
   102   102   103    1
   103    79    74   am
   104   100    99    1
   105   124   123    1
   106    74    75    2
   107    74    73    1
   108   104   103    1
   109    82    81    2
   110    96    95    1
   111    96    97    1
   112   106   107    1
   113   107   108    1
   114    73    72    1
   115    73    76    1
   116   109   108    2
   117   123   114   am
   118    95    94    1
   119   108   112   am
   120    76    78    1
   121    76    77    1
   122    94    93    1
   123   114   115    2
   124   114   113    1
   125   112   113    1
   126    93    90    1
   127   113   116    1
   128    90    89    1
   129    90    91    1
   130    88    87    2
   131   116   117    1
   132    87    89   am
   133    87    86    1
   134    91    92    2
   135    86    85    1
   136   117   118    1
   137   118   119    1
   138   119   120    2
   139   120   122    1
   140   120   121    1
