@<TRIPOS>MOLECULE
tmp/5mcpF02.pdb
 78 75 0 0 0
SMALL
GASTEIGER

@<TRIPOS>ATOM
      1  N        -66.1740  -20.8010   -8.0710 N.3   184  GLY184     -0.1210
      2  CA       -66.7130  -21.6850   -9.0800 C.3   184  GLY184      0.1956
      3  C        -68.0250  -22.3020   -8.6340 C.2   184  GLY184      0.2613
      4  O        -68.6450  -21.8930   -7.6510 O.2   184  GLY184     -0.2717
      5  N        -68.4480  -23.3210   -9.3810 N.am  185  THR185     -0.1938
      6  CA       -69.7130  -24.0000   -9.1300 C.3   185  THR185      0.2028
      7  C        -69.5170  -25.4330   -8.6430 C.2   185  THR185      0.2642
      8  O        -70.4570  -26.2320   -8.6850 O.2   185  THR185     -0.2714
      9  CB       -70.5760  -23.9820  -10.3930 C.3   185  THR185      0.1808
     10  OG1      -69.8310  -24.5170  -11.4930 O.3   185  THR185     -0.2208
     11  CG2      -71.0030  -22.5630  -10.7320 C.3   185  THR185      0.0379
     12  N        -68.3170  -25.7720   -8.1710 N.am  186  ILE186     -0.1963
     13  CA       -68.0210  -27.1260   -7.7120 C.3   186  ILE186      0.1727
     14  C        -68.2860  -27.2310   -6.2160 C.2   186  ILE186      0.2616
     15  O        -68.4960  -26.2200   -5.5370 O.2   186  ILE186     -0.2715
     16  CB       -66.5680  -27.5160   -8.0390 C.3   186  ILE186      0.0290
     17  CG1      -65.5460  -26.6530   -7.2860 C.3   186  ILE186      0.0022
     18  CG2      -66.3680  -27.4360   -9.5370 C.3   186  ILE186      0.0023
     19  CD1      -64.1230  -27.1420   -7.4600 C.3   186  ILE186      0.0001
     20  N        -68.2780  -28.4610   -5.6940 N.am  187  ASP187     -0.1971
     21  CA       -68.5180  -28.6640   -4.2680 C.3   187  ASP187      0.1709
     22  C        -67.3580  -28.1390   -3.4330 C.2   187  ASP187      0.2293
     23  O        -67.5710  -27.5310   -2.3770 O.2   187  ASP187     -0.2864
     24  CB       -68.7540  -30.1470   -3.9830 C.3   187  ASP187      0.1436
     25  CG       -69.3900  -30.4280   -2.6420 C.2   187  ASP187      0.3671
     26  OD1      -69.7500  -29.5300   -1.8960 O.co2 187  ASP187     -0.2456
     27  OD2      -69.6680  -31.5950   -2.3570 O.co2 187  ASP187     -0.2456
     28  N        -67.8150  -24.7300   -2.9910 N.3   190  ARG190     -0.1245
     29  CA       -68.7840  -24.4730   -1.9320 C.3   190  ARG190      0.1563
     30  C        -68.0890  -24.3480   -0.5830 C.2   190  ARG190      0.2260
     31  O        -68.4460  -23.4890    0.2320 O.2   190  ARG190     -0.2867
     32  CB       -69.8300  -25.5870   -1.8980 C.3   190  ARG190      0.0307
     33  CG       -70.7660  -25.5860   -3.1000 C.3   190  ARG190      0.0489
     34  CD       -71.6810  -26.7670   -3.1390 C.3   190  ARG190      0.2205
     35  NE       -72.3790  -26.8540   -4.4300 N.pl3 190  ARG190     -0.0865
     36  CZ       -73.4670  -27.6030   -4.6450 C.cat 190  ARG190      0.5346
     37  NH1      -73.9550  -28.4200   -3.7090 N.pl3 190  ARG190      0.1354
     38  NH2      -74.0940  -27.5230   -5.8310 N.pl3 190  ARG190      0.1354
     39  N        -68.6210  -17.6260  -10.6560 N.3   207  ASP207     -0.1225
     40  CA       -67.8650  -17.4200  -11.8850 C.3   207  ASP207      0.1805
     41  C        -68.1400  -18.5650  -12.8540 C.2   207  ASP207      0.2598
     42  O        -67.8410  -19.7260  -12.5530 O.2   207  ASP207     -0.2718
     43  CB       -66.3710  -17.3130  -11.5800 C.3   207  ASP207      0.1424
     44  CG       -65.5340  -17.0530  -12.8200 C.2   207  ASP207      0.3668
     45  OD1      -66.1010  -17.0090  -13.9320 O.co2 207  ASP207     -0.2456
     46  OD2      -64.3040  -16.8880  -12.6790 O.co2 207  ASP207     -0.2456
     47  N        -68.7030  -18.2330  -14.0150 N.am  208  SER208     -0.1938
     48  CA       -68.9750  -19.2170  -15.0530 C.3   208  SER208      0.2055
     49  C        -69.1880  -18.4940  -16.3740 C.2   208  SER208      0.2644
     50  O        -69.7790  -17.4120  -16.4040 O.2   208  SER208     -0.2714
     51  CB       -70.2060  -20.0650  -14.7150 C.3   208  SER208      0.2130
     52  OG       -70.5810  -20.8760  -15.8160 O.3   208  SER208     -0.2179
     53  N        -68.7090  -19.1000  -17.4620 N.am  209  SER209     -0.1935
     54  CA       -68.9100  -18.5170  -18.7840 C.3   209  SER209      0.2055
     55  C        -70.3040  -18.8110  -19.3220 C.2   209  SER209      0.2642
     56  O        -70.8380  -18.0240  -20.1120 O.2   209  SER209     -0.2714
     57  CB       -67.8510  -19.0350  -19.7580 C.3   209  SER209      0.2130
     58  OG       -68.0940  -20.3860  -20.1110 O.3   209  SER209     -0.2179
     59  N        -70.8990  -19.9300  -18.9140 N.am  210  GLN210     -0.1976
     60  CA       -72.2850  -20.2610  -19.2300 C.3   210  GLN210      0.1601
     61  C        -73.0160  -20.4620  -17.9110 C.2   210  GLN210      0.2287
     62  O        -72.7320  -21.4180  -17.1800 O.2   210  GLN210     -0.2864
     63  CB       -72.3720  -21.5060  -20.1130 C.3   210  GLN210      0.0394
     64  CG       -73.7550  -22.1540  -20.1780 C.3   210  GLN210      0.0908
     65  CD       -74.8330  -21.2320  -20.7160 C.2   210  GLN210      0.2608
     66  OE1      -74.7380  -20.0090  -20.6170 O.2   210  GLN210     -0.2717
     67  NE2      -75.8720  -21.8240  -21.2960 N.am  210  GLN210     -0.0878
     68  N        -76.3040  -27.4930  -12.3410 N.3   215  PHE215     -0.1241
     69  CA       -75.3840  -27.4210  -11.2120 C.3   215  PHE215      0.1605
     70  C        -75.3740  -26.0240  -10.6070 C.2   215  PHE215      0.2264
     71  O        -75.4080  -25.8690   -9.3800 O.2   215  PHE215     -0.2867
     72  CB       -73.9740  -27.8240  -11.6490 C.3   215  PHE215      0.0534
     73  CG       -73.8090  -29.2990  -11.8940 C.ar  215  PHE215     -0.0203
     74  CD1      -74.0130  -30.2110  -10.8710 C.ar  215  PHE215     -0.0042
     75  CD2      -73.4330  -29.7730  -13.1400 C.ar  215  PHE215     -0.0042
     76  CE1      -73.8580  -31.5670  -11.0890 C.ar  215  PHE215     -0.0003
     77  CE2      -73.2760  -31.1290  -13.3640 C.ar  215  PHE215     -0.0003
     78  CZ       -73.4890  -32.0260  -12.3370 C.ar  215  PHE215     -0.0000
@<TRIPOS>BOND
     1    67    65   am
     2    65    66    2
     3    65    64    1
     4    64    63    1
     5    63    60    1
     6    56    55    2
     7    58    57    1
     8    57    54    1
     9    55    59   am
    10    55    54    1
    11    60    59    1
    12    60    61    1
    13    54    53    1
    14    61    62    2
    15    53    49   am
    16    50    49    2
    17    49    48    1
    18    52    51    1
    19    48    51    1
    20    48    47    1
    21    47    41   am
    22    45    44   ar
    23    77    75   ar
    24    77    78   ar
    25    75    73   ar
    26    41    42    2
    27    41    40    1
    28    44    46   ar
    29    44    43    1
    30    68    69    1
    31    78    76   ar
    32    73    72    1
    33    73    74   ar
    34    40    43    1
    35    40    39    1
    36    72    69    1
    37    10     9    1
    38    69    70    1
    39    76    74   ar
    40    11     9    1
    41    70    71    2
    42     9     6    1
    43    18    16    1
    44     5     6    1
    45     5     3   am
    46     6     7    1
    47     2     3    1
    48     2     1    1
    49     8     7    2
    50     7    12   am
    51     3     4    2
    52    12    13    1
    53    16    13    1
    54    16    17    1
    55    13    14    1
    56    19    17    1
    57    14    20   am
    58    14    15    2
    59    38    36    1
    60    20    21    1
    61    36    35    2
    62    36    37    1
    63    35    34    1
    64    21    24    1
    65    21    22    1
    66    24    25    1
    67    22    23    2
    68    34    33    1
    69    33    32    1
    70    28    29    1
    71    25    27   ar
    72    25    26   ar
    73    29    32    1
    74    29    30    1
    75    30    31    2
