@<TRIPOS>MOLECULE
tmp/5mcpF01.pdb
 72 69 0 0 0
SMALL
GASTEIGER

@<TRIPOS>ATOM
      1  N        -48.7470   -3.5450   10.2080 N.3   108  PRO108     -0.2102
      2  CA       -48.4110   -3.5230   11.6360 C.3   108  PRO108      0.1504
      3  C        -47.1570   -4.3370   11.9630 C.2   108  PRO108      0.2575
      4  O        -47.2180   -5.2820   12.7500 O.2   108  PRO108     -0.2718
      5  CB       -49.6570   -4.1300   12.2940 C.3   108  PRO108      0.0282
      6  CG       -50.2550   -4.9940   11.2390 C.3   108  PRO108      0.0208
      7  CD       -49.9990   -4.2780    9.9470 C.3   108  PRO108      0.0893
      8  N        -46.0260   -3.9690   11.3560 N.am  109  VAL109     -0.1980
      9  CA       -44.7760   -4.6660   11.6320 C.3   109  VAL109      0.1595
     10  C        -44.3910   -4.4550   13.0880 C.2   109  VAL109      0.2287
     11  O        -44.5280   -3.3510   13.6320 O.2   109  VAL109     -0.2864
     12  CB       -43.6660   -4.1750   10.6880 C.3   109  VAL109      0.0276
     13  CG1      -42.3400   -4.8780   10.9580 C.3   109  VAL109      0.0022
     14  CG2      -44.0830   -4.4750    9.2460 C.3   109  VAL109      0.0022
     15  N        -35.4380   -2.4340    9.1900 N.3   121  LYS121     -0.1245
     16  CA       -35.9100   -1.0770    8.9360 C.3   121  LYS121      0.1561
     17  C        -35.6730   -0.6680    7.4880 C.2   121  LYS121      0.2260
     18  O        -36.5490   -0.0740    6.8490 O.2   121  LYS121     -0.2867
     19  CB       -35.2220   -0.0990    9.8880 C.3   121  LYS121      0.0271
     20  CG       -35.3630    1.3920    9.6090 C.3   121  LYS121      0.0035
     21  CD       -34.3040    2.1770   10.4170 C.3   121  LYS121      0.0206
     22  CE       -33.8910    3.4960    9.7760 C.3   121  LYS121      0.1093
     23  NZ       -32.4830    3.8800   10.1210 N.3   121  LYS121     -0.1314
     24  N        -38.8880    1.0340    7.3360 N.3   125  PHE125     -0.1227
     25  CA       -39.2210    1.9730    8.4010 C.3   125  PHE125      0.1736
     26  C        -38.7490    1.4690    9.7590 C.2   125  PHE125      0.2595
     27  O        -38.4730    0.2850    9.9280 O.2   125  PHE125     -0.2718
     28  CB       -40.7260    2.2250    8.4390 C.3   125  PHE125      0.0547
     29  CG       -41.5570    0.9770    8.3200 C.ar  125  PHE125     -0.0202
     30  CD1      -41.7290    0.1280    9.4010 C.ar  125  PHE125     -0.0042
     31  CD2      -42.1820    0.6660    7.1280 C.ar  125  PHE125     -0.0042
     32  CE1      -42.5060   -1.0110    9.2860 C.ar  125  PHE125     -0.0003
     33  CE2      -42.9690   -0.4600    7.0120 C.ar  125  PHE125     -0.0003
     34  CZ       -43.1230   -1.3060    8.0880 C.ar  125  PHE125     -0.0000
     35  N        -38.6800    2.3760   10.7330 N.am  126  ALA126     -0.1966
     36  CA       -38.0990    2.0690   12.0310 C.3   126  ALA126      0.1728
     37  C        -39.1100    2.0190   13.1680 C.2   126  ALA126      0.2616
     38  O        -38.7680    1.5340   14.2530 O.2   126  ALA126     -0.2715
     39  CB       -37.0140    3.0990   12.3720 C.3   126  ALA126      0.0334
     40  N        -40.3340    2.5000   12.9620 N.am  127  GLY127     -0.1955
     41  CA       -41.3300    2.4900   14.0170 C.3   127  GLY127      0.1869
     42  C        -41.7930    1.0960   14.3850 C.2   127  GLY127      0.2309
     43  O        -42.6300    0.5080   13.6920 O.2   127  GLY127     -0.2863
     44  N        -43.2220   -1.4240   17.6560 N.3   129  PRO129     -0.2116
     45  CA       -43.8110   -1.3590   18.9970 C.3   129  PRO129      0.1372
     46  C        -42.9750   -2.0830   20.0410 C.2   129  PRO129      0.2244
     47  O        -42.3090   -3.0830   19.7650 O.2   129  PRO129     -0.2868
     48  CB       -45.1620   -2.0550   18.8150 C.3   129  PRO129      0.0268
     49  CG       -44.8920   -3.0700   17.7530 C.3   129  PRO129      0.0207
     50  CD       -43.8740   -2.4480   16.8270 C.3   129  PRO129      0.0892
     51  N        -37.3220    3.2500   17.5070 N.3   133  THR133     -0.1203
     52  CA       -37.5140    4.0390   16.3010 C.3   133  THR133      0.1994
     53  C        -36.1520    4.3290   15.6800 C.2   133  THR133      0.2618
     54  O        -35.1040    3.9650   16.2240 O.2   133  THR133     -0.2717
     55  CB       -38.2580    5.3450   16.6070 C.3   133  THR133      0.1784
     56  OG1      -37.4070    6.2170   17.3600 O.3   133  THR133     -0.2211
     57  CG2      -39.5280    5.0730   17.4040 C.3   133  THR133      0.0376
     58  N        -36.1720    4.9970   14.5250 N.am  134  SER134     -0.1951
     59  CA       -34.9250    5.3440   13.8510 C.3   134  SER134      0.1924
     60  C        -34.0840    6.2810   14.7080 C.2   134  SER134      0.2314
     61  O        -32.8620    6.1160   14.8110 O.2   134  SER134     -0.2863
     62  CB       -35.2180    5.9750   12.4910 C.3   134  SER134      0.2116
     63  OG       -36.1000    7.0770   12.6160 O.3   134  SER134     -0.2180
     64  N        -51.3410   14.3780    5.5300 N.3   166  LYS166     -0.1245
     65  CA       -52.2560   13.8380    4.5310 C.3   166  LYS166      0.1561
     66  C        -53.7070   14.0200    4.9660 C.2   166  LYS166      0.2260
     67  O        -54.0400   13.8520    6.1390 O.2   166  LYS166     -0.2867
     68  CB       -51.9650   12.3570    4.2840 C.3   166  LYS166      0.0271
     69  CG       -52.0340   11.4780    5.5120 C.3   166  LYS166      0.0035
     70  CD       -51.7790   10.0100    5.2310 C.3   166  LYS166      0.0206
     71  CE       -52.2600    9.2660    6.4590 C.3   166  LYS166      0.1093
     72  NZ       -51.7480    7.9240    6.5710 N.3   166  LYS166     -0.1314
@<TRIPOS>BOND
     1    68    65    1
     2    68    69    1
     3    65    66    1
     4    65    64    1
     5    66    67    2
     6    70    69    1
     7    70    71    1
     8    71    72    1
     9    18    17    2
    10    33    31   ar
    11    33    34   ar
    12    31    29   ar
    13    24    25    1
    14    17    16    1
    15    34    32   ar
    16    29    28    1
    17    29    30   ar
    18    25    28    1
    19    25    26    1
    20    16    15    1
    21    16    19    1
    22    14    12    1
    23    32    30   ar
    24    20    19    1
    25    20    21    1
    26    26    27    2
    27    26    35   am
    28    22    23    1
    29    22    21    1
    30     7     1    1
    31     7     6    1
    32     1     2    1
    33    12    13    1
    34    12     9    1
    35    35    36    1
    36     6     5    1
    37     8     9    1
    38     8     3   am
    39     9    10    1
    40     2     3    1
    41     2     5    1
    42     3     4    2
    43    36    39    1
    44    36    37    1
    45    62    63    1
    46    62    59    1
    47    40    37   am
    48    40    41    1
    49    10    11    2
    50    37    38    2
    51    43    42    2
    52    59    58    1
    53    59    60    1
    54    41    42    1
    55    58    53   am
    56    60    61    2
    57    53    54    2
    58    53    52    1
    59    52    55    1
    60    52    51    1
    61    55    56    1
    62    55    57    1
    63    50    44    1
    64    50    49    1
    65    44    45    1
    66    49    48    1
    67    48    45    1
    68    45    46    1
    69    47    46    2
