@<TRIPOS>MOLECULE
tmp/5mcpE01.pdb
 128 122 0 0 0
SMALL
GASTEIGER

@<TRIPOS>ATOM
      1  N        -49.0400  -55.2020  -38.3630 N.3   116  ILE116     -0.1231
      2  CA       -48.0950  -54.5020  -39.2220 C.3   116  ILE116      0.1692
      3  C        -48.5790  -54.5530  -40.6670 C.2   116  ILE116      0.2592
      4  O        -49.2220  -55.5190  -41.1010 O.2   116  ILE116     -0.2718
      5  CB       -46.6870  -55.1100  -39.0880 C.3   116  ILE116      0.0266
      6  CG1      -46.1680  -54.8120  -37.6350 C.3   116  ILE116      0.0019
      7  CG2      -45.7490  -54.4960  -40.1140 C.3   116  ILE116      0.0020
      8  CD1      -44.7170  -55.0430  -37.4340 C.3   116  ILE116      0.0001
      9  N        -48.2690  -53.5010  -41.4180 N.am  117  ASN117     -0.1974
     10  CA       -48.6890  -53.3970  -42.8110 C.3   117  ASN117      0.1688
     11  C        -47.5230  -52.9760  -43.7000 C.2   117  ASN117      0.2292
     12  O        -46.5590  -52.3710  -43.2280 O.2   117  ASN117     -0.2864
     13  CB       -49.8410  -52.4000  -42.9460 C.3   117  ASN117      0.1181
     14  CG       -51.0480  -52.7880  -42.1150 C.2   117  ASN117      0.2629
     15  OD1      -51.4890  -52.0330  -41.2480 O.2   117  ASN117     -0.2716
     16  ND2      -51.5890  -53.9730  -42.3750 N.am  117  ASN117     -0.0877
     17  N        -39.2540  -56.8700  -43.4840 N.3   118  VAL118     -0.1245
     18  CA       -38.9770  -58.2920  -43.6430 C.3   118  VAL118      0.1561
     19  C        -37.8900  -58.4990  -44.6900 C.2   118  VAL118      0.2260
     20  O        -37.7580  -57.7100  -45.6260 O.2   118  VAL118     -0.2867
     21  CB       -40.2490  -59.0670  -44.0250 C.3   118  VAL118      0.0252
     22  CG1      -41.3430  -58.8890  -42.9740 C.3   118  VAL118      0.0019
     23  CG2      -40.7450  -58.6650  -45.4050 C.3   118  VAL118      0.0019
     24  N        -32.4750  -51.4760  -40.3980 N.3   129  LYS129     -0.1245
     25  CA       -33.0550  -51.0780  -39.0770 C.3   129  LYS129      0.1561
     26  C        -32.7840  -49.5500  -38.8720 C.2   129  LYS129      0.2260
     27  O        -33.6980  -48.7930  -38.4780 O.2   129  LYS129     -0.2867
     28  CB       -32.4950  -51.8120  -37.8220 C.3   129  LYS129      0.0271
     29  CG       -32.8480  -51.2550  -36.4480 C.3   129  LYS129      0.0035
     30  CD       -31.9050  -51.8570  -35.3820 C.3   129  LYS129      0.0206
     31  CE       -31.6870  -50.9600  -34.1710 C.3   129  LYS129      0.1093
     32  NZ       -30.3450  -51.1750  -33.5370 N.3   129  LYS129     -0.1314
     33  N        -36.0420  -48.0450  -38.7780 N.3   133  GLY133     -0.1210
     34  CA       -36.1350  -47.7930  -37.3550 C.3   133  GLY133      0.1956
     35  C        -36.8340  -48.8700  -36.5620 C.2   133  GLY133      0.2612
     36  O        -37.2280  -48.6150  -35.4180 O.2   133  GLY133     -0.2717
     37  N        -36.9920  -50.0710  -37.1230 N.am  134  PHE134     -0.1962
     38  CA       -37.8290  -51.1000  -36.5180 C.3   134  PHE134      0.1771
     39  C        -37.1540  -52.4660  -36.4490 C.2   134  PHE134      0.2619
     40  O        -37.8240  -53.4520  -36.1200 O.2   134  PHE134     -0.2715
     41  CB       -39.1480  -51.2170  -37.2920 C.3   134  PHE134      0.0574
     42  CG       -40.1320  -50.1070  -37.0880 C.ar  134  PHE134     -0.0200
     43  CD1      -40.2720  -49.4480  -35.8610 C.ar  134  PHE134     -0.0042
     44  CD2      -40.9600  -49.7320  -38.1620 C.ar  134  PHE134     -0.0042
     45  CE1      -41.2320  -48.4690  -35.6950 C.ar  134  PHE134     -0.0003
     46  CE2      -41.9130  -48.7330  -38.0010 C.ar  134  PHE134     -0.0003
     47  CZ       -42.0500  -48.1080  -36.7520 C.ar  134  PHE134     -0.0000
     48  N        -35.8570  -52.5490  -36.7420 N.am  135  ALA135     -0.1977
     49  CA       -35.1140  -53.8120  -36.7180 C.3   135  ALA135      0.1597
     50  C        -35.9490  -54.9870  -37.2240 C.2   135  ALA135      0.2287
     51  O        -36.1230  -55.9850  -36.5250 O.2   135  ALA135     -0.2864
     52  CB       -34.6070  -54.1000  -35.3110 C.3   135  ALA135      0.0319
     53  N        -37.3450  -58.3700  -38.3740 N.3   136  PHE136     -0.1228
     54  CA       -37.4460  -58.8110  -39.7580 C.3   136  PHE136      0.1721
     55  C        -37.5430  -60.3420  -39.8110 C.2   136  PHE136      0.2437
     56  O        -36.5680  -61.0320  -39.5170 O.2   136  PHE136     -0.2733
     57  CB       -36.2140  -58.3310  -40.5290 C.3   136  PHE136      0.0547
     58  CG       -35.9960  -56.8400  -40.4640 C.ar  136  PHE136     -0.0202
     59  CD1      -37.0630  -55.9620  -40.3750 C.ar  136  PHE136     -0.0042
     60  CD2      -34.7130  -56.3220  -40.4600 C.ar  136  PHE136     -0.0042
     61  CE1      -36.8510  -54.5940  -40.3090 C.ar  136  PHE136     -0.0003
     62  CE2      -34.4930  -54.9580  -40.3920 C.ar  136  PHE136     -0.0003
     63  CZ       -35.5630  -54.0930  -40.3130 C.ar  136  PHE136     -0.0000
     64  N        -38.7060  -60.8770  -40.1900 N.am  137  PRO137     -0.2729
     65  CA       -38.8370  -62.3340  -40.3140 C.3   137  PRO137      0.1401
     66  C        -38.3560  -62.8610  -41.6580 C.2   137  PRO137      0.2269
     67  O        -38.5250  -62.2190  -42.6980 O.2   137  PRO137     -0.2865
     68  CB       -40.3400  -62.5660  -40.1260 C.3   137  PRO137      0.0296
     69  CG       -40.9650  -61.3310  -40.6480 C.3   137  PRO137      0.0237
     70  CD       -40.0090  -60.2020  -40.3320 C.3   137  PRO137      0.0939
     71  N        -33.8080  -60.1580  -35.0200 N.3   143  THR143     -0.1203
     72  CA       -34.1170  -58.8940  -34.3690 C.3   143  THR143      0.1994
     73  C        -32.8160  -58.1980  -33.9820 C.2   143  THR143      0.2618
     74  O        -31.7160  -58.7090  -34.2130 O.2   143  THR143     -0.2717
     75  CB       -35.0060  -59.1120  -33.1390 C.3   143  THR143      0.1784
     76  OG1      -34.2420  -59.7350  -32.1030 O.3   143  THR143     -0.2211
     77  CG2      -36.1850  -60.0120  -33.4890 C.3   143  THR143      0.0376
     78  N        -32.9530  -57.0130  -33.3820 N.am  144  SER144     -0.1951
     79  CA       -31.7830  -56.2230  -33.0090 C.3   144  SER144      0.1924
     80  C        -30.8840  -56.9760  -32.0350 C.2   144  SER144      0.2314
     81  O        -29.6550  -56.9390  -32.1620 O.2   144  SER144     -0.2863
     82  CB       -32.2230  -54.8910  -32.4030 C.3   144  SER144      0.2116
     83  OG       -33.1130  -55.0940  -31.3200 O.3   144  SER144     -0.2180
     84  N        -40.8230  -60.5710  -28.7730 N.3   184  GLY184     -0.1210
     85  CA       -41.0370  -59.2430  -29.3130 C.3   184  GLY184      0.1956
     86  C        -42.0470  -59.1950  -30.4410 C.2   184  GLY184      0.2611
     87  O        -42.9260  -58.3290  -30.4530 O.2   184  GLY184     -0.2717
     88  N        -41.9330  -60.1160  -31.3940 N.am  185  LYS185     -0.1979
     89  CA       -42.7820  -60.1310  -32.5750 C.3   185  LYS185      0.1596
     90  C        -43.6000  -61.4150  -32.6230 C.2   185  LYS185      0.2287
     91  O        -43.2790  -62.4090  -31.9650 O.2   185  LYS185     -0.2864
     92  CB       -41.9460  -59.9990  -33.8560 C.3   185  LYS185      0.0298
     93  CG       -41.1430  -58.7210  -33.9550 C.3   185  LYS185      0.0038
     94  CD       -42.0530  -57.5100  -33.9200 C.3   185  LYS185      0.0206
     95  CE       -41.3240  -56.2670  -34.4000 C.3   185  LYS185      0.1093
     96  NZ       -40.0340  -56.1230  -33.6710 N.3   185  LYS185     -0.1314
     97  N        -47.9840  -59.5990  -38.9610 N.3   192  MET192     -0.1245
     98  CA       -47.1770  -59.6740  -37.7480 C.3   192  MET192      0.1570
     99  C        -47.5700  -58.5680  -36.7710 C.2   192  MET192      0.2261
    100  O        -48.0780  -57.5220  -37.1760 O.2   192  MET192     -0.2867
    101  CB       -45.6890  -59.5730  -38.0890 C.3   192  MET192      0.0387
    102  CG       -44.7650  -59.6760  -36.8850 C.3   192  MET192      0.0595
    103  SD       -43.0210  -59.6910  -37.3380 S.3   192  MET192     -0.1393
    104  CE       -42.8480  -58.0600  -38.0560 C.3   192  MET192      0.0692
    105  N        -46.3670  -56.3280  -33.0950 N.3   194  SER194     -0.1202
    106  CA       -45.2640  -55.8680  -32.2630 C.3   194  SER194      0.2020
    107  C        -45.7620  -55.6070  -30.8470 C.2   194  SER194      0.2619
    108  O        -46.8380  -55.0330  -30.6520 O.2   194  SER194     -0.2717
    109  CB       -44.6330  -54.5990  -32.8410 C.3   194  SER194      0.2103
    110  OG       -45.4650  -53.4920  -32.7730 O.3   194  SER194     -0.2182
    111  N        -44.9670  -56.0270  -29.8600 N.am  195  ARG195     -0.1965
    112  CA       -45.4190  -56.0310  -28.4730 C.3   195  ARG195      0.1729
    113  C        -45.5840  -54.6340  -27.8890 C.2   195  ARG195      0.2616
    114  O        -46.2650  -54.4870  -26.8680 O.2   195  ARG195     -0.2715
    115  CB       -44.4420  -56.8300  -27.6090 C.3   195  ARG195      0.0348
    116  CG       -44.9400  -57.0010  -26.1860 C.3   195  ARG195      0.0492
    117  CD       -43.8160  -57.5490  -25.3630 C.3   195  ARG195      0.2205
    118  NE       -44.1690  -57.8400  -23.9620 N.pl3 195  ARG195     -0.0865
    119  CZ       -43.3870  -58.5560  -23.1580 C.cat 195  ARG195      0.5346
    120  NH1      -42.2980  -59.0830  -23.7040 N.pl3 195  ARG195      0.1354
    121  NH2      -43.5630  -58.5880  -21.8300 N.pl3 195  ARG195      0.1354
    122  N        -44.9840  -53.6080  -28.4990 N.am  196  THR196     -0.1951
    123  CA       -45.0700  -52.2660  -27.9270 C.3   196  THR196      0.1897
    124  C        -46.5220  -51.8510  -27.7220 C.2   196  THR196      0.2313
    125  O        -46.8800  -51.3150  -26.6660 O.2   196  THR196     -0.2863
    126  CB       -44.3490  -51.2540  -28.8210 C.3   196  THR196      0.1794
    127  OG1      -42.9820  -51.6480  -28.9940 O.3   196  THR196     -0.2208
    128  CG2      -44.4000  -49.8600  -28.1980 C.3   196  THR196      0.0378
@<TRIPOS>BOND
     1    20    19    2
     2    23    21    1
     3    19    18    1
     4    21    18    1
     5    21    22    1
     6    11    12    2
     7    11    10    1
     8    18    17    1
     9    13    10    1
    10    13    14    1
    11    10     9    1
    12    67    66    2
    13    16    14   am
    14    14    15    2
    15    66    65    1
    16     9     3   am
    17     4     3    2
    18     3     2    1
    19    69    70    1
    20    69    68    1
    21    57    58    1
    22    57    54    1
    23    58    60   ar
    24    58    59   ar
    25    60    62   ar
    26    24    25    1
    27    62    63   ar
    28    59    61   ar
    29    70    64    1
    30    65    64    1
    31    65    68    1
    32    63    61   ar
    33    64    55   am
    34     7     5    1
    35    55    54    1
    36    55    56    2
    37    54    53    1
    38     2     5    1
    39     2     1    1
    40     5     6    1
    41    25    26    1
    42    25    28    1
    43    97    98    1
    44    26    27    2
    45    33    34    1
    46    44    46   ar
    47    44    42   ar
    48   101    98    1
    49   101   102    1
    50   104   103    1
    51    46    47   ar
    52    28    29    1
    53    98    99    1
    54     6     8    1
    55    34    35    1
    56   103   102    1
    57    41    42    1
    58    41    38    1
    59    50    49    1
    60    50    51    2
    61   100    99    2
    62    37    35   am
    63    37    38    1
    64    42    43   ar
    65    47    45   ar
    66    48    49    1
    67    48    39   am
    68    49    52    1
    69    35    36    2
    70    38    39    1
    71    39    40    2
    72    29    30    1
    73    43    45   ar
    74    30    31    1
    75    71    72    1
    76    95    94    1
    77    95    96    1
    78    72    73    1
    79    72    75    1
    80    74    73    2
    81    31    32    1
    82    73    78   am
    83    93    94    1
    84    93    92    1
    85    92    89    1
    86    77    75    1
    87    78    79    1
    88    75    76    1
    89   105   106    1
    90    79    82    1
    91    79    80    1
    92   109   110    1
    93   109   106    1
    94    90    89    1
    95    90    91    2
    96    89    88    1
    97    82    83    1
    98   106   107    1
    99    81    80    2
   100    88    86   am
   101   107   108    2
   102   107   111   am
   103    87    86    2
   104    86    85    1
   105   111   112    1
   106    85    84    1
   107   127   126    1
   108   126   128    1
   109   126   123    1
   110   122   123    1
   111   122   113   am
   112   112   113    1
   113   112   115    1
   114   123   124    1
   115   113   114    2
   116   124   125    2
   117   115   116    1
   118   116   117    1
   119   117   118    1
   120   118   119    2
   121   120   119    1
   122   119   121    1
