@<TRIPOS>MOLECULE
tmp/5mdhB01.pdb
 91 83 0 0 0
SMALL
GASTEIGER

@<TRIPOS>ATOM
      1  N         31.8540   47.3400   24.5810 N.3    91  ARG91      -0.1245
      2  CA        31.8690   47.2830   26.0320 C.3    91  ARG91       0.1563
      3  C         32.5500   46.0120   26.5430 C.2    91  ARG91       0.2260
      4  O         32.9120   45.1360   25.7590 O.2    91  ARG91      -0.2867
      5  CB        30.4440   47.3080   26.5940 C.3    91  ARG91       0.0307
      6  CG        29.6230   46.0750   26.2220 C.3    91  ARG91       0.0489
      7  CD        28.9310   45.5080   27.4520 C.3    91  ARG91       0.2205
      8  NE        27.7720   44.6880   27.1350 N.pl3  91  ARG91      -0.0865
      9  CZ        26.8840   44.2560   28.0240 C.cat  91  ARG91       0.5346
     10  NH1       27.0000   44.5610   29.3110 N.pl3  91  ARG91       0.1354
     11  NH2       25.8650   43.5080   27.6230 N.pl3  91  ARG91       0.1354
     12  N         28.0440   50.1520   31.2530 N.3    97  ARG97      -0.1245
     13  CA        28.1560   50.4190   29.8290 C.3    97  ARG97       0.1563
     14  C         27.9220   51.9140   29.5900 C.2    97  ARG97       0.2260
     15  O         27.2890   52.3410   28.6310 O.2    97  ARG97      -0.2867
     16  CB        27.1760   49.5890   29.0050 C.3    97  ARG97       0.0307
     17  CG        25.8780   49.2190   29.6910 C.3    97  ARG97       0.0489
     18  CD        24.7820   48.8250   28.7180 C.3    97  ARG97       0.2205
     19  NE        24.2050   47.5150   28.9530 N.pl3  97  ARG97      -0.0865
     20  CZ        23.6110   47.0800   30.0550 C.cat  97  ARG97       0.5346
     21  NH1       23.4880   47.8620   31.1210 N.pl3  97  ARG97       0.1354
     22  NH2       23.1330   45.8400   30.0960 N.pl3  97  ARG97       0.1354
     23  N         25.1860   50.4010   21.9410 N.3   130  ASN130     -0.1296
     24  CA        25.2540   51.2130   23.1380 C.3   130  ASN130      0.1339
     25  C         25.8520   52.5790   22.9720 C.3   130  ASN130      0.2014
     26  O         26.8720   52.4060   22.3040 O.3   130  ASN130     -0.2188
     27  CB        25.7820   50.3530   24.2810 C.3   130  ASN130      0.1102
     28  CG        24.6620   49.5540   24.9440 C.2   130  ASN130      0.2623
     29  OD1       24.8240   48.4260   25.4020 O.2   130  ASN130     -0.2716
     30  ND2       23.4770   50.1530   25.0400 N.am  130  ASN130     -0.0877
     31  N         15.5450   43.2660   26.0170 N.3   157  LEU157     -0.1231
     32  CA        16.4290   42.2870   26.6070 C.3   157  LEU157      0.1693
     33  C         16.3620   42.4180   28.1180 C.2   157  LEU157      0.2592
     34  O         16.1900   41.3920   28.7660 O.2   157  LEU157     -0.2718
     35  CB        17.8700   42.4090   26.1330 C.3   157  LEU157      0.0284
     36  CG        18.8430   41.3060   26.5440 C.3   157  LEU157      0.0019
     37  CD1       18.3740   39.9330   26.1590 C.3   157  LEU157      0.0001
     38  CD2       20.2290   41.5660   25.9530 C.3   157  LEU157      0.0001
     39  N         16.3830   43.6570   28.6520 N.am  158  ASP158     -0.1974
     40  CA        16.2760   43.8420   30.1000 C.3   158  ASP158      0.1709
     41  C         14.9130   43.3740   30.5920 C.2   158  ASP158      0.2293
     42  O         14.7300   42.8260   31.6680 O.2   158  ASP158     -0.2864
     43  CB        16.3910   45.3170   30.4990 C.3   158  ASP158      0.1436
     44  CG        17.6410   45.9870   29.9450 C.2   158  ASP158      0.3671
     45  OD1       18.7420   45.4880   30.2650 O.co2 158  ASP158     -0.2456
     46  OD2       17.4980   46.9570   29.1780 O.co2 158  ASP158     -0.2456
     47  N         14.8780   39.5170   30.4610 N.3   161  ARG161     -0.1245
     48  CA        15.6470   39.0320   31.5810 C.3   161  ARG161      0.1563
     49  C         14.8890   39.1010   32.9010 C.2   161  ARG161      0.2260
     50  O         15.0320   38.2180   33.7550 O.2   161  ARG161     -0.2867
     51  CB        16.9830   39.7860   31.7370 C.3   161  ARG161      0.0307
     52  CG        17.8930   39.6040   30.5260 C.3   161  ARG161      0.0489
     53  CD        19.1740   40.3920   30.6470 C.3   161  ARG161      0.2205
     54  NE        20.2270   39.8100   29.7500 N.pl3 161  ARG161     -0.0865
     55  CZ        21.1310   40.7040   29.2750 C.cat 161  ARG161      0.5346
     56  NH1       21.1090   41.9910   29.5990 N.pl3 161  ARG161      0.1354
     57  NH2       22.0640   40.2980   28.4490 N.pl3 161  ARG161      0.1354
     58  N         18.6810   52.1380   29.1610 N.3   186  HIS186     -0.1241
     59  CA        19.2750   50.8170   29.0470 C.3   186  HIS186      0.1621
     60  C         20.6640   50.9350   29.6920 C.2   186  HIS186      0.2264
     61  O         21.6870   51.2270   29.0730 O.2   186  HIS186     -0.2867
     62  CB        19.3770   50.3540   27.6030 C.3   186  HIS186      0.0745
     63  CG        20.0840   49.0430   27.5070 C.ar  186  HIS186      0.0817
     64  ND1       19.6420   47.9290   28.1740 N.ar  186  HIS186     -0.2268
     65  CD2       21.2040   48.6580   26.8480 C.ar  186  HIS186      0.1154
     66  CE1       20.4420   46.9140   27.9160 C.ar  186  HIS186      0.1986
     67  NE2       21.3920   47.3260   27.1190 N.ar  186  HIS186     -0.2212
     68  N         23.8500   41.4030   31.8900 N.3   230  GLY230     -0.1225
     69  CA        24.6330   41.4820   30.6770 C.3   230  GLY230      0.1811
     70  C         26.1170   41.2660   30.9370 C.2   230  GLY230      0.2280
     71  O         26.7540   40.4780   30.2320 O.2   230  GLY230     -0.2866
     72  N         28.5560   38.0900   29.7090 N.3   234  ILE234     -0.1245
     73  CA        29.8220   38.4600   29.0850 C.3   234  ILE234      0.1561
     74  C         31.0400   38.0000   29.8790 C.2   234  ILE234      0.2260
     75  O         32.0030   37.5400   29.2610 O.2   234  ILE234     -0.2867
     76  CB        29.9380   39.9730   28.8430 C.3   234  ILE234      0.0252
     77  CG1       28.8480   40.4570   27.8490 C.3   234  ILE234      0.0019
     78  CG2       31.3260   40.3550   28.3590 C.3   234  ILE234      0.0019
     79  CD1       28.6900   41.9670   28.0710 C.3   234  ILE234      0.0001
     80  N         29.7430   38.6540   23.6320 N.3   240  SER240     -0.1202
     81  CA        28.4530   39.2960   23.9170 C.3   240  SER240      0.2020
     82  C         27.3380   38.2780   24.1720 C.2   240  SER240      0.2619
     83  O         27.3950   37.1280   23.7440 O.2   240  SER240     -0.2717
     84  CB        28.0260   40.1500   22.7200 C.3   240  SER240      0.2103
     85  OG        28.3150   41.5090   22.9850 O.3   240  SER240     -0.2182
     86  N         26.2650   38.7700   24.7420 N.am  241  SER241     -0.1951
     87  CA        25.0140   38.0610   24.9910 C.3   241  SER241      0.1924
     88  C         24.1650   38.0470   23.7360 C.2   241  SER241      0.2314
     89  O         23.0010   38.4490   23.7340 O.2   241  SER241     -0.2863
     90  CB        24.3280   38.8410   26.1390 C.3   241  SER241      0.2116
     91  OG        23.1980   38.1740   26.6640 O.3   241  SER241     -0.2180
@<TRIPOS>BOND
     1    23    24    1
     2    26    25    1
     3    84    85    1
     4    84    81    1
     5    25    24    1
     6    24    27    1
     7    80    81    1
     8    89    88    2
     9    88    87    1
    10    83    82    2
    11    81    82    1
    12    82    86   am
    13    27    28    1
    14     1     2    1
    15    86    87    1
    16    28    30   am
    17    28    29    2
    18    87    90    1
    19     4     3    2
    20    38    36    1
    21    31    32    1
    22     2     3    1
    23     2     5    1
    24    35    36    1
    25    35    32    1
    26    90    91    1
    27    37    36    1
    28     6     5    1
    29     6     7    1
    30    32    33    1
    31    65    67   ar
    32    65    63   ar
    33    67    66   ar
    34     8     7    1
    35     8     9    2
    36    63    62    1
    37    63    64   ar
    38    62    59    1
    39    11     9    1
    40    77    79    1
    41    77    76    1
    42    66    64   ar
    43     9    10    1
    44    33    39   am
    45    33    34    2
    46    78    76    1
    47    57    55    1
    48    15    14    2
    49    39    40    1
    50    18    19    1
    51    18    17    1
    52    76    73    1
    53    19    20    2
    54    16    17    1
    55    16    13    1
    56    59    58    1
    57    59    60    1
    58    61    60    2
    59    73    72    1
    60    73    74    1
    61    46    44   ar
    62    75    74    2
    63    55    56    1
    64    55    54    2
    65    14    13    1
    66    54    53    1
    67    13    12    1
    68    44    45   ar
    69    44    43    1
    70    20    22    1
    71    20    21    1
    72    40    43    1
    73    40    41    1
    74    71    70    2
    75    47    48    1
    76    52    53    1
    77    52    51    1
    78    41    42    2
    79    69    70    1
    80    69    68    1
    81    48    51    1
    82    48    49    1
    83    49    50    2
