@<TRIPOS>MOLECULE
tmp/5mdoB01.pdb
 94 91 0 0 0
SMALL
GASTEIGER

@<TRIPOS>ATOM
      1  N        -38.9440    5.6300   63.3540 N.3   258  TYR258     -0.1241
      2  CA       -39.2610    7.0240   63.5450 C.3   258  TYR258      0.1605
      3  C        -38.4170    7.5870   64.6410 C.2   258  TYR258      0.2264
      4  O        -38.3010    6.9510   65.6980 O.2   258  TYR258     -0.2867
      5  CB       -40.7300    7.2070   63.8890 C.3   258  TYR258      0.0534
      6  CG       -41.1140    8.6410   64.1020 C.ar  258  TYR258     -0.0201
      7  CD1      -41.3480    9.4560   63.0160 C.ar  258  TYR258     -0.0009
      8  CD2      -41.2350    9.2110   65.4180 C.ar  258  TYR258     -0.0009
      9  CE1      -41.6550   10.7960   63.2100 C.ar  258  TYR258      0.0417
     10  CE2      -41.5390   10.5460   65.6140 C.ar  258  TYR258      0.0417
     11  CZ       -41.7890   11.3240   64.5010 C.ar  258  TYR258      0.1957
     12  OH       -42.0760   12.6600   64.5860 O.3   258  TYR258     -0.2866
     13  N        -37.4290   11.6190   66.5680 N.3   260  ALA260     -0.1231
     14  CA       -37.7110   13.0650   66.6270 C.3   260  ALA260      0.1694
     15  C        -36.9180   13.7300   67.7340 C.2   260  ALA260      0.2592
     16  O        -36.6910   13.1120   68.7820 O.2   260  ALA260     -0.2718
     17  CB       -39.2140   13.3430   66.8620 C.3   260  ALA260      0.0304
     18  N        -36.4570   14.9440   67.4860 N.am  261  ASN261     -0.1960
     19  CA       -36.0150   15.8540   68.4930 C.3   261  ASN261      0.1819
     20  C        -37.1140   16.8850   68.6280 C.2   261  ASN261      0.2621
     21  O        -37.5900   17.3940   67.6250 O.2   261  ASN261     -0.2715
     22  CB       -34.7070   16.5440   68.1160 C.3   261  ASN261      0.1195
     23  CG       -33.5510   15.5680   67.9610 C.2   261  ASN261      0.2630
     24  OD1      -33.3380   14.7210   68.8180 O.2   261  ASN261     -0.2716
     25  ND2      -32.7840   15.7080   66.9130 N.am  261  ASN261     -0.0877
     26  N        -37.5570   17.1680   69.8730 N.am  262  PHE262     -0.1974
     27  CA       -38.6290   18.1900   70.1120 C.3   262  PHE262      0.1639
     28  C        -37.9560   19.5830   70.1100 C.2   262  PHE262      0.2290
     29  O        -36.7100   19.6930   70.1460 O.2   262  PHE262     -0.2864
     30  CB       -39.3740   17.8580   71.4110 C.3   262  PHE262      0.0560
     31  CG       -40.0540   16.5500   71.3500 C.ar  262  PHE262     -0.0200
     32  CD1      -41.2820   16.4420   70.6640 C.ar  262  PHE262     -0.0042
     33  CD2      -39.4690   15.4080   71.8420 C.ar  262  PHE262     -0.0042
     34  CE1      -41.9120   15.1980   70.5290 C.ar  262  PHE262     -0.0003
     35  CE2      -40.0620   14.1600   71.7010 C.ar  262  PHE262     -0.0003
     36  CZ       -41.3000   14.0500   71.0310 C.ar  262  PHE262     -0.0000
     37  N        -39.4440   25.9990   65.8030 N.3   273  ASN273     -0.1240
     38  CA       -38.9260   25.3030   64.6640 C.3   273  ASN273      0.1653
     39  C        -37.5070   24.7940   64.8580 C.2   273  ASN273      0.2266
     40  O        -36.6970   24.8260   63.9190 O.2   273  ASN273     -0.2867
     41  CB       -39.0610   26.1870   63.4400 C.3   273  ASN273      0.1155
     42  CG       -40.4960   26.5840   63.2080 C.2   273  ASN273      0.2627
     43  OD1      -41.3970   25.7770   63.2470 O.2   273  ASN273     -0.2716
     44  ND2      -40.7040   27.8250   62.9460 N.am  273  ASN273     -0.0877
     45  N        -37.2090   21.6720   66.1530 N.3   275  SER275     -0.1202
     46  CA       -37.4050   20.2210   66.1250 C.3   275  SER275      0.2020
     47  C        -36.9260   19.5640   64.8070 C.2   275  SER275      0.2619
     48  O        -36.7480   20.2420   63.7790 O.2   275  SER275     -0.2717
     49  CB       -38.9150   19.8940   66.3060 C.3   275  SER275      0.2103
     50  OG       -39.6420   20.4400   65.2420 O.3   275  SER275     -0.2182
     51  N        -36.6910   18.2580   64.8730 N.am  276  ASP276     -0.1959
     52  CA       -36.3480   17.4260   63.7130 C.3   276  ASP276      0.1840
     53  C        -37.1880   16.1550   63.7590 C.2   276  ASP276      0.2622
     54  O        -37.4600   15.6450   64.8670 O.2   276  ASP276     -0.2715
     55  CB       -34.8910   16.9290   63.7620 C.3   276  ASP276      0.1450
     56  CG       -33.8380   18.0370   64.0710 C.2   276  ASP276      0.3671
     57  OD1      -33.6980   18.9760   63.2760 O.co2 276  ASP276     -0.2456
     58  OD2      -33.0200   17.8720   65.0190 O.co2 276  ASP276     -0.2456
     59  N        -37.4880   15.5740   62.6080 N.am  277  ASP277     -0.1971
     60  CA       -37.8590   14.1690   62.6110 C.3   277  ASP277      0.1709
     61  C        -37.5130   13.4170   61.3530 C.2   277  ASP277      0.2293
     62  O        -37.0990   14.0130   60.3510 O.2   277  ASP277     -0.2864
     63  CB       -39.3410   13.9630   63.0060 C.3   277  ASP277      0.1436
     64  CG       -40.3490   14.3510   61.9490 C.2   277  ASP277      0.3671
     65  OD1      -40.0340   14.8570   60.8650 O.co2 277  ASP277     -0.2456
     66  OD2      -41.5520   14.1400   62.3200 O.co2 277  ASP277     -0.2456
     67  N        -36.7080   15.5630   58.0300 N.3   299  ASP299     -0.1225
     68  CA       -37.2250   16.9210   58.0790 C.3   299  ASP299      0.1805
     69  C        -36.5710   17.6290   59.3020 C.2   299  ASP299      0.2597
     70  O        -36.9530   17.3660   60.4750 O.2   299  ASP299     -0.2718
     71  CB       -38.7380   16.8870   58.2660 C.3   299  ASP299      0.1424
     72  CG       -39.3660   18.2890   58.2530 C.2   299  ASP299      0.3668
     73  OD1      -38.6130   19.3130   58.0730 O.co2 299  ASP299     -0.2456
     74  OD2      -40.6360   18.3640   58.4140 O.co2 299  ASP299     -0.2456
     75  N        -35.6090   18.5030   59.0380 N.am  300  PHE300     -0.1976
     76  CA       -34.7850   19.0770   60.0840 C.3   300  PHE300      0.1639
     77  C        -35.3140   20.4480   60.4780 C.2   300  PHE300      0.2290
     78  O        -36.0820   21.0950   59.7850 O.2   300  PHE300     -0.2864
     79  CB       -33.3100   19.2060   59.6740 C.3   300  PHE300      0.0560
     80  CG       -32.6270   17.9040   59.3170 C.ar  300  PHE300     -0.0200
     81  CD1      -32.3280   16.9720   60.2790 C.ar  300  PHE300     -0.0042
     82  CD2      -32.2450   17.6450   58.0000 C.ar  300  PHE300     -0.0042
     83  CE1      -31.6860   15.7770   59.9280 C.ar  300  PHE300     -0.0003
     84  CE2      -31.5610   16.4750   57.6540 C.ar  300  PHE300     -0.0003
     85  CZ       -31.2710   15.5520   58.6050 C.ar  300  PHE300     -0.0000
     86  N        -35.1570   24.4990   61.3910 N.3   302  GLU302     -0.1245
     87  CA       -34.8430   25.6840   60.5630 C.3   302  GLU302      0.1567
     88  C        -33.6890   26.5870   61.0580 C.2   302  GLU302      0.2260
     89  O        -33.5920   27.7160   60.6380 O.2   302  GLU302     -0.2867
     90  CB       -36.1860   26.4860   60.3490 C.3   302  GLU302      0.0388
     91  CG       -37.1120   25.6240   59.4830 C.3   302  GLU302      0.1160
     92  CD       -38.5220   26.1190   59.3570 C.2   302  GLU302      0.3649
     93  OE1      -38.8650   27.2100   59.8910 O.co2 302  GLU302     -0.2457
     94  OE2      -39.2780   25.3860   58.6870 O.co2 302  GLU302     -0.2457
@<TRIPOS>BOND
     1    84    82   ar
     2    84    85   ar
     3    82    80   ar
     4    67    68    1
     5    73    72   ar
     6    68    71    1
     7    68    69    1
     8    72    71    1
     9    72    74   ar
    10    85    83   ar
    11    94    92   ar
    12    75    69   am
    13    75    76    1
    14    69    70    2
    15    80    79    1
    16    80    81   ar
    17    92    91    1
    18    92    93   ar
    19    91    90    1
    20    79    76    1
    21    78    77    2
    22    83    81   ar
    23    76    77    1
    24    90    87    1
    25    62    61    2
    26    87    88    1
    27    87    86    1
    28    89    88    2
    29    65    64   ar
    30    61    60    1
    31    64    66   ar
    32    64    63    1
    33    59    60    1
    34    59    53   am
    35    60    63    1
    36    44    42   am
    37     7     9   ar
    38     7     6   ar
    39    42    43    2
    40    42    41    1
    41     9    11   ar
    42    57    56   ar
    43     1     2    1
    44    41    38    1
    45     2     5    1
    46     2     3    1
    47    52    53    1
    48    52    55    1
    49    52    51    1
    50    53    54    2
    51    55    56    1
    52    48    47    2
    53     5     6    1
    54    40    39    2
    55    56    58   ar
    56     6     8   ar
    57    11    12    1
    58    11    10   ar
    59     3     4    2
    60    38    39    1
    61    38    37    1
    62    47    51   am
    63    47    46    1
    64    50    49    1
    65     8    10   ar
    66    46    45    1
    67    46    49    1
    68    13    14    1
    69    14    17    1
    70    14    15    1
    71    25    23   am
    72    18    15   am
    73    18    19    1
    74    21    20    2
    75    15    16    2
    76    23    22    1
    77    23    24    2
    78    22    19    1
    79    19    20    1
    80    20    26   am
    81    26    27    1
    82    28    27    1
    83    28    29    2
    84    27    30    1
    85    34    32   ar
    86    34    36   ar
    87    32    31   ar
    88    36    35   ar
    89    31    30    1
    90    31    33   ar
    91    35    33   ar
