@<TRIPOS>MOLECULE
tmp/5mdoA04.pdb
 71 68 0 0 0
SMALL
GASTEIGER

@<TRIPOS>ATOM
      1  N          4.1970    3.6350   22.8640 N.3   244  ALA244     -0.1231
      2  CA         4.6450    2.3850   22.2870 C.3   244  ALA244      0.1694
      3  C          5.8100    1.7810   23.0540 C.2   244  ALA244      0.2593
      4  O          6.5650    2.4920   23.6960 O.2   244  ALA244     -0.2718
      5  CB         5.0230    2.5610   20.8240 C.3   244  ALA244      0.0304
      6  N          5.9340    0.4610   22.9760 N.am  245  GLY245     -0.1942
      7  CA         7.0190   -0.2370   23.6120 C.3   245  GLY245      0.2014
      8  C          7.4100   -1.4660   22.8480 C.2   245  GLY245      0.2638
      9  O          6.5770   -2.0960   22.1780 O.2   245  GLY245     -0.2714
     10  N          8.6920   -1.7520   22.8800 N.am  246  LEU246     -0.1977
     11  CA         9.2620   -2.9110   22.2150 C.3   246  LEU246      0.1596
     12  C         10.0600   -3.6920   23.2500 C.2   246  LEU246      0.2287
     13  O         10.8630   -3.1090   23.9820 O.2   246  LEU246     -0.2864
     14  CB        10.1930   -2.4580   21.1220 C.3   246  LEU246      0.0297
     15  CG        10.8590   -3.5620   20.3060 C.3   246  LEU246      0.0022
     16  CD1        9.7890   -4.3660   19.5660 C.3   246  LEU246      0.0001
     17  CD2       11.8490   -2.9930   19.2880 C.3   246  LEU246      0.0001
     18  N         12.3720   -0.9520   25.3890 N.3   256  LEU256     -0.1231
     19  CA        12.4050    0.4560   25.0000 C.3   256  LEU256      0.1693
     20  C         10.9830    0.9420   24.9620 C.2   256  LEU256      0.2593
     21  O         10.0860    0.2690   24.4470 O.2   256  LEU256     -0.2718
     22  CB        12.9970    0.6630   23.6070 C.3   256  LEU256      0.0284
     23  CG        14.4230    0.2540   23.4610 C.3   256  LEU256      0.0019
     24  CD1       14.8980    0.3010   22.0110 C.3   256  LEU256      0.0001
     25  CD2       15.2970    1.1480   24.3530 C.3   256  LEU256      0.0001
     26  N         10.7610    2.1430   25.4860 N.am  257  GLY257     -0.1942
     27  CA         9.4210    2.7730   25.5120 C.3   257  GLY257      0.2014
     28  C          9.4880    4.2210   25.0560 C.2   257  GLY257      0.2638
     29  O         10.5180    4.8970   25.2180 O.2   257  GLY257     -0.2714
     30  N          8.4130    4.6530   24.4100 N.am  258  TYR258     -0.1973
     31  CA         8.2840    6.0230   23.9380 C.3   258  TYR258      0.1639
     32  C          6.8420    6.4530   24.0410 C.2   258  TYR258      0.2290
     33  O          5.9610    5.6860   23.7050 O.2   258  TYR258     -0.2864
     34  CB         8.7650    6.1630   22.4830 C.3   258  TYR258      0.0560
     35  CG         8.6250    7.5710   21.9930 C.ar  258  TYR258     -0.0198
     36  CD1        9.5800    8.5230   22.2600 C.ar  258  TYR258     -0.0009
     37  CD2        7.5220    7.9580   21.2140 C.ar  258  TYR258     -0.0009
     38  CE1        9.4750    9.8270   21.8410 C.ar  258  TYR258      0.0417
     39  CE2        7.3840    9.2750   20.7950 C.ar  258  TYR258      0.0417
     40  CZ         8.3950   10.1860   21.0350 C.ar  258  TYR258      0.1957
     41  OH         8.2380   11.4970   20.6270 O.3   258  TYR258     -0.2866
     42  N          7.2320   14.6270   25.3770 N.3   277  ASP277     -0.1225
     43  CA         7.5920   13.2500   25.1300 C.3   277  ASP277      0.1805
     44  C          8.5590   12.6540   26.1540 C.2   277  ASP277      0.2598
     45  O          9.1730   13.3720   26.9130 O.2   277  ASP277     -0.2718
     46  CB         8.0130   12.9550   23.6770 C.3   277  ASP277      0.1424
     47  CG         9.3690   13.5000   23.2760 C.2   277  ASP277      0.3668
     48  OD1       10.1290   14.1150   24.0610 O.co2 277  ASP277     -0.2456
     49  OD2        9.7050   13.2640   22.1010 O.co2 277  ASP277     -0.2456
     50  N          8.6430   11.3430   26.1010 N.am  278  VAL278     -0.1966
     51  CA         9.4930   10.5510   27.0020 C.3   278  VAL278      0.1727
     52  C         10.0320    9.3510   26.2500 C.2   278  VAL278      0.2616
     53  O          9.3160    8.7170   25.4340 O.2   278  VAL278     -0.2715
     54  CB         8.7550   10.0850   28.2840 C.3   278  VAL278      0.0290
     55  CG1        7.4510    9.3180   27.9720 C.3   278  VAL278      0.0023
     56  CG2        9.6340    9.2560   29.1880 C.3   278  VAL278      0.0023
     57  N         11.3230    9.0850   26.4510 N.am  279  VAL279     -0.1977
     58  CA        11.9350    7.8780   26.0070 C.3   279  VAL279      0.1596
     59  C         12.5120    7.1740   27.2300 C.2   279  VAL279      0.2287
     60  O         13.1040    7.8020   28.0990 O.2   279  VAL279     -0.2864
     61  CB        12.9670    8.1570   24.8840 C.3   279  VAL279      0.0276
     62  CG1       14.1470    9.0050   25.3640 C.3   279  VAL279      0.0022
     63  CG2       13.5160    6.8420   24.3320 C.3   279  VAL279      0.0022
     64  N         10.7780   15.2060   28.2820 N.3   299  ASP299     -0.1239
     65  CA        10.8450   16.5320   27.7230 C.3   299  ASP299      0.1674
     66  C          9.3990   17.0740   27.6210 C.2   299  ASP299      0.2266
     67  O          8.6360   16.6800   26.7230 O.2   299  ASP299     -0.2867
     68  CB        11.4710   16.4830   26.3210 C.3   299  ASP299      0.1410
     69  CG        11.6390   17.8690   25.6760 C.2   299  ASP299      0.3668
     70  OD1       11.3500   18.9060   26.3340 O.co2 299  ASP299     -0.2456
     71  OD2       12.0780   17.9040   24.4640 O.co2 299  ASP299     -0.2456
@<TRIPOS>BOND
     1    17    15    1
     2    16    15    1
     3    15    14    1
     4    41    40    1
     5    39    40   ar
     6    39    37   ar
     7     5     2    1
     8    40    38   ar
     9    14    11    1
    10    37    35   ar
    11    38    36   ar
    12    35    36   ar
    13    35    34    1
    14    24    23    1
    15    49    47   ar
    16     9     8    2
    17    11    10    1
    18    11    12    1
    19     2     1    1
    20     2     3    1
    21    34    31    1
    22     8    10   am
    23     8     7    1
    24     6     3   am
    25     6     7    1
    26     3     4    2
    27    12    13    2
    28    47    46    1
    29    47    48   ar
    30    23    22    1
    31    23    25    1
    32    22    19    1
    33    46    43    1
    34    33    32    2
    35    31    32    1
    36    31    30    1
    37    63    61    1
    38    30    28   am
    39    21    20    2
    40    71    69   ar
    41    61    62    1
    42    61    58    1
    43    20    19    1
    44    20    26   am
    45    19    18    1
    46    28    29    2
    47    28    27    1
    48    43    42    1
    49    43    44    1
    50    53    52    2
    51    26    27    1
    52    69    68    1
    53    69    70   ar
    54    58    57    1
    55    58    59    1
    56    50    44   am
    57    50    51    1
    58    44    45    2
    59    52    57   am
    60    52    51    1
    61    68    65    1
    62    67    66    2
    63    51    54    1
    64    59    60    2
    65    66    65    1
    66    65    64    1
    67    55    54    1
    68    54    56    1
