@<TRIPOS>MOLECULE
tmp/5mdoD00.pdb
 95 91 0 0 0
SMALL
GASTEIGER

@<TRIPOS>ATOM
      1  N          9.0230   65.4430  -10.3330 N.3   186  LEU186     -0.1231
      2  CA         9.4600   64.0620  -10.4850 C.3   186  LEU186      0.1693
      3  C         10.3180   63.6350   -9.2900 C.2   186  LEU186      0.2592
      4  O         11.1680   64.3830   -8.8750 O.2   186  LEU186     -0.2718
      5  CB        10.3100   63.9730  -11.7630 C.3   186  LEU186      0.0284
      6  CG         9.5950   64.5210  -13.0050 C.3   186  LEU186      0.0019
      7  CD1       10.4860   64.4890  -14.2180 C.3   186  LEU186      0.0001
      8  CD2        8.3620   63.7240  -13.2500 C.3   186  LEU186      0.0001
      9  N         10.1390   62.4010   -8.8420 N.am  187  ASP187     -0.1974
     10  CA        10.8370   61.8200   -7.6900 C.3   187  ASP187      0.1709
     11  C         11.4990   60.5000   -8.0780 C.2   187  ASP187      0.2293
     12  O         10.9400   59.7240   -8.8620 O.2   187  ASP187     -0.2864
     13  CB         9.8440   61.5240   -6.5780 C.3   187  ASP187      0.1436
     14  CG         9.0820   62.7910   -6.0730 C.2   187  ASP187      0.3671
     15  OD1        9.8390   63.7350   -5.6710 O.co2 187  ASP187     -0.2456
     16  OD2        7.7990   62.8290   -6.0840 O.co2 187  ASP187     -0.2456
     17  N         10.2210   55.2610   -8.2410 N.3   210  VAL210     -0.1231
     18  CA        10.0430   56.4230   -9.1220 C.3   210  VAL210      0.1692
     19  C          8.6300   56.9680   -8.8950 C.2   210  VAL210      0.2593
     20  O          7.6860   56.1860   -8.6860 O.2   210  VAL210     -0.2718
     21  CB        10.2820   56.1200  -10.6320 C.3   210  VAL210      0.0266
     22  CG1       11.7330   55.7540  -10.8780 C.3   210  VAL210      0.0020
     23  CG2        9.3470   54.9960  -11.1740 C.3   210  VAL210      0.0020
     24  N          8.4690   58.2790   -9.0470 N.am  211  GLY211     -0.1942
     25  CA         7.1980   58.9070   -8.8450 C.3   211  GLY211      0.2014
     26  C          7.0110   60.2570   -9.5180 C.2   211  GLY211      0.2638
     27  O          7.9860   60.8920  -10.0160 O.2   211  GLY211     -0.2714
     28  N          5.7500   60.6690   -9.5600 N.am  212  VAL212     -0.1977
     29  CA         5.3890   61.9680  -10.0330 C.3   212  VAL212      0.1596
     30  C          4.3070   62.5400   -9.0940 C.2   212  VAL212      0.2287
     31  O          3.4840   61.8020   -8.5140 O.2   212  VAL212     -0.2864
     32  CB         4.8690   61.9190  -11.5060 C.3   212  VAL212      0.0276
     33  CG1        3.6520   61.0270  -11.6650 C.3   212  VAL212      0.0022
     34  CG2        4.6030   63.3200  -12.0510 C.3   212  VAL212      0.0022
     35  N          1.5550   59.6040   -8.2590 N.3   224  ALA224     -0.1231
     36  CA         1.6680   58.1940   -8.6220 C.3   224  ALA224      0.1694
     37  C          3.1190   57.7520   -8.3980 C.2   224  ALA224      0.2592
     38  O          4.0320   58.4880   -8.7850 O.2   224  ALA224     -0.2718
     39  CB         1.2250   57.9760  -10.0830 C.3   224  ALA224      0.0304
     40  N          3.2980   56.5630   -7.8490 N.am  225  GLN225     -0.1966
     41  CA         4.5400   55.9690   -7.6450 C.3   225  GLN225      0.1733
     42  C          4.5700   54.5070   -8.0080 C.2   225  GLN225      0.2616
     43  O          3.5570   53.8060   -7.8640 O.2   225  GLN225     -0.2715
     44  CB         4.9800   56.0490   -6.1610 C.3   225  GLN225      0.0408
     45  CG         5.1620   57.4010   -5.6340 C.3   225  GLN225      0.0908
     46  CD         5.6610   57.4070   -4.1640 C.2   225  GLN225      0.2608
     47  OE1        5.8130   56.3550   -3.5090 O.2   225  GLN225     -0.2717
     48  NE2        5.9180   58.6010   -3.6640 N.am  225  GLN225     -0.0878
     49  N          5.7520   54.0550   -8.4100 N.am  226  TYR226     -0.1974
     50  CA         6.0840   52.6290   -8.6290 C.3   226  TYR226      0.1639
     51  C          7.3130   52.2900   -7.7860 C.2   226  TYR226      0.2290
     52  O          8.2920   53.0230   -7.7610 O.2   226  TYR226     -0.2864
     53  CB         6.3740   52.3250  -10.1030 C.3   226  TYR226      0.0560
     54  CG         6.8850   50.9290  -10.3620 C.ar  226  TYR226     -0.0198
     55  CD1        6.0230   49.8490  -10.2830 C.ar  226  TYR226     -0.0009
     56  CD2        8.2040   50.7040  -10.6690 C.ar  226  TYR226     -0.0009
     57  CE1        6.4580   48.5520  -10.4810 C.ar  226  TYR226      0.0417
     58  CE2        8.6850   49.4040  -10.9030 C.ar  226  TYR226      0.0417
     59  CZ         7.8030   48.3460  -10.8100 C.ar  226  TYR226      0.1957
     60  OH         8.2440   47.0810  -11.0340 O.3   226  TYR226     -0.2866
     61  N          7.0060   43.9860   -6.4880 N.3   241  ASP241     -0.1225
     62  CA         6.7700   45.3640   -6.7650 C.3   241  ASP241      0.1805
     63  C          5.3810   45.8630   -6.2880 C.2   241  ASP241      0.2597
     64  O          4.5720   45.1030   -5.7570 O.2   241  ASP241     -0.2718
     65  CB         7.0710   45.7360   -8.2100 C.3   241  ASP241      0.1424
     66  CG         6.3240   44.9170   -9.2410 C.2   241  ASP241      0.3668
     67  OD1        5.4810   44.1050   -8.8620 O.co2 241  ASP241     -0.2456
     68  OD2        6.6390   45.1190  -10.4550 O.co2 241  ASP241     -0.2456
     69  N          5.1790   47.1700   -6.4150 N.am  242  ALA242     -0.1979
     70  CA         4.0580   47.8500   -5.8050 C.3   242  ALA242      0.1597
     71  C          3.8180   49.1960   -6.4810 C.2   242  ALA242      0.2287
     72  O          4.7160   49.7310   -7.1540 O.2   242  ALA242     -0.2864
     73  CB         4.3730   48.0960   -4.3020 C.3   242  ALA242      0.0319
     74  N          1.3280   53.0920   -5.8210 N.3   243  SER243     -0.1202
     75  CA         0.3880   53.8900   -5.0890 C.3   243  SER243      0.2020
     76  C          0.0550   55.0930   -5.9340 C.2   243  SER243      0.2618
     77  O          0.9320   55.6500   -6.6270 O.2   243  SER243     -0.2717
     78  CB         1.0320   54.3560   -3.7510 C.3   243  SER243      0.2103
     79  OG         0.1380   55.1430   -3.0350 O.3   243  SER243     -0.2182
     80  N         -1.1870   55.5230   -5.8990 N.am  244  ALA244     -0.1979
     81  CA        -1.6410   56.6740   -6.6060 C.3   244  ALA244      0.1597
     82  C         -2.7890   57.3820   -5.8750 C.2   244  ALA244      0.2287
     83  O         -3.5510   56.7540   -5.1470 O.2   244  ALA244     -0.2864
     84  CB        -2.1160   56.2760   -8.0260 C.3   244  ALA244      0.0319
     85  N          2.0480   43.7010   -5.6100 N.3   262  PHE262     -0.1241
     86  CA         1.7530   42.6080   -6.5730 C.3   262  PHE262      0.1605
     87  C          2.3050   41.3280   -5.9930 C.2   262  PHE262      0.2264
     88  O          2.9990   41.3740   -4.9530 O.2   262  PHE262     -0.2867
     89  CB         2.3790   42.9620   -7.9440 C.3   262  PHE262      0.0534
     90  CG         1.7680   44.2160   -8.5140 C.ar  262  PHE262     -0.0203
     91  CD1        0.4470   44.1980   -8.9620 C.ar  262  PHE262     -0.0042
     92  CD2        2.4160   45.4390   -8.3820 C.ar  262  PHE262     -0.0042
     93  CE1       -0.1700   45.3690   -9.3960 C.ar  262  PHE262     -0.0003
     94  CE2        1.8360   46.6060   -8.8420 C.ar  262  PHE262     -0.0003
     95  CZ         0.5420   46.5670   -9.3740 C.ar  262  PHE262     -0.0000
@<TRIPOS>BOND
     1     7     6    1
     2     8     6    1
     3     6     5    1
     4    34    32    1
     5     5     2    1
     6    33    32    1
     7    32    29    1
     8    23    21    1
     9    60    59    1
    10    58    59   ar
    11    58    56   ar
    12    22    21    1
    13    59    57   ar
    14    56    54   ar
    15    21    18    1
    16     2     1    1
    17     2     3    1
    18    57    55   ar
    19    68    66   ar
    20    54    55   ar
    21    54    53    1
    22    53    50    1
    23    39    36    1
    24    29    28    1
    25    29    30    1
    26    27    26    2
    27    28    26   am
    28    26    25    1
    29    93    95   ar
    30    93    91   ar
    31    95    94   ar
    32     3     4    2
    33     3     9   am
    34    66    67   ar
    35    66    65    1
    36    18    19    1
    37    18    17    1
    38    30    31    2
    39    24    19   am
    40    24    25    1
    41    91    90   ar
    42    19    20    2
    43    12    11    2
    44    94    92   ar
    45     9    10    1
    46    38    37    2
    47    50    49    1
    48    50    51    1
    49    36    37    1
    50    36    35    1
    51    90    92   ar
    52    90    89    1
    53    49    42   am
    54    37    40   am
    55    65    62    1
    56    11    10    1
    57    84    81    1
    58    42    43    2
    59    42    41    1
    60    89    86    1
    61    40    41    1
    62    51    52    2
    63    10    13    1
    64    41    44    1
    65    72    71    2
    66    62    61    1
    67    62    63    1
    68    77    76    2
    69    81    80    1
    70    81    82    1
    71    13    14    1
    72    86    87    1
    73    86    85    1
    74    71    70    1
    75    69    63   am
    76    69    70    1
    77    63    64    2
    78    44    45    1
    79    16    14   ar
    80    14    15   ar
    81    87    88    2
    82    76    80   am
    83    76    75    1
    84    82    83    2
    85    74    75    1
    86    70    73    1
    87    45    46    1
    88    75    78    1
    89    46    48   am
    90    46    47    2
    91    78    79    1
