@<TRIPOS>MOLECULE
tmp/5mdoC00.pdb
 88 86 0 0 0
SMALL
GASTEIGER

@<TRIPOS>ATOM
      1  N         30.6380   -9.0450   80.7550 N.3   183  PRO183     -0.2116
      2  CA        29.3740   -8.4610   81.0440 C.3   183  PRO183      0.1372
      3  C         29.1430   -7.0610   80.4790 C.2   183  PRO183      0.2244
      4  O         28.1070   -6.4810   80.8140 O.2   183  PRO183     -0.2868
      5  CB        29.4220   -8.4260   82.5610 C.3   183  PRO183      0.0268
      6  CG        30.8460   -8.1600   82.8900 C.3   183  PRO183      0.0207
      7  CD        31.6400   -8.8320   81.8210 C.3   183  PRO183      0.0892
      8  N         28.3860    2.8590   77.4860 N.3   212  VAL212     -0.1245
      9  CA        28.6300    1.5560   78.0640 C.3   212  VAL212      0.1561
     10  C         27.2990    1.0020   78.5740 C.2   212  VAL212      0.2260
     11  O         26.3970    1.7650   79.0220 O.2   212  VAL212     -0.2867
     12  CB        29.6680    1.6200   79.1910 C.3   212  VAL212      0.0252
     13  CG1       29.2220    2.5200   80.3420 C.3   212  VAL212      0.0019
     14  CG2       30.0250    0.2230   79.6810 C.3   212  VAL212      0.0019
     15  N         25.6550   -5.8590   82.3080 N.3   215  TRP215     -0.1227
     16  CA        24.6570   -6.8180   82.8550 C.3   215  TRP215      0.1737
     17  C         25.3960   -7.8050   83.6740 C.2   215  TRP215      0.2595
     18  O         26.2540   -8.5060   83.1420 O.2   215  TRP215     -0.2718
     19  CB        23.9310   -7.5650   81.7270 C.3   215  TRP215      0.0564
     20  CG        23.2880   -6.7860   80.7150 C.ar  215  TRP215      0.0003
     21  CD1       21.9370   -6.4230   80.6820 C.ar  215  TRP215      0.0946
     22  CD2       23.8670   -6.2560   79.4910 C.ar  215  TRP215      0.0152
     23  NE1       21.6600   -5.6720   79.5400 N.ar  215  TRP215     -0.2442
     24  CE2       22.8310   -5.5690   78.7920 C.ar  215  TRP215      0.0810
     25  CE3       25.1580   -6.2800   78.9160 C.ar  215  TRP215      0.0012
     26  CZ2       23.0610   -4.9430   77.5550 C.ar  215  TRP215      0.0191
     27  CZ3       25.3570   -5.6440   77.7100 C.ar  215  TRP215      0.0001
     28  CH2       24.3230   -5.0250   77.0280 C.ar  215  TRP215      0.0015
     29  N         25.1850   -7.8040   84.9830 N.am  216  PHE216     -0.1962
     30  CA        25.8630   -8.7070   85.8330 C.3   216  PHE216      0.1771
     31  C         24.9260   -9.7800   86.3570 C.2   216  PHE216      0.2619
     32  O         23.7340   -9.5350   86.5520 O.2   216  PHE216     -0.2715
     33  CB        26.5300   -7.9340   87.0060 C.3   216  PHE216      0.0574
     34  CG        27.6610   -7.0790   86.5390 C.ar  216  PHE216     -0.0200
     35  CD1       27.4440   -5.8350   85.9830 C.ar  216  PHE216     -0.0042
     36  CD2       28.9840   -7.5630   86.6100 C.ar  216  PHE216     -0.0042
     37  CE1       28.5020   -5.0790   85.4700 C.ar  216  PHE216     -0.0003
     38  CE2       30.0690   -6.7920   86.1140 C.ar  216  PHE216     -0.0003
     39  CZ        29.7980   -5.5470   85.5240 C.ar  216  PHE216     -0.0000
     40  N         25.5210  -10.8970   86.7590 N.am  217  GLU217     -0.1963
     41  CA        24.7750  -12.0490   87.1830 C.3   217  GLU217      0.1733
     42  C         24.0960  -11.8830   88.5300 C.2   217  GLU217      0.2616
     43  O         23.1650  -12.6010   88.7900 O.2   217  GLU217     -0.2715
     44  CB        25.6830  -13.2730   87.2640 C.3   217  GLU217      0.0429
     45  CG        25.4820  -14.1860   86.0770 C.3   217  GLU217      0.1163
     46  CD        26.5130  -15.3080   86.0060 C.2   217  GLU217      0.3649
     47  OE1       26.8070  -16.0160   87.0200 O.co2 217  GLU217     -0.2457
     48  OE2       27.0590  -15.4190   84.9040 O.co2 217  GLU217     -0.2457
     49  N         24.5700  -10.9950   89.4120 N.am  218  ASN218     -0.1972
     50  CA        23.8720  -10.7090   90.6350 C.3   218  ASN218      0.1688
     51  C         22.5470   -9.8650   90.4770 C.2   218  ASN218      0.2292
     52  O         22.0580   -9.3480   91.4790 O.2   218  ASN218     -0.2864
     53  CB        24.8000  -10.0030   91.6110 C.3   218  ASN218      0.1181
     54  CG        25.2980   -8.6430   91.0880 C.2   218  ASN218      0.2629
     55  OD1       24.8830   -8.1040   90.0680 O.2   218  ASN218     -0.2716
     56  ND2       26.2110   -8.0640   91.8650 N.am  218  ASN218     -0.0877
     57  N         22.3700   -6.7910   88.9350 N.3   220  ILE220     -0.1245
     58  CA        22.6390   -5.3810   88.6510 C.3   220  ILE220      0.1561
     59  C         22.9440   -5.1920   87.1770 C.2   220  ILE220      0.2260
     60  O         23.7560   -5.9440   86.6110 O.2   220  ILE220     -0.2867
     61  CB        23.7700   -4.7920   89.5290 C.3   220  ILE220      0.0252
     62  CG1       23.2980   -4.8030   90.9740 C.3   220  ILE220      0.0019
     63  CG2       24.1090   -3.3610   89.0590 C.3   220  ILE220      0.0019
     64  CD1       24.3640   -4.6180   91.9620 C.3   220  ILE220      0.0001
     65  N         23.1910   -1.7010   84.0950 N.3   222  PHE222     -0.1241
     66  CA        23.2820   -0.2570   83.9670 C.3   222  PHE222      0.1605
     67  C         23.6480    0.1410   82.5680 C.2   222  PHE222      0.2264
     68  O         24.0140   -0.6620   81.7520 O.2   222  PHE222     -0.2867
     69  CB        24.3230    0.3120   84.9570 C.3   222  PHE222      0.0534
     70  CG        25.7260    0.0880   84.4890 C.ar  222  PHE222     -0.0203
     71  CD1       26.3800   -1.1030   84.7130 C.ar  222  PHE222     -0.0042
     72  CD2       26.3850    1.0890   83.8190 C.ar  222  PHE222     -0.0042
     73  CE1       27.7220   -1.2970   84.2670 C.ar  222  PHE222     -0.0003
     74  CE2       27.6710    0.9060   83.3680 C.ar  222  PHE222     -0.0003
     75  CZ        28.3190   -0.2970   83.5520 C.ar  222  PHE222     -0.0000
     76  N         25.3100    3.9850   80.6140 N.3   224  ALA224     -0.1245
     77  CA        25.6760    5.3790   80.6720 C.3   224  ALA224      0.1562
     78  C         26.1510    5.8070   79.2830 C.2   224  ALA224      0.2260
     79  O         26.9210    5.0750   78.6480 O.2   224  ALA224     -0.2867
     80  CB        26.7800    5.5810   81.7520 C.3   224  ALA224      0.0290
     81  N         20.2740    2.7650   86.1350 N.3   246  LEU246     -0.1245
     82  CA        20.6760    1.7170   87.0170 C.3   246  LEU246      0.1561
     83  C         19.4870    0.8130   87.2560 C.2   246  LEU246      0.2260
     84  O         18.4040    1.2990   87.5920 O.2   246  LEU246     -0.2867
     85  CB        21.1160    2.3220   88.3560 C.3   246  LEU246      0.0270
     86  CG        21.5840    1.3250   89.4050 C.3   246  LEU246      0.0019
     87  CD1       22.8500    0.5920   88.9120 C.3   246  LEU246      0.0001
     88  CD2       21.9430    2.0300   90.7140 C.3   246  LEU246      0.0001
@<TRIPOS>BOND
     1    28    26   ar
     2    28    27   ar
     3     8     9    1
     4    26    24   ar
     5    27    25   ar
     6     9    10    1
     7     9    12    1
     8    10    11    2
     9    79    78    2
    10    24    22   ar
    11    24    23   ar
    12    25    22   ar
    13    12    14    1
    14    12    13    1
    15    78    77    1
    16    22    20   ar
    17    23    21   ar
    18     3     4    2
    19     3     2    1
    20    76    77    1
    21    77    80    1
    22    21    20   ar
    23    20    19    1
    24     1     2    1
    25     1     7    1
    26     2     5    1
    27    19    16    1
    28    68    67    2
    29     7     6    1
    30    15    16    1
    31     5     6    1
    32    67    66    1
    33    16    17    1
    34    18    17    2
    35    74    75   ar
    36    74    72   ar
    37    75    73   ar
    38    17    29   am
    39    72    70   ar
    40    66    65    1
    41    66    69    1
    42    73    71   ar
    43    70    71   ar
    44    70    69    1
    45    48    46   ar
    46    29    30    1
    47    37    39   ar
    48    37    35   ar
    49    39    38   ar
    50    30    31    1
    51    30    33    1
    52    35    34   ar
    53    46    45    1
    54    46    47   ar
    55    45    44    1
    56    38    36   ar
    57    81    82    1
    58    31    32    2
    59    31    40   am
    60    34    36   ar
    61    34    33    1
    62    60    59    2
    63    40    41    1
    64    82    83    1
    65    82    85    1
    66    59    58    1
    67    41    44    1
    68    41    42    1
    69    83    84    2
    70    85    86    1
    71    42    43    2
    72    42    49   am
    73    58    57    1
    74    58    61    1
    75    87    86    1
    76    63    61    1
    77    86    88    1
    78    49    50    1
    79    61    62    1
    80    55    54    2
    81    51    50    1
    82    51    52    2
    83    50    53    1
    84    62    64    1
    85    54    53    1
    86    54    56   am
