@<TRIPOS>MOLECULE
tmp/5mdoE01.pdb
 76 73 0 0 0
SMALL
GASTEIGER

@<TRIPOS>ATOM
      1  N         40.2240   70.4320   47.6480 N.3   186  LEU186     -0.1231
      2  CA        40.3550   69.1140   48.2230 C.3   186  LEU186      0.1693
      3  C         38.9810   68.5410   48.4360 C.2   186  LEU186      0.2592
      4  O         38.1030   69.2640   48.8840 O.2   186  LEU186     -0.2718
      5  CB        41.0840   69.2120   49.6080 C.3   186  LEU186      0.0284
      6  CG        42.4420   69.8980   49.5700 C.3   186  LEU186      0.0019
      7  CD1       43.0280   69.9600   50.9790 C.3   186  LEU186      0.0001
      8  CD2       43.3750   69.0980   48.6860 C.3   186  LEU186      0.0001
      9  N         38.8000   67.2490   48.1130 N.am  187  ASP187     -0.1960
     10  CA        37.5340   66.5880   48.2060 C.3   187  ASP187      0.1840
     11  C         37.6710   65.3340   49.0760 C.2   187  ASP187      0.2621
     12  O         38.6970   64.6510   49.0230 O.2   187  ASP187     -0.2715
     13  CB        37.0750   66.1320   46.7900 C.3   187  ASP187      0.1450
     14  CG        36.9060   67.3050   45.8050 C.2   187  ASP187      0.3671
     15  OD1       36.0970   68.2160   46.1790 O.co2 187  ASP187     -0.2456
     16  OD2       37.5660   67.3550   44.6900 O.co2 187  ASP187     -0.2456
     17  N         36.6120   65.0170   49.8250 N.am  188  ALA188     -0.1977
     18  CA        36.5130   63.7470   50.4780 C.3   188  ALA188      0.1597
     19  C         35.0290   63.2920   50.4670 C.2   188  ALA188      0.2287
     20  O         34.1570   64.1370   50.5670 O.2   188  ALA188     -0.2864
     21  CB        37.0140   63.8720   51.9000 C.3   188  ALA188      0.0319
     22  N         39.0360   60.1580   48.4390 N.3   210  VAL210     -0.1231
     23  CA        39.7600   61.4070   48.6480 C.3   210  VAL210      0.1692
     24  C         40.2460   61.8790   47.3060 C.2   210  VAL210      0.2593
     25  O         40.5890   61.0710   46.4170 O.2   210  VAL210     -0.2718
     26  CB        41.0170   61.3070   49.6450 C.3   210  VAL210      0.0266
     27  CG1       40.5010   60.9850   51.0210 C.3   210  VAL210      0.0020
     28  CG2       42.0150   60.2330   49.1970 C.3   210  VAL210      0.0020
     29  N         40.2790   63.2010   47.1420 N.am  211  GLY211     -0.1942
     30  CA        40.6560   63.7700   45.8510 C.3   211  GLY211      0.2014
     31  C         41.1700   65.1790   45.9110 C.2   211  GLY211      0.2638
     32  O         41.0320   65.8800   46.9420 O.2   211  GLY211     -0.2714
     33  N         41.7630   65.5770   44.7930 N.am  212  VAL212     -0.1977
     34  CA        42.2480   66.9250   44.6010 C.3   212  VAL212      0.1596
     35  C         41.8730   67.3560   43.1720 C.2   212  VAL212      0.2287
     36  O         41.8860   66.5410   42.2590 O.2   212  VAL212     -0.2864
     37  CB        43.7200   67.0300   44.9050 C.3   212  VAL212      0.0276
     38  CG1       44.5640   66.1360   43.9900 C.3   212  VAL212      0.0022
     39  CG2       44.2100   68.5030   44.8530 C.3   212  VAL212      0.0022
     40  N         42.9190   64.3450   40.6360 N.3   224  ALA224     -0.1231
     41  CA        43.3350   62.9840   41.0070 C.3   224  ALA224      0.1694
     42  C         42.4840   62.5160   42.1820 C.2   224  ALA224      0.2592
     43  O         42.2230   63.2950   43.0980 O.2   224  ALA224     -0.2718
     44  CB        44.8090   62.9370   41.3550 C.3   224  ALA224      0.0304
     45  N         42.0440   61.2660   42.1360 N.am  225  GLN225     -0.1966
     46  CA        41.2110   60.6820   43.1990 C.3   225  GLN225      0.1733
     47  C         41.6800   59.2690   43.5080 C.2   225  GLN225      0.2616
     48  O         42.1700   58.5630   42.5910 O.2   225  GLN225     -0.2715
     49  CB        39.7720   60.5600   42.8250 C.3   225  GLN225      0.0408
     50  CG        39.0550   61.8440   42.6040 C.3   225  GLN225      0.0908
     51  CD        37.5470   61.6620   42.2870 C.2   225  GLN225      0.2608
     52  OE1       37.0300   60.5560   42.1940 O.2   225  GLN225     -0.2717
     53  NE2       36.8540   62.7950   42.2000 N.am  225  GLN225     -0.0878
     54  N         41.5410   58.8890   44.7910 N.am  226  TYR226     -0.1974
     55  CA        41.7020   57.5200   45.2640 C.3   226  TYR226      0.1639
     56  C         40.3970   57.0790   45.9170 C.2   226  TYR226      0.2290
     57  O         39.8030   57.8260   46.7060 O.2   226  TYR226     -0.2864
     58  CB        42.8860   57.4280   46.2430 C.3   226  TYR226      0.0560
     59  CG        42.9900   56.1040   46.8730 C.ar  226  TYR226     -0.0198
     60  CD1       43.4800   55.0180   46.1840 C.ar  226  TYR226     -0.0009
     61  CD2       42.5980   55.9190   48.2120 C.ar  226  TYR226     -0.0009
     62  CE1       43.5440   53.7610   46.7680 C.ar  226  TYR226      0.0417
     63  CE2       42.7160   54.6780   48.8370 C.ar  226  TYR226      0.0417
     64  CZ        43.1520   53.5960   48.0900 C.ar  226  TYR226      0.1957
     65  OH        43.2350   52.3770   48.7150 O.3   226  TYR226     -0.2866
     66  N         41.6640   57.5770   39.6960 N.3   243  SER243     -0.1202
     67  CA        41.3630   58.2620   38.4670 C.3   243  SER243      0.2020
     68  C         42.0970   59.5850   38.4950 C.2   243  SER243      0.2618
     69  O         42.2420   60.1910   39.5600 O.2   243  SER243     -0.2717
     70  CB        39.8520   58.5310   38.3520 C.3   243  SER243      0.2103
     71  OG        39.5900   59.2110   37.1370 O.3   243  SER243     -0.2182
     72  N         42.6550   59.9680   37.3470 N.am  244  ALA244     -0.1979
     73  CA        43.4020   61.1960   37.2400 C.3   244  ALA244      0.1597
     74  C         43.2630   61.7800   35.8380 C.2   244  ALA244      0.2287
     75  O         43.0680   61.0540   34.8740 O.2   244  ALA244     -0.2864
     76  CB        44.8790   60.9940   37.5950 C.3   244  ALA244      0.0319
@<TRIPOS>BOND
     1    75    74    2
     2    74    73    1
     3    71    70    1
     4    73    72    1
     5    73    76    1
     6    72    68   am
     7    70    67    1
     8    67    68    1
     9    67    66    1
    10    68    69    2
    11    40    41    1
    12    41    44    1
    13    41    42    1
    14    45    42   am
    15    45    46    1
    16    42    43    2
    17    52    51    2
    18    53    51   am
    19    36    35    2
    20    51    50    1
    21    48    47    2
    22    50    49    1
    23    49    46    1
    24    35    34    1
    25    46    47    1
    26    47    54   am
    27    38    37    1
    28    34    33    1
    29    34    37    1
    30    16    14   ar
    31    54    55    1
    32    33    31   am
    33    39    37    1
    34    55    56    1
    35    55    58    1
    36    14    15   ar
    37    14    13    1
    38    30    31    1
    39    30    29    1
    40    31    32    2
    41    56    57    2
    42    60    62   ar
    43    60    59   ar
    44    58    59    1
    45    25    24    2
    46    62    64   ar
    47    13    10    1
    48    59    61   ar
    49    29    24   am
    50    24    23    1
    51     1     2    1
    52    64    65    1
    53    64    63   ar
    54     9    10    1
    55     9     3   am
    56    10    11    1
    57    61    63   ar
    58     2     3    1
    59     2     5    1
    60     3     4    2
    61    22    23    1
    62    23    26    1
    63     8     6    1
    64    12    11    2
    65    11    17   am
    66    28    26    1
    67     6     5    1
    68     6     7    1
    69    26    27    1
    70    17    18    1
    71    19    18    1
    72    19    20    2
    73    18    21    1
