@<TRIPOS>MOLECULE
tmp/5mdrA01.pdb
 76 73 0 0 0
SMALL
GASTEIGER

@<TRIPOS>ATOM
      1  N         -5.9770   -6.9910   20.2110 N.3   186  LEU186     -0.1231
      2  CA        -6.4340   -5.6670   19.8210 C.3   186  LEU186      0.1693
      3  C         -7.2580   -5.0790   20.9480 C.2   186  LEU186      0.2592
      4  O         -8.0730   -5.7810   21.5260 O.2   186  LEU186     -0.2718
      5  CB        -7.2770   -5.7500   18.5510 C.3   186  LEU186      0.0284
      6  CG        -6.5770   -6.4350   17.3670 C.3   186  LEU186      0.0019
      7  CD1       -7.5290   -6.5670   16.2080 C.3   186  LEU186      0.0001
      8  CD2       -5.3300   -5.6610   16.9570 C.3   186  LEU186      0.0001
      9  N         -7.0210   -3.8040   21.2560 N.am  187  ASP187     -0.1960
     10  CA        -7.6630   -3.1110   22.3510 C.3   187  ASP187      0.1840
     11  C         -8.3660   -1.8590   21.8310 C.2   187  ASP187      0.2621
     12  O         -7.8510   -1.1760   20.9450 O.2   187  ASP187     -0.2715
     13  CB        -6.6180   -2.6880   23.3950 C.3   187  ASP187      0.1450
     14  CG        -5.8880   -3.8910   24.0340 C.2   187  ASP187      0.3671
     15  OD1       -6.6110   -4.7680   24.5740 O.co2 187  ASP187     -0.2456
     16  OD2       -4.6180   -3.9280   24.0180 O.co2 187  ASP187     -0.2456
     17  N         -9.5130   -1.5420   22.4200 N.am  188  ALA188     -0.1977
     18  CA       -10.1690   -0.2750   22.1840 C.3   188  ALA188      0.1597
     19  C        -10.8470    0.1710   23.4480 C.2   188  ALA188      0.2287
     20  O        -11.3100   -0.6620   24.2400 O.2   188  ALA188     -0.2864
     21  CB       -11.1710   -0.4150   21.0560 C.3   188  ALA188      0.0319
     22  N         -7.1170    3.2710   20.8650 N.3   210  VAL210     -0.1231
     23  CA        -6.9720    2.0210   20.1390 C.3   210  VAL210      0.1692
     24  C         -5.5460    1.5280   20.3160 C.2   210  VAL210      0.2593
     25  O         -4.6100    2.3160   20.4900 O.2   210  VAL210     -0.2718
     26  CB        -7.2840    2.1350   18.6150 C.3   210  VAL210      0.0266
     27  CG1       -8.7460    2.4580   18.4120 C.3   210  VAL210      0.0020
     28  CG2       -6.3950    3.1650   17.9320 C.3   210  VAL210      0.0020
     29  N         -5.3910    0.2180   20.3780 N.am  211  GLY211     -0.1942
     30  CA        -4.0880   -0.3680   20.7030 C.3   211  GLY211      0.2014
     31  C         -3.9100   -1.7780   20.2310 C.2   211  GLY211      0.2638
     32  O         -4.8780   -2.4690   19.8770 O.2   211  GLY211     -0.2714
     33  N         -2.6470   -2.1930   20.2330 N.am  212  VAL212     -0.1977
     34  CA        -2.2810   -3.5470   19.8920 C.3   212  VAL212      0.1596
     35  C         -1.1910   -4.0060   20.8470 C.2   212  VAL212      0.2287
     36  O         -0.3950   -3.1890   21.3190 O.2   212  VAL212     -0.2864
     37  CB        -1.8390   -3.6710   18.4180 C.3   212  VAL212      0.0276
     38  CG1       -0.6470   -2.7800   18.0870 C.3   212  VAL212      0.0022
     39  CG2       -1.5660   -5.1320   18.0490 C.3   212  VAL212      0.0022
     40  N          1.5680   -0.9420   21.1450 N.3   224  ALA224     -0.1231
     41  CA         1.4340    0.3970   20.5840 C.3   224  ALA224      0.1694
     42  C          0.0020    0.8660   20.7730 C.2   224  ALA224      0.2592
     43  O         -0.9380    0.0860   20.5990 O.2   224  ALA224     -0.2718
     44  CB         1.7960    0.4060   19.1050 C.3   224  ALA224      0.0304
     45  N         -0.1510    2.1240   21.1500 N.am  225  GLN225     -0.1966
     46  CA        -1.4570    2.7280   21.3550 C.3   225  GLN225      0.1733
     47  C         -1.4950    4.1240   20.7930 C.2   225  GLN225      0.2616
     48  O         -0.4830    4.8100   20.7810 O.2   225  GLN225     -0.2715
     49  CB        -1.8160    2.8430   22.8290 C.3   225  GLN225      0.0408
     50  CG        -2.0240    1.5450   23.5410 C.3   225  GLN225      0.0908
     51  CD        -2.4660    1.7280   24.9980 C.2   225  GLN225      0.2608
     52  OE1       -2.5870    2.8490   25.5170 O.2   225  GLN225     -0.2717
     53  NE2       -2.7130    0.6050   25.6610 N.am  225  GLN225     -0.0878
     54  N         -2.6980    4.5100   20.3590 N.am  226  TYR226     -0.1974
     55  CA        -3.0500    5.8740   19.9820 C.3   226  TYR226      0.1639
     56  C         -4.2410    6.3080   20.8120 C.2   226  TYR226      0.2290
     57  O         -5.1960    5.5480   21.0150 O.2   226  TYR226     -0.2864
     58  CB        -3.3770    5.9370   18.4850 C.3   226  TYR226      0.0560
     59  CG        -3.8910    7.2820   18.0830 C.ar  226  TYR226     -0.0198
     60  CD1       -3.0270    8.3810   17.9900 C.ar  226  TYR226     -0.0009
     61  CD2       -5.2430    7.4760   17.7960 C.ar  226  TYR226     -0.0009
     62  CE1       -3.5120    9.6490   17.6590 C.ar  226  TYR226      0.0417
     63  CE2       -5.7430    8.7310   17.4460 C.ar  226  TYR226      0.0417
     64  CZ        -4.8790    9.8110   17.4050 C.ar  226  TYR226      0.1957
     65  OH        -5.3930   11.0130   17.0450 O.3   226  TYR226     -0.2866
     66  N          1.8190    5.7740   22.6030 N.3   243  SER243     -0.1202
     67  CA         2.7720    5.0900   23.4240 C.3   243  SER243      0.2020
     68  C          3.1140    3.7880   22.7390 C.2   243  SER243      0.2618
     69  O          2.2420    3.1590   22.1180 O.2   243  SER243     -0.2717
     70  CB         2.1690    4.8430   24.8190 C.3   243  SER243      0.2103
     71  OG         3.1100    4.1370   25.6170 O.3   243  SER243     -0.2182
     72  N          4.3830    3.3930   22.8110 N.am  244  ALA244     -0.1979
     73  CA         4.8150    2.1410   22.2320 C.3   244  ALA244      0.1597
     74  C          5.9480    1.5550   23.0480 C.2   244  ALA244      0.2287
     75  O          6.6950    2.2780   23.6950 O.2   244  ALA244     -0.2864
     76  CB         5.2530    2.3330   20.7710 C.3   244  ALA244      0.0319
@<TRIPOS>BOND
     1     7     6    1
     2     8     6    1
     3    65    64    1
     4     6     5    1
     5    64    63   ar
     6    64    62   ar
     7    63    61   ar
     8    62    60   ar
     9    61    59   ar
    10    28    26    1
    11    60    59   ar
    12    39    37    1
    13    59    58    1
    14    38    37    1
    15    27    26    1
    16    37    34    1
    17    58    55    1
    18     5     2    1
    19    26    23    1
    20    44    41    1
    21     2     1    1
    22     2     3    1
    23    32    31    2
    24    34    33    1
    25    34    35    1
    26    55    54    1
    27    55    56    1
    28    23    24    1
    29    23    22    1
    30    31    33   am
    31    31    30    1
    32    24    29   am
    33    24    25    2
    34    54    47   am
    35    29    30    1
    36    41    42    1
    37    41    40    1
    38    43    42    2
    39    76    73    1
    40    42    45   am
    41    48    47    2
    42    47    46    1
    43    56    57    2
    44    35    36    2
    45    12    11    2
    46     3     9   am
    47     3     4    2
    48    21    18    1
    49    45    46    1
    50     9    10    1
    51    46    49    1
    52    11    10    1
    53    11    17   am
    54    69    68    2
    55    18    17    1
    56    18    19    1
    57    73    72    1
    58    73    74    1
    59    10    13    1
    60    66    67    1
    61    68    72   am
    62    68    67    1
    63    49    50    1
    64    74    75    2
    65    13    14    1
    66    67    70    1
    67    19    20    2
    68    50    51    1
    69    16    14   ar
    70    14    15   ar
    71    70    71    1
    72    51    52    2
    73    51    53   am
