@<TRIPOS>MOLECULE
tmp/5mdrA03.pdb
 94 91 0 0 0
SMALL
GASTEIGER

@<TRIPOS>ATOM
      1  N          8.5430    4.4260   24.5140 N.3   258  TYR258     -0.1241
      2  CA         8.4350    5.7920   24.0440 C.3   258  TYR258      0.1605
      3  C          6.9880    6.2190   24.1070 C.2   258  TYR258      0.2264
      4  O          6.1030    5.4540   23.7140 O.2   258  TYR258     -0.2867
      5  CB         8.9430    5.9320   22.5820 C.3   258  TYR258      0.0534
      6  CG         8.8060    7.3480   22.0700 C.ar  258  TYR258     -0.0201
      7  CD1        9.7460    8.3190   22.4020 C.ar  258  TYR258     -0.0009
      8  CD2        7.6990    7.7440   21.3050 C.ar  258  TYR258     -0.0009
      9  CE1        9.6360    9.6260   21.9620 C.ar  258  TYR258      0.0417
     10  CE2        7.5600    9.0650   20.8760 C.ar  258  TYR258      0.0417
     11  CZ         8.5440   10.0010   21.2020 C.ar  258  TYR258      0.1957
     12  OH         8.4200   11.3110   20.7740 O.3   258  TYR258     -0.2866
     13  N          4.4270    9.9650   23.6530 N.3   260  ALA260     -0.1231
     14  CA         4.3500   11.3950   23.3170 C.3   260  ALA260      0.1694
     15  C          2.9420   11.9200   23.4040 C.2   260  ALA260      0.2592
     16  O          1.9930   11.1930   23.1020 O.2   260  ALA260     -0.2718
     17  CB         4.9170   11.6670   21.9380 C.3   260  ALA260      0.0304
     18  N          2.8040   13.1580   23.8810 N.am  261  ASN261     -0.1960
     19  CA         1.6020   13.9470   23.6980 C.3   261  ASN261      0.1819
     20  C          1.9070   14.9660   22.6340 C.2   261  ASN261      0.2621
     21  O          2.9690   15.5930   22.6850 O.2   261  ASN261     -0.2715
     22  CB         1.2150   14.6840   24.9910 C.3   261  ASN261      0.1195
     23  CG         0.8560   13.7310   26.1200 C.2   261  ASN261      0.2630
     24  OD1        0.1200   12.7590   25.9140 O.2   261  ASN261     -0.2716
     25  ND2        1.3620   14.0100   27.3220 N.am  261  ASN261     -0.0877
     26  N          1.0270   15.1030   21.6340 N.am  262  PHE262     -0.1974
     27  CA         1.2550   16.0380   20.5460 C.3   262  PHE262      0.1639
     28  C          0.7410   17.4010   20.9780 C.2   262  PHE262      0.2290
     29  O          0.1210   17.5160   22.0160 O.2   262  PHE262     -0.2864
     30  CB         0.6280   15.5240   19.2390 C.3   262  PHE262      0.0560
     31  CG         1.2120   14.2120   18.8090 C.ar  262  PHE262     -0.0200
     32  CD1        2.4590   14.1780   18.2070 C.ar  262  PHE262     -0.0042
     33  CD2        0.5690   13.0080   19.0770 C.ar  262  PHE262     -0.0042
     34  CE1        3.0600   12.9680   17.8600 C.ar  262  PHE262     -0.0003
     35  CE2        1.1600   11.7880   18.7300 C.ar  262  PHE262     -0.0003
     36  CZ         2.4020   11.7700   18.1200 C.ar  262  PHE262     -0.0000
     37  N          4.4950   24.2870   21.2670 N.3   273  ASN273     -0.1240
     38  CA         5.3120   23.7570   22.3360 C.3   273  ASN273      0.1653
     39  C          4.5130   23.2280   23.5090 C.2   273  ASN273      0.2266
     40  O          4.9290   23.3490   24.6630 O.2   273  ASN273     -0.2867
     41  CB         6.3290   24.7980   22.7670 C.3   273  ASN273      0.1155
     42  CG         7.2280   25.2170   21.6320 C.2   273  ASN273      0.2627
     43  OD1        7.5790   24.4330   20.7640 O.2   273  ASN273     -0.2716
     44  ND2        7.5770   26.4730   21.6130 N.am  273  ASN273     -0.0877
     45  N          3.5750   19.9460   23.4480 N.3   275  SER275     -0.1202
     46  CA         3.8300   18.5160   23.4000 C.3   275  SER275      0.2020
     47  C          4.7290   18.0570   24.5690 C.2   275  SER275      0.2619
     48  O          5.4480   18.8610   25.1600 O.2   275  SER275     -0.2717
     49  CB         4.5170   18.1670   22.0630 C.3   275  SER275      0.2103
     50  OG         5.7670   18.8410   21.9300 O.3   275  SER275     -0.2182
     51  N          4.7390   16.7580   24.7990 N.am  276  ASP276     -0.1959
     52  CA         5.6680   16.1030   25.7320 C.3   276  ASP276      0.1840
     53  C          6.1760   14.8260   25.0810 C.2   276  ASP276      0.2622
     54  O          5.4490   14.1890   24.3050 O.2   276  ASP276     -0.2715
     55  CB         4.9560   15.6140   27.0110 C.3   276  ASP276      0.1450
     56  CG         4.0600   16.6690   27.6940 C.2   276  ASP276      0.3671
     57  OD1        4.5590   17.7230   28.1260 O.co2 276  ASP276     -0.2456
     58  OD2        2.8520   16.3940   27.8540 O.co2 276  ASP276     -0.2456
     59  N          7.3650   14.3900   25.4500 N.am  277  ASP277     -0.1971
     60  CA         7.7010   12.9940   25.2270 C.3   277  ASP277      0.1709
     61  C          8.6660   12.4040   26.2420 C.2   277  ASP277      0.2293
     62  O          9.2560   13.1210   27.0680 O.2   277  ASP277     -0.2864
     63  CB         8.1300   12.6980   23.7520 C.3   277  ASP277      0.1436
     64  CG         9.4820   13.2230   23.3730 C.2   277  ASP277      0.3671
     65  OD1       10.2270   13.8370   24.1780 O.co2 277  ASP277     -0.2456
     66  OD2        9.8390   12.9790   22.1940 O.co2 277  ASP277     -0.2456
     67  N         10.8880   14.9650   28.4090 N.3   299  ASP299     -0.1225
     68  CA        10.9760   16.2950   27.8200 C.3   299  ASP299      0.1805
     69  C          9.5510   16.8240   27.7190 C.2   299  ASP299      0.2597
     70  O          8.7930   16.4460   26.8180 O.2   299  ASP299     -0.2718
     71  CB        11.6390   16.2210   26.4380 C.3   299  ASP299      0.1424
     72  CG        11.8050   17.5710   25.7870 C.2   299  ASP299      0.3668
     73  OD1       11.5280   18.6180   26.4220 O.co2 299  ASP299     -0.2456
     74  OD2       12.2020   17.5870   24.5910 O.co2 299  ASP299     -0.2456
     75  N          9.2020   17.7170   28.6360 N.am  300  PHE300     -0.1976
     76  CA         7.8500   18.2070   28.7410 C.3   300  PHE300      0.1639
     77  C          7.6090   19.5030   27.9830 C.2   300  PHE300      0.2290
     78  O          8.5200   20.2060   27.5830 O.2   300  PHE300     -0.2864
     79  CB         7.4470   18.4210   30.2220 C.3   300  PHE300      0.0560
     80  CG         7.5410   17.1810   31.0850 C.ar  300  PHE300     -0.0200
     81  CD1        6.6370   16.1470   30.9460 C.ar  300  PHE300     -0.0042
     82  CD2        8.4870   17.0950   32.1090 C.ar  300  PHE300     -0.0042
     83  CE1        6.7180   15.0110   31.7570 C.ar  300  PHE300     -0.0003
     84  CE2        8.5880   15.9740   32.9170 C.ar  300  PHE300     -0.0003
     85  CZ         7.6860   14.9380   32.7710 C.ar  300  PHE300     -0.0000
     86  N          6.2930   23.4090   27.2710 N.3   302  GLU302     -0.1245
     87  CA         6.7700   24.6870   27.8040 C.3   302  GLU302      0.1567
     88  C          5.6690   25.5620   28.4420 C.2   302  GLU302      0.2260
     89  O          5.8890   26.7370   28.6840 O.2   302  GLU302     -0.2867
     90  CB         7.5500   25.4280   26.7190 C.3   302  GLU302      0.0388
     91  CG         8.8770   24.7120   26.4960 C.3   302  GLU302      0.1160
     92  CD         9.6680   25.1630   25.3060 C.2   302  GLU302      0.3649
     93  OE1        9.2990   26.1480   24.6220 O.co2 302  GLU302     -0.2457
     94  OE2       10.6910   24.4840   25.0630 O.co2 302  GLU302     -0.2457
@<TRIPOS>BOND
     1    34    36   ar
     2    34    32   ar
     3    36    35   ar
     4    32    31   ar
     5    35    33   ar
     6    31    33   ar
     7    31    30    1
     8    30    27    1
     9    27    28    1
    10    27    26    1
    11    43    42    2
    12    12    11    1
    13    10    11   ar
    14    10     8   ar
    15    28    29    2
    16    11     9   ar
    17    37    38    1
    18     8     6   ar
    19    44    42   am
    20    42    41    1
    21    26    20   am
    22    50    49    1
    23    17    14    1
    24     9     7   ar
    25    49    46    1
    26     6     7   ar
    27     6     5    1
    28    66    64   ar
    29    38    41    1
    30    38    39    1
    31     5     2    1
    32    20    21    2
    33    20    19    1
    34    16    15    2
    35    14    15    1
    36    14    13    1
    37    64    63    1
    38    64    65   ar
    39    46    45    1
    40    46    47    1
    41    15    18   am
    42    39    40    2
    43    19    18    1
    44    19    22    1
    45     4     3    2
    46    63    60    1
    47     2     3    1
    48     2     1    1
    49    54    53    2
    50    47    51   am
    51    47    48    2
    52    74    72   ar
    53    93    92   ar
    54    51    52    1
    55    22    23    1
    56    94    92   ar
    57    53    59   am
    58    53    52    1
    59    60    59    1
    60    60    61    1
    61    92    91    1
    62    52    55    1
    63    72    73   ar
    64    72    71    1
    65    24    23    2
    66    23    25   am
    67    61    62    2
    68    71    68    1
    69    91    90    1
    70    90    87    1
    71    70    69    2
    72    55    56    1
    73    86    87    1
    74    78    77    2
    75    56    58   ar
    76    56    57   ar
    77    69    68    1
    78    69    75   am
    79    87    88    1
    80    68    67    1
    81    77    76    1
    82    88    89    2
    83    75    76    1
    84    76    79    1
    85    79    80    1
    86    81    80   ar
    87    81    83   ar
    88    80    82   ar
    89    83    85   ar
    90    82    84   ar
    91    85    84   ar
