@<TRIPOS>MOLECULE
tmp/5mdrF00.pdb
 93 89 0 0 0
SMALL
GASTEIGER

@<TRIPOS>ATOM
      1  N        -25.3090   72.7580   50.0500 N.3   184  LEU184     -0.1245
      2  CA       -25.1050   71.3700   49.7000 C.3   184  LEU184      0.1561
      3  C        -24.9430   71.1750   48.2100 C.2   184  LEU184      0.2260
      4  O        -25.4790   71.9340   47.4270 O.2   184  LEU184     -0.2867
      5  CB       -26.2890   70.5110   50.1200 C.3   184  LEU184      0.0270
      6  CG       -26.6910   70.4910   51.5680 C.3   184  LEU184      0.0019
      7  CD1      -27.8540   69.5080   51.7260 C.3   184  LEU184      0.0001
      8  CD2      -25.5170   70.1250   52.4820 C.3   184  LEU184      0.0001
      9  N        -25.7490   67.6880   45.8820 N.3   186  LEU186     -0.1245
     10  CA       -26.1780   66.2930   45.8110 C.3   186  LEU186      0.1561
     11  C        -25.5870   65.6820   44.5810 C.2   186  LEU186      0.2260
     12  O        -25.6200   66.3160   43.5370 O.2   186  LEU186     -0.2867
     13  CB       -27.7210   66.2110   45.7610 C.3   186  LEU186      0.0270
     14  CG       -28.4190   66.9030   46.9260 C.3   186  LEU186      0.0019
     15  CD1      -29.9130   66.8670   46.7280 C.3   186  LEU186      0.0001
     16  CD2      -28.0430   66.2460   48.2470 C.3   186  LEU186      0.0001
     17  N        -24.6860   57.4180   45.3120 N.3   210  VAL210     -0.1231
     18  CA       -25.3410   58.6300   45.7470 C.3   210  VAL210      0.1692
     19  C        -24.4460   59.2900   46.7780 C.2   210  VAL210      0.2593
     20  O        -23.7860   58.6120   47.5570 O.2   210  VAL210     -0.2718
     21  CB       -26.7580   58.3930   46.3310 C.3   210  VAL210      0.0266
     22  CG1      -27.6960   57.8770   45.2360 C.3   210  VAL210      0.0020
     23  CG2      -26.7530   57.4320   47.5220 C.3   210  VAL210      0.0020
     24  N        -24.4790   60.6200   46.8110 N.am  211  GLY211     -0.1942
     25  CA       -23.6200   61.3650   47.6900 C.3   211  GLY211      0.2014
     26  C        -24.0880   62.7570   47.9910 C.2   211  GLY211      0.2638
     27  O        -24.9830   63.3060   47.3200 O.2   211  GLY211     -0.2714
     28  N        -23.5020   63.3080   49.0420 N.am  212  VAL212     -0.1977
     29  CA       -23.7600   64.6690   49.4400 C.3   212  VAL212      0.1596
     30  C        -22.4230   65.2990   49.8380 C.2   212  VAL212      0.2287
     31  O        -21.5240   64.6150   50.3160 O.2   212  VAL212     -0.2864
     32  CB       -24.7970   64.7490   50.5660 C.3   212  VAL212      0.0276
     33  CG1      -24.3510   63.9800   51.8190 C.3   212  VAL212      0.0022
     34  CG2      -25.1160   66.1990   50.8930 C.3   212  VAL212      0.0022
     35  N        -20.3840   74.7860   55.2320 N.3   216  PHE216     -0.1241
     36  CA       -21.0580   75.7550   56.1050 C.3   216  PHE216      0.1605
     37  C        -20.1440   76.9150   56.5070 C.2   216  PHE216      0.2264
     38  O        -18.9130   76.7930   56.5190 O.2   216  PHE216     -0.2867
     39  CB       -21.5500   75.0630   57.3670 C.3   216  PHE216      0.0534
     40  CG       -22.4840   73.9520   57.0790 C.ar  216  PHE216     -0.0203
     41  CD1      -23.8480   74.1870   56.9300 C.ar  216  PHE216     -0.0042
     42  CD2      -21.9970   72.6830   56.8640 C.ar  216  PHE216     -0.0042
     43  CE1      -24.7130   73.1560   56.6010 C.ar  216  PHE216     -0.0003
     44  CE2      -22.8440   71.6500   56.5170 C.ar  216  PHE216     -0.0003
     45  CZ       -24.2140   71.8820   56.3910 C.ar  216  PHE216     -0.0000
     46  N        -18.2100   68.7110   54.8530 N.3   222  PHE222     -0.1241
     47  CA       -18.2850   67.2610   54.9190 C.3   222  PHE222      0.1605
     48  C        -18.6830   66.6770   53.5880 C.2   222  PHE222      0.2264
     49  O        -19.1200   67.3840   52.6790 O.2   222  PHE222     -0.2867
     50  CB       -19.2930   66.7960   55.9960 C.3   222  PHE222      0.0534
     51  CG       -20.7160   66.9340   55.5710 C.ar  222  PHE222     -0.0203
     52  CD1      -21.3200   68.1500   55.6630 C.ar  222  PHE222     -0.0042
     53  CD2      -21.4310   65.8770   55.0090 C.ar  222  PHE222     -0.0042
     54  CE1      -22.6340   68.3270   55.2680 C.ar  222  PHE222     -0.0003
     55  CE2      -22.7600   66.0560   54.6030 C.ar  222  PHE222     -0.0003
     56  CZ       -23.3360   67.2970   54.7100 C.ar  222  PHE222     -0.0000
     57  N        -20.3980   62.5870   52.2350 N.3   224  ALA224     -0.1231
     58  CA       -20.7740   61.2170   52.4820 C.3   224  ALA224      0.1694
     59  C        -21.2740   60.6130   51.1770 C.2   224  ALA224      0.2592
     60  O        -22.0240   61.2600   50.4390 O.2   224  ALA224     -0.2718
     61  CB       -21.8500   61.1480   53.5600 C.3   224  ALA224      0.0304
     62  N        -20.8870   59.3620   50.9230 N.am  225  GLN225     -0.1966
     63  CA       -21.3490   58.6190   49.7610 C.3   225  GLN225      0.1733
     64  C        -21.6710   57.1930   50.1180 C.2   225  GLN225      0.2616
     65  O        -21.1170   56.6210   51.0640 O.2   225  GLN225     -0.2715
     66  CB       -20.2930   58.5420   48.6740 C.3   225  GLN225      0.0408
     67  CG       -19.9510   59.8350   48.0400 C.3   225  GLN225      0.0908
     68  CD       -18.9780   59.6850   46.8950 C.2   225  GLN225      0.2608
     69  OE1      -18.4570   58.5850   46.6060 O.2   225  GLN225     -0.2717
     70  NE2      -18.6790   60.8060   46.2570 N.am  225  GLN225     -0.0878
     71  N        -22.5990   56.6470   49.3510 N.am  226  TYR226     -0.1974
     72  CA       -22.9590   55.2490   49.3830 C.3   226  TYR226      0.1639
     73  C        -22.8300   54.7430   47.9520 C.2   226  TYR226      0.2290
     74  O        -23.3140   55.3710   47.0040 O.2   226  TYR226     -0.2864
     75  CB       -24.3920   55.0430   49.9100 C.3   226  TYR226      0.0560
     76  CG       -24.8630   53.6260   49.7900 C.ar  226  TYR226     -0.0198
     77  CD1      -24.4100   52.6360   50.6680 C.ar  226  TYR226     -0.0009
     78  CD2      -25.7910   53.2670   48.8170 C.ar  226  TYR226     -0.0009
     79  CE1      -24.8450   51.3100   50.5550 C.ar  226  TYR226      0.0417
     80  CE2      -26.2210   51.9540   48.6930 C.ar  226  TYR226      0.0417
     81  CZ       -25.7280   50.9800   49.5560 C.ar  226  TYR226      0.1957
     82  OH       -26.2030   49.6950   49.3730 O.3   226  TYR226     -0.2866
     83  N        -18.3020   56.0200   52.1090 N.3   243  SER243     -0.1202
     84  CA       -17.1860   56.8740   52.4210 C.3   243  SER243      0.2020
     85  C        -17.7190   58.1700   52.9860 C.2   243  SER243      0.2618
     86  O        -18.7580   58.6520   52.5340 O.2   243  SER243     -0.2717
     87  CB       -16.3470   57.1260   51.1510 C.3   243  SER243      0.2103
     88  OG       -15.2580   57.9760   51.4700 O.3   243  SER243     -0.2182
     89  N        -17.0410   58.7120   53.9930 N.am  244  ALA244     -0.1979
     90  CA       -17.4430   59.9650   54.6010 C.3   244  ALA244      0.1597
     91  C        -16.2380   60.7100   55.1210 C.2   244  ALA244      0.2287
     92  O        -15.2010   60.1140   55.4120 O.2   244  ALA244     -0.2864
     93  CB       -18.4160   59.7200   55.7450 C.3   244  ALA244      0.0319
@<TRIPOS>BOND
     1    12    11    2
     2    11    10    1
     3    22    21    1
     4    17    18    1
     5    18    21    1
     6    18    19    1
     7    13    10    1
     8    13    14    1
     9    10     9    1
    10    70    68   am
    11    21    23    1
    12    69    68    2
    13    15    14    1
    14    19    24   am
    15    19    20    2
    16    24    25    1
    17    68    67    1
    18    14    16    1
    19    74    73    2
    20    27    26    2
    21     4     3    2
    22    25    26    1
    23    73    72    1
    24    26    28   am
    25    67    66    1
    26     3     2    1
    27    66    63    1
    28    80    78   ar
    29    80    81   ar
    30    78    76   ar
    31    28    29    1
    32    71    72    1
    33    71    64   am
    34    82    81    1
    35    72    75    1
    36    29    30    1
    37    29    32    1
    38    81    79   ar
    39     2     1    1
    40     2     5    1
    41    63    64    1
    42    63    62    1
    43    76    75    1
    44    76    77   ar
    45    30    31    2
    46    64    65    2
    47     5     6    1
    48    60    59    2
    49    79    77   ar
    50    32    34    1
    51    32    33    1
    52    62    59   am
    53    87    88    1
    54    87    84    1
    55    59    58    1
    56     6     7    1
    57     6     8    1
    58    83    84    1
    59    57    58    1
    60    84    85    1
    61    58    61    1
    62    86    85    2
    63    49    48    2
    64    85    89   am
    65    48    47    1
    66    89    90    1
    67    90    91    1
    68    90    93    1
    69    55    56   ar
    70    55    53   ar
    71    56    54   ar
    72    46    47    1
    73    47    50    1
    74    53    51   ar
    75    91    92    2
    76    35    36    1
    77    54    52   ar
    78    51    52   ar
    79    51    50    1
    80    36    37    1
    81    36    39    1
    82    45    44   ar
    83    45    43   ar
    84    37    38    2
    85    44    42   ar
    86    43    41   ar
    87    42    40   ar
    88    41    40   ar
    89    40    39    1
