@<TRIPOS>MOLECULE
tmp/5mdrD00.pdb
 95 91 0 0 0
SMALL
GASTEIGER

@<TRIPOS>ATOM
      1  N          8.7720   64.6260  -10.3690 N.3   186  LEU186     -0.1231
      2  CA         9.2220   63.2530  -10.5580 C.3   186  LEU186      0.1693
      3  C         10.0780   62.8180   -9.3790 C.2   186  LEU186      0.2592
      4  O         10.9270   63.5820   -8.9400 O.2   186  LEU186     -0.2718
      5  CB        10.0370   63.1780  -11.8430 C.3   186  LEU186      0.0284
      6  CG         9.2950   63.7290  -13.0740 C.3   186  LEU186      0.0019
      7  CD1       10.1930   63.7200  -14.2820 C.3   186  LEU186      0.0001
      8  CD2        8.0330   62.9160  -13.3340 C.3   186  LEU186      0.0001
      9  N          9.8720   61.5880   -8.9160 N.am  187  ASP187     -0.1974
     10  CA        10.5610   61.0170   -7.7580 C.3   187  ASP187      0.1709
     11  C         11.2370   59.6940   -8.1090 C.2   187  ASP187      0.2293
     12  O         10.6910   58.9110   -8.8780 O.2   187  ASP187     -0.2864
     13  CB         9.5580   60.7490   -6.6330 C.3   187  ASP187      0.1436
     14  CG         8.8480   62.0310   -6.1420 C.2   187  ASP187      0.3671
     15  OD1        9.5920   62.9670   -5.7390 O.co2 187  ASP187     -0.2456
     16  OD2        7.5720   62.0650   -6.1060 O.co2 187  ASP187     -0.2456
     17  N          9.9490   54.4990   -8.2770 N.3   210  VAL210     -0.1231
     18  CA         9.7620   55.6500   -9.1670 C.3   210  VAL210      0.1692
     19  C          8.3500   56.1860   -8.9690 C.2   210  VAL210      0.2593
     20  O          7.4210   55.4150   -8.6900 O.2   210  VAL210     -0.2718
     21  CB        10.0050   55.3100  -10.6590 C.3   210  VAL210      0.0266
     22  CG1       11.4590   54.9440  -10.8910 C.3   210  VAL210      0.0020
     23  CG2        9.0790   54.1910  -11.1560 C.3   210  VAL210      0.0020
     24  N          8.1950   57.5030   -9.0940 N.am  211  GLY211     -0.1942
     25  CA         6.9220   58.1300   -8.8430 C.3   211  GLY211      0.2014
     26  C          6.7240   59.4690   -9.5500 C.2   211  GLY211      0.2638
     27  O          7.6860   60.1020  -10.0270 O.2   211  GLY211     -0.2714
     28  N          5.4620   59.8730   -9.6120 N.am  212  VAL212     -0.1977
     29  CA         5.0810   61.1850  -10.0990 C.3   212  VAL212      0.1596
     30  C          4.0220   61.7650   -9.1790 C.2   212  VAL212      0.2287
     31  O          3.2550   61.0330   -8.5360 O.2   212  VAL212     -0.2864
     32  CB         4.5890   61.1390  -11.5670 C.3   212  VAL212      0.0276
     33  CG1        3.3820   60.2190  -11.7120 C.3   212  VAL212      0.0022
     34  CG2        4.3110   62.5440  -12.0830 C.3   212  VAL212      0.0022
     35  N          1.2750   58.7830   -8.3170 N.3   224  ALA224     -0.1231
     36  CA         1.3990   57.3860   -8.6780 C.3   224  ALA224      0.1694
     37  C          2.8430   56.9460   -8.4520 C.2   224  ALA224      0.2592
     38  O          3.7720   57.6880   -8.7990 O.2   224  ALA224     -0.2718
     39  CB         1.0000   57.1670  -10.1300 C.3   224  ALA224      0.0304
     40  N          3.0180   55.7430   -7.9080 N.am  225  GLN225     -0.1966
     41  CA         4.3220   55.1650   -7.6850 C.3   225  GLN225      0.1733
     42  C          4.3440   53.6960   -8.0230 C.2   225  GLN225      0.2616
     43  O          3.3140   53.0030   -7.8990 O.2   225  GLN225     -0.2715
     44  CB         4.7350   55.2560   -6.2070 C.3   225  GLN225      0.0408
     45  CG         4.9700   56.6370   -5.6960 C.3   225  GLN225      0.0908
     46  CD         5.4500   56.6490   -4.2510 C.2   225  GLN225      0.2608
     47  OE1        5.5830   55.6070   -3.5830 O.2   225  GLN225     -0.2717
     48  NE2        5.7250   57.8510   -3.7580 N.am  225  GLN225     -0.0878
     49  N          5.5260   53.2410   -8.4330 N.am  226  TYR226     -0.1974
     50  CA         5.8420   51.8290   -8.6270 C.3   226  TYR226      0.1639
     51  C          7.0670   51.5090   -7.7800 C.2   226  TYR226      0.2290
     52  O          8.0270   52.2820   -7.7260 O.2   226  TYR226     -0.2864
     53  CB         6.1200   51.5280  -10.1020 C.3   226  TYR226      0.0560
     54  CG         6.6290   50.1140  -10.3300 C.ar  226  TYR226     -0.0198
     55  CD1        5.7620   49.0240  -10.2340 C.ar  226  TYR226     -0.0009
     56  CD2        7.9690   49.8800  -10.6000 C.ar  226  TYR226     -0.0009
     57  CE1        6.2150   47.7250  -10.4120 C.ar  226  TYR226      0.0417
     58  CE2        8.4520   48.5950  -10.7910 C.ar  226  TYR226      0.0417
     59  CZ         7.5680   47.5150  -10.6990 C.ar  226  TYR226      0.1957
     60  OH         8.0680   46.2530  -10.9010 O.3   226  TYR226     -0.2866
     61  N          6.7550   43.2410   -6.3360 N.3   241  ASP241     -0.1225
     62  CA         6.5320   44.6370   -6.6430 C.3   241  ASP241      0.1805
     63  C          5.1550   45.1230   -6.1690 C.2   241  ASP241      0.2597
     64  O          4.3340   44.3470   -5.6610 O.2   241  ASP241     -0.2718
     65  CB         6.8650   44.9700   -8.1240 C.3   241  ASP241      0.1424
     66  CG         6.0890   44.1540   -9.1400 C.2   241  ASP241      0.3668
     67  OD1        5.1780   43.3920   -8.7560 O.co2 241  ASP241     -0.2456
     68  OD2        6.4110   44.2990  -10.3540 O.co2 241  ASP241     -0.2456
     69  N          4.9520   46.4240   -6.2960 N.am  242  ALA242     -0.1979
     70  CA         3.8210   47.1040   -5.7080 C.3   242  ALA242      0.1597
     71  C          3.5910   48.4320   -6.4160 C.2   242  ALA242      0.2287
     72  O          4.4750   48.9330   -7.1260 O.2   242  ALA242     -0.2864
     73  CB         4.0770   47.3450   -4.2310 C.3   242  ALA242      0.0319
     74  N          1.0810   52.3230   -5.8910 N.3   243  SER243     -0.1202
     75  CA         0.1630   53.1440   -5.1510 C.3   243  SER243      0.2020
     76  C         -0.2090   54.3470   -6.0060 C.2   243  SER243      0.2618
     77  O          0.6370   54.8620   -6.7430 O.2   243  SER243     -0.2717
     78  CB         0.7940   53.5830   -3.8300 C.3   243  SER243      0.2103
     79  OG        -0.1160   54.4040   -3.1170 O.3   243  SER243     -0.2182
     80  N         -1.4630   54.7650   -5.9430 N.am  244  ALA244     -0.1979
     81  CA        -1.9270   55.9120   -6.7010 C.3   244  ALA244      0.1597
     82  C         -3.0420   56.6050   -5.9540 C.2   244  ALA244      0.2287
     83  O         -3.7600   55.9830   -5.1620 O.2   244  ALA244     -0.2864
     84  CB        -2.4200   55.4970   -8.0880 C.3   244  ALA244      0.0319
     85  N          1.8000   42.9480   -5.5070 N.3   262  PHE262     -0.1241
     86  CA         1.5250   41.8500   -6.4260 C.3   262  PHE262      0.1605
     87  C          2.0650   40.5540   -5.8320 C.2   262  PHE262      0.2264
     88  O          2.7300   40.6010   -4.8060 O.2   262  PHE262     -0.2867
     89  CB         2.1030   42.1840   -7.8090 C.3   262  PHE262      0.0534
     90  CG         1.4940   43.4300   -8.3800 C.ar  262  PHE262     -0.0203
     91  CD1        0.1980   43.3950   -8.8920 C.ar  262  PHE262     -0.0042
     92  CD2        2.1450   44.6500   -8.3020 C.ar  262  PHE262     -0.0042
     93  CE1       -0.4160   44.5500   -9.3660 C.ar  262  PHE262     -0.0003
     94  CE2        1.5470   45.8080   -8.7860 C.ar  262  PHE262     -0.0003
     95  CZ         0.2650   45.7660   -9.3050 C.ar  262  PHE262     -0.0000
@<TRIPOS>BOND
     1     7     6    1
     2     8     6    1
     3     6     5    1
     4    34    32    1
     5     5     2    1
     6    33    32    1
     7    32    29    1
     8    23    21    1
     9    60    59    1
    10    22    21    1
    11    58    59   ar
    12    58    56   ar
    13    59    57   ar
    14    21    18    1
    15    56    54   ar
    16     2     1    1
    17     2     3    1
    18    57    55   ar
    19    68    66   ar
    20    54    55   ar
    21    54    53    1
    22    39    36    1
    23    53    50    1
    24    29    28    1
    25    29    30    1
    26    27    26    2
    27    28    26   am
    28    26    25    1
    29     3     4    2
    30     3     9   am
    31    93    95   ar
    32    93    91   ar
    33    95    94   ar
    34    30    31    2
    35    18    19    1
    36    18    17    1
    37    66    67   ar
    38    66    65    1
    39    24    19   am
    40    24    25    1
    41    19    20    2
    42     9    10    1
    43    91    90   ar
    44    12    11    2
    45    38    37    2
    46    94    92   ar
    47    36    37    1
    48    36    35    1
    49    50    49    1
    50    50    51    1
    51    37    40   am
    52    49    42   am
    53    90    92   ar
    54    90    89    1
    55    65    62    1
    56    11    10    1
    57    84    81    1
    58    42    43    2
    59    42    41    1
    60    40    41    1
    61    89    86    1
    62    51    52    2
    63    10    13    1
    64    41    44    1
    65    72    71    2
    66    77    76    2
    67    81    82    1
    68    81    80    1
    69    62    61    1
    70    62    63    1
    71    13    14    1
    72    86    87    1
    73    86    85    1
    74    71    70    1
    75    69    63   am
    76    69    70    1
    77    44    45    1
    78    63    64    2
    79    14    16   ar
    80    14    15   ar
    81    76    80   am
    82    76    75    1
    83    82    83    2
    84    74    75    1
    85    87    88    2
    86    70    73    1
    87    45    46    1
    88    75    78    1
    89    46    48   am
    90    46    47    2
    91    78    79    1
