@<TRIPOS>MOLECULE
tmp/5mdsB00.pdb
 145 137 0 0 0
SMALL
GASTEIGER

@<TRIPOS>ATOM
      1  N         83.6350  -20.5220   27.0940 N.3    19  GLN19      -0.1245
      2  CA        83.4460  -21.7980   26.4200 C.3    19  GLN19       0.1566
      3  C         84.6500  -21.9720   25.4770 C.2    19  GLN19       0.2260
      4  O         84.9010  -21.1540   24.6160 O.2    19  GLN19      -0.2867
      5  CB        82.1020  -21.8140   25.6410 C.3    19  GLN19       0.0367
      6  CG        81.6790  -23.1740   25.1400 C.3    19  GLN19       0.0905
      7  CD        80.3790  -23.2010   24.3050 C.2    19  GLN19       0.2608
      8  OE1       79.5600  -24.1740   24.4160 O.2    19  GLN19      -0.2717
      9  NE2       80.2420  -22.2600   23.4020 N.am   19  GLN19      -0.0878
     10  N         81.4950  -15.1950   26.6610 N.3    44  GLU44      -0.1245
     11  CA        80.1990  -14.5770   26.7720 C.3    44  GLU44       0.1567
     12  C         80.0570  -13.8660   28.1050 C.2    44  GLU44       0.2260
     13  O         78.9110  -13.6560   28.5740 O.2    44  GLU44      -0.2867
     14  CB        79.1090  -15.6240   26.5730 C.3    44  GLU44       0.0388
     15  CG        79.0780  -16.1360   25.1360 C.3    44  GLU44       0.1160
     16  CD        78.1760  -17.3710   24.9150 C.2    44  GLU44       0.3649
     17  OE1       77.9190  -18.2050   25.8840 O.co2  44  GLU44      -0.2457
     18  OE2       77.8110  -17.4740   23.7160 O.co2  44  GLU44      -0.2457
     19  N         79.5420  -10.9310   30.6510 N.3    46  ARG46      -0.1245
     20  CA        78.9140   -9.6170   30.5800 C.3    46  ARG46       0.1563
     21  C         78.7550   -8.9470   31.9210 C.2    46  ARG46       0.2260
     22  O         78.5930   -9.6010   32.9570 O.2    46  ARG46      -0.2867
     23  CB        77.5430   -9.6740   29.8900 C.3    46  ARG46       0.0307
     24  CG        76.4610  -10.5130   30.5600 C.3    46  ARG46       0.0489
     25  CD        76.4450  -11.8750   29.9200 C.3    46  ARG46       0.2205
     26  NE        75.4400  -12.8010   30.4050 N.pl3  46  ARG46      -0.0865
     27  CZ        75.4050  -14.0890   30.0880 C.cat  46  ARG46       0.5346
     28  NH1       76.3090  -14.6280   29.3050 N.pl3  46  ARG46       0.1354
     29  NH2       74.4650  -14.8430   30.5900 N.pl3  46  ARG46       0.1354
     30  N         77.9550   -9.6450   25.5330 N.3    70  TYR70      -0.1241
     31  CA        79.1530  -10.5690   25.4740 C.3    70  TYR70       0.1605
     32  C         80.4330   -9.8550   25.0540 C.2    70  TYR70       0.2264
     33  O         80.5180   -9.3620   23.9580 O.2    70  TYR70      -0.2867
     34  CB        78.9310  -11.7020   24.4500 C.3    70  TYR70       0.0534
     35  CG        77.7230  -12.5950   24.6320 C.ar   70  TYR70      -0.0201
     36  CD1       77.0850  -12.7440   25.8870 C.ar   70  TYR70      -0.0009
     37  CD2       77.2330  -13.3410   23.5440 C.ar   70  TYR70      -0.0009
     38  CE1       75.9780  -13.5760   26.0290 C.ar   70  TYR70       0.0417
     39  CE2       76.1430  -14.1520   23.6830 C.ar   70  TYR70       0.0417
     40  CZ        75.5240  -14.2680   24.9140 C.ar   70  TYR70       0.1957
     41  OH        74.4300  -15.1210   25.0240 O.3    70  TYR70      -0.2866
     42  N         72.3350   -6.1040   25.8510 N.3    85  ARG85      -0.1245
     43  CA        71.4300   -7.0800   26.4370 C.3    85  ARG85       0.1563
     44  C         70.2650   -6.3910   27.1900 C.2    85  ARG85       0.2260
     45  O         69.9810   -5.2660   26.9050 O.2    85  ARG85      -0.2867
     46  CB        72.2880   -8.0270   27.2710 C.3    85  ARG85       0.0307
     47  CG        72.9030   -9.0550   26.3330 C.3    85  ARG85       0.0489
     48  CD        73.9360   -9.9080   26.9860 C.3    85  ARG85       0.2205
     49  NE        73.3960  -10.6830   28.0880 N.pl3  85  ARG85      -0.0865
     50  CZ        72.8080  -11.8530   27.9450 C.cat  85  ARG85       0.5346
     51  NH1       72.6630  -12.3960   26.7330 N.pl3  85  ARG85       0.1354
     52  NH2       72.3680  -12.4630   29.0390 N.pl3  85  ARG85       0.1354
     53  N         64.2300  -20.0670   24.1810 N.3   113  ASP113     -0.1225
     54  CA        65.5870  -20.1000   24.6630 C.3   113  ASP113      0.1805
     55  C         65.7150  -20.9820   25.8950 C.2   113  ASP113      0.2597
     56  O         66.6220  -21.7590   25.9630 O.2   113  ASP113     -0.2718
     57  CB        66.1030  -18.6990   25.0220 C.3   113  ASP113      0.1424
     58  CG        67.5080  -18.7640   25.6050 C.2   113  ASP113      0.3668
     59  OD1       68.5010  -19.1660   24.8600 O.co2 113  ASP113     -0.2456
     60  OD2       67.5420  -18.4830   26.8250 O.co2 113  ASP113     -0.2456
     61  N         64.8570  -20.7920   26.8970 N.am  114  TRP114     -0.1976
     62  CA        64.8720  -21.6190   28.1040 C.3   114  TRP114      0.1640
     63  C         63.4760  -22.1940   28.3260 C.2   114  TRP114      0.2290
     64  O         62.5210  -21.4170   28.3950 O.2   114  TRP114     -0.2864
     65  CB        65.2730  -20.8810   29.3880 C.3   114  TRP114      0.0576
     66  CG        65.4120  -21.8660   30.4880 C.ar  114  TRP114      0.0006
     67  CD1       64.4150  -22.3420   31.3280 C.ar  114  TRP114      0.0946
     68  CD2       66.5930  -22.6600   30.7770 C.ar  114  TRP114      0.0152
     69  NE1       64.9220  -23.3650   32.1280 N.ar  114  TRP114     -0.2442
     70  CE2       66.2570  -23.5410   31.8370 C.ar  114  TRP114      0.0810
     71  CE3       67.8890  -22.6970   30.2500 C.ar  114  TRP114      0.0012
     72  CZ2       67.1690  -24.4390   32.3680 C.ar  114  TRP114      0.0191
     73  CZ3       68.7890  -23.5810   30.7840 C.ar  114  TRP114      0.0001
     74  CH2       68.4130  -24.4750   31.8190 C.ar  114  TRP114      0.0015
     75  N         68.6410  -25.3860   25.1860 N.3   118  ASN118     -0.1240
     76  CA        69.8010  -25.8240   25.9530 C.3   118  ASN118      0.1653
     77  C         69.8490  -27.3610   26.1190 C.2   118  ASN118      0.2266
     78  O         68.8250  -27.9730   26.4910 O.2   118  ASN118     -0.2867
     79  CB        69.7910  -25.1430   27.3230 C.3   118  ASN118      0.1155
     80  CG        71.0410  -25.3800   28.0960 C.2   118  ASN118      0.2627
     81  OD1       71.2250  -26.4390   28.6520 O.2   118  ASN118     -0.2716
     82  ND2       71.9180  -24.3920   28.1220 N.am  118  ASN118     -0.0877
     83  N         65.6050  -11.0180   21.6920 N.3   139  ARG139     -0.1245
     84  CA        65.7650   -9.8390   22.4920 C.3   139  ARG139      0.1563
     85  C         65.4040   -8.6800   21.5360 C.2   139  ARG139      0.2260
     86  O         65.8410   -8.6700   20.3820 O.2   139  ARG139     -0.2867
     87  CB        67.1950   -9.7220   22.9910 C.3   139  ARG139      0.0307
     88  CG        67.3540   -8.5490   23.9280 C.3   139  ARG139      0.0489
     89  CD        68.6740   -8.4660   24.6940 C.3   139  ARG139      0.2205
     90  NE        68.7140   -9.5120   25.7030 N.pl3 139  ARG139     -0.0865
     91  CZ        69.2970  -10.6850   25.5350 C.cat 139  ARG139      0.5346
     92  NH1       69.9770  -10.9220   24.4270 N.pl3 139  ARG139      0.1354
     93  NH2       69.1840  -11.6120   26.4840 N.pl3 139  ARG139      0.1354
     94  N         77.7970  -31.6990   33.5520 N.3   291  MET291     -0.1196
     95  CA        77.9580  -30.4450   34.2350 C.3   291  MET291      0.1786
     96  C         78.2210  -30.7230   35.6900 C.2   291  MET291      0.2306
     97  O         77.5490  -31.6090   36.2780 O.2   291  MET291     -0.2863
     98  CB        76.7000  -29.5840   34.0650 C.2   291  MET291      0.0070
     99  CG        76.7180  -28.2500   34.7870 C.2   291  MET291      0.0282
    100  SD        75.1860  -27.2840   34.7110 S.3   291  MET291     -0.1125
    101  CE        75.4390  -26.2940   33.2210 C.3   291  MET291      0.0742
    102  N         81.4440  -27.4350   32.6880 N.3   301  TYR301     -0.1241
    103  CA        80.6620  -28.3160   31.8340 C.3   301  TYR301      0.1605
    104  C         81.4310  -28.7990   30.6450 C.2   301  TYR301      0.2264
    105  O         82.3000  -28.1000   30.1810 O.2   301  TYR301     -0.2867
    106  CB        79.3810  -27.6390   31.3560 C.3   301  TYR301      0.0534
    107  CG        79.5140  -26.5460   30.3130 C.ar  301  TYR301     -0.0201
    108  CD1       79.5940  -26.8200   28.9210 C.ar  301  TYR301     -0.0009
    109  CD2       79.5100  -25.2150   30.7050 C.ar  301  TYR301     -0.0009
    110  CE1       79.6920  -25.7760   27.9660 C.ar  301  TYR301      0.0417
    111  CE2       79.5860  -24.1560   29.7780 C.ar  301  TYR301      0.0417
    112  CZ        79.6840  -24.4220   28.4100 C.ar  301  TYR301      0.1957
    113  OH        79.7620  -23.3060   27.5490 O.3   301  TYR301     -0.2866
    114  N         80.6930  -30.7340   26.7510 N.3   303  ARG303     -0.1245
    115  CA        79.5690  -30.9370   25.8810 C.3   303  ARG303      0.1563
    116  C         79.9490  -31.2530   24.4500 C.2   303  ARG303      0.2260
    117  O         80.8240  -30.6300   23.8920 O.2   303  ARG303     -0.2867
    118  CB        78.7470  -29.6540   25.9370 C.3   303  ARG303      0.0307
    119  CG        77.7010  -29.5160   24.8390 C.3   303  ARG303      0.0489
    120  CD        77.2420  -28.0840   24.6470 C.3   303  ARG303      0.2205
    121  NE        76.6100  -27.5670   25.8490 N.pl3 303  ARG303     -0.0865
    122  CZ        76.1400  -26.3410   25.9490 C.cat 303  ARG303      0.5346
    123  NH1       76.2690  -25.4900   24.9190 N.pl3 303  ARG303      0.1354
    124  NH2       75.5820  -25.9630   27.0970 N.pl3 303  ARG303      0.1354
    125  N         80.9780  -21.0030   34.0850 N.3   338  GLU338     -0.1245
    126  CA        80.0390  -19.8760   34.2820 C.3   338  GLU338      0.1567
    127  C         79.8960  -19.5540   35.7400 C.2   338  GLU338      0.2260
    128  O         79.6250  -20.4530   36.5350 O.2   338  GLU338     -0.2867
    129  CB        78.6610  -20.1470   33.7250 C.3   338  GLU338      0.0388
    130  CG        78.7160  -20.3130   32.2320 C.3   338  GLU338      0.1160
    131  CD        77.4140  -20.1160   31.5350 C.2   338  GLU338      0.3649
    132  OE1       76.4890  -19.4750   32.1090 O.co2 338  GLU338     -0.2457
    133  OE2       77.3440  -20.6460   30.3920 O.co2 338  GLU338     -0.2457
    134  N         78.4940  -16.4590   38.5910 N.3   340  TYR340     -0.1241
    135  CA        77.3800  -15.5140   38.7740 C.3   340  TYR340      0.1605
    136  C         77.6640  -14.6810   40.0200 C.2   340  TYR340      0.2264
    137  O         77.9250  -15.2070   41.0910 O.2   340  TYR340     -0.2867
    138  CB        76.0040  -16.2670   38.9100 C.3   340  TYR340      0.0534
    139  CG        75.5820  -17.0860   37.6700 C.ar  340  TYR340     -0.0201
    140  CD1       76.1210  -18.3680   37.3940 C.ar  340  TYR340     -0.0009
    141  CD2       74.6390  -16.5820   36.7640 C.ar  340  TYR340     -0.0009
    142  CE1       75.7280  -19.1110   36.2510 C.ar  340  TYR340      0.0417
    143  CE2       74.2320  -17.3040   35.6200 C.ar  340  TYR340      0.0417
    144  CZ        74.7910  -18.5520   35.3540 C.ar  340  TYR340      0.1957
    145  OH        74.3950  -19.2190   34.2010 O.3   340  TYR340     -0.2866
@<TRIPOS>BOND
     1    86    85    2
     2    85    84    1
     3    83    84    1
     4    84    87    1
     5    87    88    1
     6     9     7   am
     7    37    39   ar
     8    37    35   ar
     9    39    40   ar
    10    18    16   ar
    11   117   116    2
    12    88    89    1
    13    33    32    2
    14    53    54    1
    15     7     8    2
    16     7     6    1
    17    92    91    1
    18   116   115    1
    19    34    35    1
    20    34    31    1
    21     4     3    2
    22    35    36   ar
    23   120   119    1
    24   120   121    1
    25    54    57    1
    26    54    55    1
    27    89    90    1
    28   119   118    1
    29    59    58   ar
    30    40    41    1
    31    40    38   ar
    32    16    15    1
    33    16    17   ar
    34   123   122    1
    35    57    58    1
    36    32    31    1
    37    15    14    1
    38     6     5    1
    39    75    76    1
    40    31    30    1
    41     3     2    1
    42    91    90    2
    43    91    93    1
    44    58    60   ar
    45     5     2    1
    46   121   122    2
    47    42    43    1
    48   115   118    1
    49   115   114    1
    50    36    38   ar
    51    55    56    2
    52    55    61   am
    53   122   124    1
    54    76    77    1
    55    76    79    1
    56    77    78    2
    57    47    48    1
    58    47    46    1
    59     2     1    1
    60    43    44    1
    61    43    46    1
    62    14    11    1
    63    10    11    1
    64    51    50    1
    65    11    12    1
    66    61    62    1
    67    45    44    2
    68    48    49    1
    69    79    80    1
    70   113   112    1
    71    50    49    2
    72    50    52    1
    73   110   112   ar
    74   110   108   ar
    75    80    82   am
    76    80    81    2
    77    62    63    1
    78    62    65    1
    79    12    13    2
    80    63    64    2
    81   112   111   ar
    82   108   107   ar
    83    28    27    1
    84    65    66    1
    85   111   109   ar
    86    23    24    1
    87    23    20    1
    88    25    26    1
    89    25    24    1
    90    27    26    2
    91    27    29    1
    92   105   104    2
    93    71    68   ar
    94    71    73   ar
    95   107   109   ar
    96   107   106    1
    97   133   131   ar
    98    66    68   ar
    99    66    67   ar
   100    20    19    1
   101    20    21    1
   102   104   103    1
   103    68    70   ar
   104    73    74   ar
   105    67    69   ar
   106   106   103    1
   107   131   132   ar
   108   131   130    1
   109    74    72   ar
   110   103   102    1
   111    70    69   ar
   112    70    72   ar
   113    21    22    2
   114   130   129    1
   115   101   100    1
   116    94    95    1
   117   129   126    1
   118    98    95    1
   119    98    99    2
   120   125   126    1
   121   145   144    1
   122    95    96    1
   123   126   127    1
   124   100    99    1
   125   144   143   ar
   126   144   142   ar
   127   143   141   ar
   128    96    97    2
   129   127   128    2
   130   142   140   ar
   131   141   139   ar
   132   140   139   ar
   133   139   138    1
   134   134   135    1
   135   135   138    1
   136   135   136    1
   137   136   137    2
