@<TRIPOS>MOLECULE
tmp/5mdsB01.pdb
 132 124 0 0 0
SMALL
GASTEIGER

@<TRIPOS>ATOM
      1  N         83.6350  -20.5220   27.0940 N.3    19  GLN19      -0.1245
      2  CA        83.4460  -21.7980   26.4200 C.3    19  GLN19       0.1566
      3  C         84.6500  -21.9720   25.4770 C.2    19  GLN19       0.2260
      4  O         84.9010  -21.1540   24.6160 O.2    19  GLN19      -0.2867
      5  CB        82.1020  -21.8140   25.6410 C.3    19  GLN19       0.0367
      6  CG        81.6790  -23.1740   25.1400 C.3    19  GLN19       0.0905
      7  CD        80.3790  -23.2010   24.3050 C.2    19  GLN19       0.2608
      8  OE1       79.5600  -24.1740   24.4160 O.2    19  GLN19      -0.2717
      9  NE2       80.2420  -22.2600   23.4020 N.am   19  GLN19      -0.0878
     10  N         84.8650  -18.6160   23.4670 N.3    42  ASN42      -0.1240
     11  CA        83.5850  -17.9700   23.3220 C.3    42  ASN42       0.1653
     12  C         83.3980  -17.3440   24.6940 C.2    42  ASN42       0.2266
     13  O         82.9850  -18.0180   25.6390 O.2    42  ASN42      -0.2867
     14  CB        82.5450  -19.0000   22.9000 C.3    42  ASN42       0.1155
     15  CG        81.1560  -18.4220   22.7930 C.2    42  ASN42       0.2627
     16  OD1       80.9180  -17.4600   22.0800 O.2    42  ASN42      -0.2716
     17  ND2       80.2320  -19.0050   23.5290 N.am   42  ASN42      -0.0877
     18  N         81.4950  -15.1950   26.6610 N.3    44  GLU44      -0.1245
     19  CA        80.1990  -14.5770   26.7720 C.3    44  GLU44       0.1567
     20  C         80.0570  -13.8660   28.1050 C.2    44  GLU44       0.2260
     21  O         78.9110  -13.6560   28.5740 O.2    44  GLU44      -0.2867
     22  CB        79.1090  -15.6240   26.5730 C.3    44  GLU44       0.0388
     23  CG        79.0780  -16.1360   25.1360 C.3    44  GLU44       0.1160
     24  CD        78.1760  -17.3710   24.9150 C.2    44  GLU44       0.3649
     25  OE1       77.9190  -18.2050   25.8840 O.co2  44  GLU44      -0.2457
     26  OE2       77.8110  -17.4740   23.7160 O.co2  44  GLU44      -0.2457
     27  N         79.5420  -10.9310   30.6510 N.3    46  ARG46      -0.1245
     28  CA        78.9140   -9.6170   30.5800 C.3    46  ARG46       0.1563
     29  C         78.7550   -8.9470   31.9210 C.2    46  ARG46       0.2260
     30  O         78.5930   -9.6010   32.9570 O.2    46  ARG46      -0.2867
     31  CB        77.5430   -9.6740   29.8900 C.3    46  ARG46       0.0307
     32  CG        76.4610  -10.5130   30.5600 C.3    46  ARG46       0.0489
     33  CD        76.4450  -11.8750   29.9200 C.3    46  ARG46       0.2205
     34  NE        75.4400  -12.8010   30.4050 N.pl3  46  ARG46      -0.0865
     35  CZ        75.4050  -14.0890   30.0880 C.cat  46  ARG46       0.5346
     36  NH1       76.3090  -14.6280   29.3050 N.pl3  46  ARG46       0.1354
     37  NH2       74.4650  -14.8430   30.5900 N.pl3  46  ARG46       0.1354
     38  N         77.9550   -9.6450   25.5330 N.3    70  TYR70      -0.1241
     39  CA        79.1530  -10.5690   25.4740 C.3    70  TYR70       0.1605
     40  C         80.4330   -9.8550   25.0540 C.2    70  TYR70       0.2264
     41  O         80.5180   -9.3620   23.9580 O.2    70  TYR70      -0.2867
     42  CB        78.9310  -11.7020   24.4500 C.3    70  TYR70       0.0534
     43  CG        77.7230  -12.5950   24.6320 C.ar   70  TYR70      -0.0201
     44  CD1       77.0850  -12.7440   25.8870 C.ar   70  TYR70      -0.0009
     45  CD2       77.2330  -13.3410   23.5440 C.ar   70  TYR70      -0.0009
     46  CE1       75.9780  -13.5760   26.0290 C.ar   70  TYR70       0.0417
     47  CE2       76.1430  -14.1520   23.6830 C.ar   70  TYR70       0.0417
     48  CZ        75.5240  -14.2680   24.9140 C.ar   70  TYR70       0.1957
     49  OH        74.4300  -15.1210   25.0240 O.3    70  TYR70      -0.2866
     50  N         72.3350   -6.1040   25.8510 N.3    85  ARG85      -0.1245
     51  CA        71.4300   -7.0800   26.4370 C.3    85  ARG85       0.1563
     52  C         70.2650   -6.3910   27.1900 C.2    85  ARG85       0.2260
     53  O         69.9810   -5.2660   26.9050 O.2    85  ARG85      -0.2867
     54  CB        72.2880   -8.0270   27.2710 C.3    85  ARG85       0.0307
     55  CG        72.9030   -9.0550   26.3330 C.3    85  ARG85       0.0489
     56  CD        73.9360   -9.9080   26.9860 C.3    85  ARG85       0.2205
     57  NE        73.3960  -10.6830   28.0880 N.pl3  85  ARG85      -0.0865
     58  CZ        72.8080  -11.8530   27.9450 C.cat  85  ARG85       0.5346
     59  NH1       72.6630  -12.3960   26.7330 N.pl3  85  ARG85       0.1354
     60  NH2       72.3680  -12.4630   29.0390 N.pl3  85  ARG85       0.1354
     61  N         63.3330   -9.7100   26.4510 N.3   105  LEU105     -0.1245
     62  CA        62.8840  -10.8990   25.6810 C.3   105  LEU105      0.1561
     63  C         61.3720  -10.8670   25.3170 C.2   105  LEU105      0.2260
     64  O         60.5230  -10.4920   26.1410 O.2   105  LEU105     -0.2867
     65  CB        63.2300  -12.2010   26.4540 C.3   105  LEU105      0.0270
     66  CG        64.7140  -12.2980   26.8900 C.3   105  LEU105      0.0019
     67  CD1       64.9760  -13.6920   27.4710 C.3   105  LEU105      0.0001
     68  CD2       65.6640  -11.9230   25.7630 C.3   105  LEU105      0.0001
     69  N         60.0700  -15.9280   22.9570 N.3   109  TYR109     -0.1241
     70  CA        61.5080  -16.1420   22.8860 C.3   109  TYR109      0.1605
     71  C         62.0370  -16.6610   24.1970 C.2   109  TYR109      0.2264
     72  O         62.8040  -17.6280   24.2180 O.2   109  TYR109     -0.2867
     73  CB        62.3150  -14.9040   22.5160 C.3   109  TYR109      0.0534
     74  CG        63.7630  -15.2910   22.4040 C.ar  109  TYR109     -0.0201
     75  CD1       64.1740  -16.1810   21.4280 C.ar  109  TYR109     -0.0009
     76  CD2       64.7160  -14.8230   23.3130 C.ar  109  TYR109     -0.0009
     77  CE1       65.5020  -16.5740   21.3360 C.ar  109  TYR109      0.0417
     78  CE2       66.0600  -15.2190   23.2200 C.ar  109  TYR109      0.0417
     79  CZ        66.4530  -16.0940   22.2340 C.ar  109  TYR109      0.1957
     80  OH        67.7750  -16.5040   22.1510 O.3   109  TYR109     -0.2866
     81  N         64.2300  -20.0670   24.1810 N.3   113  ASP113     -0.1239
     82  CA        65.5870  -20.1000   24.6630 C.3   113  ASP113      0.1674
     83  C         65.7150  -20.9820   25.8950 C.2   113  ASP113      0.2266
     84  O         66.6220  -21.7590   25.9630 O.2   113  ASP113     -0.2867
     85  CB        66.1030  -18.6990   25.0220 C.3   113  ASP113      0.1410
     86  CG        67.5080  -18.7640   25.6050 C.2   113  ASP113      0.3668
     87  OD1       68.5010  -19.1660   24.8600 O.co2 113  ASP113     -0.2456
     88  OD2       67.5420  -18.4830   26.8250 O.co2 113  ASP113     -0.2456
     89  N         66.3900  -22.1390   18.0790 N.3   126  ASP126     -0.1225
     90  CA        66.3870  -20.7250   18.4650 C.3   126  ASP126      0.1805
     91  C         66.2440  -19.8570   17.2080 C.2   126  ASP126      0.2597
     92  O         65.1230  -19.4400   16.8750 O.2   126  ASP126     -0.2718
     93  CB        67.6450  -20.4090   19.2980 C.3   126  ASP126      0.1424
     94  CG        67.6720  -18.9810   19.8540 C.2   126  ASP126      0.3668
     95  OD1       67.1530  -18.0580   19.1710 O.co2 126  ASP126     -0.2456
     96  OD2       68.2880  -18.8460   20.9750 O.co2 126  ASP126     -0.2456
     97  N         67.3290  -19.6690   16.4770 N.am  127  TRP127     -0.1976
     98  CA        67.3200  -18.9480   15.2080 C.3   127  TRP127      0.1640
     99  C         67.2460  -19.8500   13.9750 C.2   127  TRP127      0.2290
    100  O         67.1160  -19.3350   12.8990 O.2   127  TRP127     -0.2864
    101  CB        68.5510  -18.0180   15.0970 C.3   127  TRP127      0.0576
    102  CG        69.9290  -18.6690   15.0010 C.ar  127  TRP127      0.0006
    103  CD1       70.6880  -18.8940   13.8640 C.ar  127  TRP127      0.0946
    104  CD2       70.7050  -19.1220   16.0960 C.ar  127  TRP127      0.0152
    105  NE1       71.9340  -19.4590   14.2160 N.ar  127  TRP127     -0.2442
    106  CE2       71.9370  -19.6300   15.5780 C.ar  127  TRP127      0.0810
    107  CE3       70.4960  -19.1270   17.4760 C.ar  127  TRP127      0.0012
    108  CZ2       72.9050  -20.1570   16.3990 C.ar  127  TRP127      0.0191
    109  CZ3       71.4560  -19.6610   18.3050 C.ar  127  TRP127      0.0001
    110  CH2       72.6450  -20.1650   17.7730 C.ar  127  TRP127      0.0015
    111  N         65.6050  -11.0180   21.6920 N.3   139  ARG139     -0.1245
    112  CA        65.7650   -9.8390   22.4920 C.3   139  ARG139      0.1563
    113  C         65.4040   -8.6800   21.5360 C.2   139  ARG139      0.2260
    114  O         65.8410   -8.6700   20.3820 O.2   139  ARG139     -0.2867
    115  CB        67.1950   -9.7220   22.9910 C.3   139  ARG139      0.0307
    116  CG        67.3540   -8.5490   23.9280 C.3   139  ARG139      0.0489
    117  CD        68.6740   -8.4660   24.6940 C.3   139  ARG139      0.2205
    118  NE        68.7140   -9.5120   25.7030 N.pl3 139  ARG139     -0.0865
    119  CZ        69.2970  -10.6850   25.5350 C.cat 139  ARG139      0.5346
    120  NH1       69.9770  -10.9220   24.4270 N.pl3 139  ARG139      0.1354
    121  NH2       69.1840  -11.6120   26.4840 N.pl3 139  ARG139      0.1354
    122  N         80.6930  -30.7340   26.7510 N.3   303  ARG303     -0.1245
    123  CA        79.5690  -30.9370   25.8810 C.3   303  ARG303      0.1563
    124  C         79.9490  -31.2530   24.4500 C.2   303  ARG303      0.2260
    125  O         80.8240  -30.6300   23.8920 O.2   303  ARG303     -0.2867
    126  CB        78.7470  -29.6540   25.9370 C.3   303  ARG303      0.0307
    127  CG        77.7010  -29.5160   24.8390 C.3   303  ARG303      0.0489
    128  CD        77.2420  -28.0840   24.6470 C.3   303  ARG303      0.2205
    129  NE        76.6100  -27.5670   25.8490 N.pl3 303  ARG303     -0.0865
    130  CZ        76.1400  -26.3410   25.9490 C.cat 303  ARG303      0.5346
    131  NH1       76.2690  -25.4900   24.9190 N.pl3 303  ARG303      0.1354
    132  NH2       75.5820  -25.9630   27.0970 N.pl3 303  ARG303      0.1354
@<TRIPOS>BOND
     1   100    99    2
     2   103   105   ar
     3   103   102   ar
     4    99    98    1
     5   105   106   ar
     6   102   101    1
     7   102   104   ar
     8   101    98    1
     9    98    97    1
    10   106   104   ar
    11   106   108   ar
    12   104   107   ar
    13   108   110   ar
    14    97    91   am
    15    92    91    2
    16    91    90    1
    17   107   109   ar
    18   110   109   ar
    19    89    90    1
    20    90    93    1
    21    95    94   ar
    22    93    94    1
    23    94    96   ar
    24   114   113    2
    25    77    75   ar
    26    77    79   ar
    27    75    74   ar
    28   113   112    1
    29   111   112    1
    30    16    15    2
    31    80    79    1
    32    79    78   ar
    33    74    73    1
    34    74    76   ar
    35   112   115    1
    36    73    70    1
    37    15    14    1
    38    15    17   am
    39    70    69    1
    40    70    71    1
    41    14    11    1
    42   115   116    1
    43    78    76   ar
    44    11    10    1
    45    11    12    1
    46     9     7   am
    47    45    47   ar
    48    45    43   ar
    49    47    48   ar
    50    26    24   ar
    51   125   124    2
    52   116   117    1
    53    41    40    2
    54    81    82    1
    55    71    72    2
    56     7     8    2
    57     7     6    1
    58   120   119    1
    59    42    43    1
    60    42    39    1
    61   124   123    1
    62     4     3    2
    63    43    44   ar
    64   128   127    1
    65   128   129    1
    66    82    85    1
    67    82    83    1
    68    12    13    2
    69   117   118    1
    70   127   126    1
    71    87    86   ar
    72    48    49    1
    73    48    46   ar
    74    24    23    1
    75    24    25   ar
    76   131   130    1
    77    85    86    1
    78    40    39    1
    79    23    22    1
    80     6     5    1
    81    63    62    1
    82    63    64    2
    83    39    38    1
    84     3     2    1
    85   119   118    2
    86   119   121    1
    87    86    88   ar
    88     5     2    1
    89    62    61    1
    90    62    65    1
    91    68    66    1
    92   129   130    2
    93    50    51    1
    94   123   126    1
    95   123   122    1
    96    44    46   ar
    97    83    84    2
    98   130   132    1
    99    55    56    1
   100    55    54    1
   101     2     1    1
   102    51    52    1
   103    51    54    1
   104    65    66    1
   105    22    19    1
   106    18    19    1
   107    59    58    1
   108    19    20    1
   109    66    67    1
   110    53    52    2
   111    56    57    1
   112    58    57    2
   113    58    60    1
   114    20    21    2
   115    36    35    1
   116    31    32    1
   117    31    28    1
   118    33    34    1
   119    33    32    1
   120    35    34    2
   121    35    37    1
   122    28    27    1
   123    28    29    1
   124    29    30    2
