@<TRIPOS>MOLECULE
tmp/5me6A00.pdb
 142 136 0 0 0
SMALL
GASTEIGER

@<TRIPOS>ATOM
      1  N        -25.2020    5.8480  -30.4650 N.3    24  ALA24      -0.1245
      2  CA       -25.9700    7.0670  -30.3920 C.3    24  ALA24       0.1562
      3  C        -27.3210    6.9070  -29.6080 C.2    24  ALA24       0.2260
      4  O        -28.2570    7.6640  -29.8450 O.2    24  ALA24      -0.2867
      5  CB       -26.1990    7.5760  -31.8170 C.3    24  ALA24       0.0290
      6  N        -27.0360    5.8910  -26.0320 N.3    26  ILE26      -0.1245
      7  CA       -26.4790    5.6900  -24.7300 C.3    26  ILE26       0.1561
      8  C        -27.0230    6.7940  -23.8480 C.2    26  ILE26       0.2260
      9  O        -26.5140    7.8760  -23.8790 O.2    26  ILE26      -0.2867
     10  CB       -24.9560    5.8310  -24.7940 C.3    26  ILE26       0.0252
     11  CG1      -24.3380    4.8010  -25.7220 C.3    26  ILE26       0.0019
     12  CG2      -24.3310    5.6470  -23.4310 C.3    26  ILE26       0.0019
     13  CD1      -22.8520    5.0450  -25.9850 C.3    26  ILE26       0.0001
     14  N        -25.7350   -8.2920  -23.1260 N.3    54  ARG54      -0.1245
     15  CA       -25.3640   -7.2140  -24.0460 C.3    54  ARG54       0.1563
     16  C        -25.4730   -5.7560  -23.5040 C.2    54  ARG54       0.2260
     17  O        -25.2740   -4.8250  -24.2620 O.2    54  ARG54      -0.2867
     18  CB       -26.0040   -7.4640  -25.4260 C.3    54  ARG54       0.0307
     19  CG       -25.3880   -8.7290  -26.0790 C.3    54  ARG54       0.0489
     20  CD       -25.1710   -8.6700  -27.5920 C.3    54  ARG54       0.2205
     21  NE       -26.4240   -8.9350  -28.3160 N.pl3  54  ARG54      -0.0865
     22  CZ       -26.5600   -9.6490  -29.4450 C.cat  54  ARG54       0.5346
     23  NH1      -25.5100  -10.2190  -30.0530 N.pl3  54  ARG54       0.1354
     24  NH2      -27.7850   -9.8080  -29.9740 N.pl3  54  ARG54       0.1354
     25  N        -24.2760   -2.3330  -21.6390 N.3    56  ASP56      -0.1239
     26  CA       -23.0700   -1.5790  -21.2820 C.3    56  ASP56       0.1674
     27  C        -23.4110   -0.5350  -20.2330 C.2    56  ASP56       0.2266
     28  O        -24.4140    0.1560  -20.3740 O.2    56  ASP56      -0.2867
     29  CB       -22.5460   -0.8690  -22.5130 C.3    56  ASP56       0.1410
     30  CG       -22.2250   -1.8360  -23.6410 C.2    56  ASP56       0.3668
     31  OD1      -21.6570   -2.9440  -23.4230 O.co2  56  ASP56      -0.2456
     32  OD2      -22.4930   -1.4340  -24.7780 O.co2  56  ASP56      -0.2456
     33  N        -21.6360    2.7520  -18.2450 N.3    58  TYR58      -0.1241
     34  CA       -20.4790    3.6010  -18.2890 C.3    58  TYR58       0.1605
     35  C        -20.4060    4.4880  -17.0710 C.2    58  TYR58       0.2264
     36  O        -21.4470    4.9050  -16.5820 O.2    58  TYR58      -0.2867
     37  CB       -20.5330    4.5150  -19.4900 C.3    58  TYR58       0.0534
     38  CG       -20.5430    3.8300  -20.8060 C.ar   58  TYR58      -0.0201
     39  CD1      -21.7150    3.3030  -21.3210 C.ar   58  TYR58      -0.0009
     40  CD2      -19.3930    3.7330  -21.5930 C.ar   58  TYR58      -0.0009
     41  CE1      -21.7330    2.6860  -22.5840 C.ar   58  TYR58       0.0417
     42  CE2      -19.4130    3.1050  -22.8180 C.ar   58  TYR58       0.0417
     43  CZ       -20.5890    2.6010  -23.2940 C.ar   58  TYR58       0.1957
     44  OH       -20.6050    2.0120  -24.4910 O.3    58  TYR58      -0.2866
     45  N        -19.2910    9.3020  -23.4320 N.3    66  PRO66      -0.2102
     46  CA       -18.6110    8.0160  -23.7150 C.3    66  PRO66       0.1504
     47  C        -18.7160    7.5450  -25.1530 C.2    66  PRO66       0.2576
     48  O        -19.4000    6.5930  -25.4520 O.2    66  PRO66      -0.2718
     49  CB       -19.2850    7.0530  -22.7470 C.3    66  PRO66       0.0282
     50  CG       -20.6530    7.5590  -22.6950 C.3    66  PRO66       0.0208
     51  CD       -20.5100    9.0610  -22.6760 C.3    66  PRO66       0.0893
     52  N        -18.0620    8.2970  -26.0310 N.am   67  LYS67      -0.1966
     53  CA       -18.0940    8.0780  -27.4580 C.3    67  LYS67       0.1728
     54  C        -16.6960    8.3770  -27.9850 C.2    67  LYS67       0.2616
     55  O        -16.0660    9.3550  -27.5890 O.2    67  LYS67      -0.2715
     56  CB       -19.1110    9.0360  -28.0930 C.3    67  LYS67       0.0311
     57  CG       -20.4730    8.9990  -27.4220 C.3    67  LYS67       0.0038
     58  CD       -21.5590    9.6100  -28.2960 C.3    67  LYS67       0.0206
     59  CE       -22.9700    9.4520  -27.7000 C.3    67  LYS67       0.1093
     60  NZ       -23.3810   10.6000  -26.8420 N.3    67  LYS67      -0.1314
     61  N        -16.1900    7.5370  -28.8650 N.am   68  TRP68      -0.1960
     62  CA       -14.9260    7.8590  -29.5940 C.3    68  TRP68       0.1771
     63  C        -14.9160    9.2260  -30.2410 C.2    68  TRP68       0.2619
     64  O        -13.8940    9.7390  -30.5700 O.2    68  TRP68      -0.2715
     65  CB       -14.6310    6.8550  -30.7440 C.3    68  TRP68       0.0590
     66  CG       -14.5890    5.4110  -30.3460 C.ar   68  TRP68       0.0006
     67  CD1      -14.2190    4.9050  -29.1440 C.ar   68  TRP68       0.0946
     68  CD2      -14.9730    4.2980  -31.1410 C.ar   68  TRP68       0.0152
     69  NE1      -14.3210    3.5480  -29.1540 N.ar   68  TRP68      -0.2442
     70  CE2      -14.7880    3.1500  -30.3670 C.ar   68  TRP68       0.0810
     71  CE3      -15.4990    4.1630  -32.4310 C.ar   68  TRP68       0.0012
     72  CZ2      -15.0780    1.8530  -30.8460 C.ar   68  TRP68       0.0191
     73  CZ3      -15.7880    2.8680  -32.9220 C.ar   68  TRP68       0.0001
     74  CH2      -15.5710    1.7340  -32.1300 C.ar   68  TRP68       0.0015
     75  N        -16.0770    9.7510  -30.5490 N.am   69  GLU69      -0.1977
     76  CA       -16.1820   10.9500  -31.3220 C.3    69  GLU69       0.1602
     77  C        -16.1390   12.1820  -30.3620 C.2    69  GLU69       0.2287
     78  O        -16.1150   13.3240  -30.8170 O.2    69  GLU69      -0.2864
     79  CB       -17.4800   10.9370  -32.1350 C.3    69  GLU69       0.0415
     80  CG       -17.6290    9.7690  -33.1190 C.3    69  GLU69       0.1163
     81  CD       -17.8420    8.3900  -32.4600 C.2    69  GLU69       0.3649
     82  OE1      -18.4870    8.2990  -31.3800 O.co2  69  GLU69      -0.2457
     83  OE2      -17.3790    7.3610  -33.0280 O.co2  69  GLU69      -0.2457
     84  N         -8.2460    2.5130  -24.8390 N.3    78  LYS78      -0.1245
     85  CA        -8.7460    1.7810  -23.6590 C.3    78  LYS78       0.1561
     86  C         -7.9740    0.5920  -23.2800 C.2    78  LYS78       0.2260
     87  O         -7.6580   -0.2590  -24.0940 O.2    78  LYS78      -0.2867
     88  CB       -10.2210    1.3570  -23.7960 C.3    78  LYS78       0.0271
     89  CG       -10.5720    0.5260  -25.0390 C.3    78  LYS78       0.0035
     90  CD       -11.9910    0.1060  -24.9600 C.3    78  LYS78       0.0206
     91  CE       -12.2230   -1.2070  -25.6670 C.3    78  LYS78       0.1093
     92  NZ       -12.4280   -0.8870  -27.1040 N.3    78  LYS78      -0.1314
     93  N        -18.9290   -4.1070  -19.8510 N.3   116  ASN116     -0.1240
     94  CA       -19.6630   -4.7300  -20.9320 C.3   116  ASN116      0.1653
     95  C        -20.0710   -6.1560  -20.5070 C.2   116  ASN116      0.2266
     96  O        -19.2340   -7.0400  -20.3290 O.2   116  ASN116     -0.2867
     97  CB       -18.7790   -4.8430  -22.1700 C.3   116  ASN116      0.1155
     98  CG       -18.2600   -3.5010  -22.6650 C.2   116  ASN116      0.2627
     99  OD1      -17.0640   -3.2570  -22.6960 O.2   116  ASN116     -0.2716
    100  ND2      -19.1380   -2.6580  -23.0610 N.am  116  ASN116     -0.0877
    101  N        -21.5130   -9.6460  -21.3160 N.3   118  ARG118     -0.1245
    102  CA       -21.6530  -10.4990  -22.4810 C.3   118  ARG118      0.1563
    103  C        -21.7870  -11.9450  -22.0160 C.2   118  ARG118      0.2260
    104  O        -21.2990  -12.2850  -20.9390 O.2   118  ARG118     -0.2867
    105  CB       -20.4240  -10.3380  -23.3620 C.3   118  ARG118      0.0307
    106  CG       -20.1500   -8.9350  -23.8880 C.3   118  ARG118      0.0489
    107  CD       -21.1300   -8.5680  -25.0250 C.3   118  ARG118      0.2205
    108  NE       -20.9270   -7.1850  -25.4950 N.pl3 118  ARG118     -0.0865
    109  CZ       -21.3840   -6.0790  -24.8790 C.cat 118  ARG118      0.5346
    110  NH1      -22.1080   -6.1170  -23.7460 N.pl3 118  ARG118      0.1354
    111  NH2      -21.1070   -4.8900  -25.3890 N.pl3 118  ARG118      0.1354
    112  N        -16.3320   -7.8100  -19.7690 N.3   123  LYS123     -0.1245
    113  CA       -15.1730   -6.9720  -20.0050 C.3   123  LYS123      0.1561
    114  C        -15.3460   -5.6880  -19.1910 C.2   123  LYS123      0.2260
    115  O        -16.4440   -5.1650  -19.0930 O.2   123  LYS123     -0.2867
    116  CB       -15.0380   -6.6930  -21.5130 C.3   123  LYS123      0.0271
    117  CG       -15.2060   -7.9360  -22.3370 C.3   123  LYS123      0.0035
    118  CD       -14.2590   -7.9980  -23.5380 C.3   123  LYS123      0.0206
    119  CE       -14.7290   -7.1740  -24.7430 C.3   123  LYS123      0.1093
    120  NZ       -14.4140   -7.9690  -26.0320 N.3   123  LYS123     -0.1314
    121  N        -11.2350    3.9510  -20.2810 N.3   127  TRP127     -0.1241
    122  CA       -10.9270    4.8410  -21.4410 C.3   127  TRP127      0.1605
    123  C         -9.9860    5.9730  -21.0280 C.2   127  TRP127      0.2264
    124  O        -10.2080    6.6310  -20.0200 O.2   127  TRP127     -0.2867
    125  CB       -12.1870    5.5070  -21.9220 C.3   127  TRP127      0.0550
    126  CG       -13.0850    4.6440  -22.6860 C.ar  127  TRP127      0.0003
    127  CD1      -13.2590    3.3080  -22.5490 C.ar  127  TRP127      0.0946
    128  CD2      -13.9070    5.0440  -23.7470 C.ar  127  TRP127      0.0152
    129  NE1      -14.1550    2.8550  -23.4520 N.ar  127  TRP127     -0.2442
    130  CE2      -14.5760    3.9060  -24.2100 C.ar  127  TRP127      0.0810
    131  CE3      -14.1390    6.2630  -24.3670 C.ar  127  TRP127      0.0012
    132  CZ2      -15.5000    3.9380  -25.2880 C.ar  127  TRP127      0.0191
    133  CZ3      -15.0810    6.3120  -25.4470 C.ar  127  TRP127      0.0001
    134  CH2      -15.7360    5.1370  -25.8880 C.ar  127  TRP127      0.0015
    135  N        -13.1180   -2.1990  -36.4210 N.3   166  ASP166     -0.1239
    136  CA       -14.1600   -2.8870  -35.6270 C.3   166  ASP166      0.1674
    137  C        -13.7220   -4.1210  -34.7810 C.2   166  ASP166      0.2266
    138  O        -12.9790   -3.9600  -33.8020 O.2   166  ASP166     -0.2867
    139  CB       -15.3760   -3.1960  -36.5260 C.3   166  ASP166      0.1410
    140  CG       -16.6950   -3.0660  -35.7760 C.2   166  ASP166      0.3668
    141  OD1      -16.7340   -2.3600  -34.7160 O.co2 166  ASP166     -0.2456
    142  OD2      -17.7130   -3.6320  -36.2470 O.co2 166  ASP166     -0.2456
@<TRIPOS>BOND
     1   139   140    1
     2   139   136    1
     3   135   136    1
     4   142   140   ar
     5   140   141   ar
     6   136   137    1
     7   137   138    2
     8    80    81    1
     9    80    79    1
    10    83    81   ar
    11    73    71   ar
    12    73    74   ar
    13    81    82   ar
    14    71    68   ar
    15    79    76    1
    16    74    72   ar
    17     5     2    1
    18    76    75    1
    19    76    77    1
    20    68    70   ar
    21    68    66   ar
    22    72    70   ar
    23    78    77    2
    24    65    66    1
    25    65    62    1
    26    64    63    2
    27    75    63   am
    28     1     2    1
    29     2     3    1
    30    70    69   ar
    31    66    67   ar
    32    63    62    1
    33    23    22    1
    34    24    22    1
    35     4     3    2
    36    62    61    1
    37    22    21    2
    38    69    67   ar
    39    61    54   am
    40    21    20    1
    41    58    59    1
    42    58    57    1
    43    56    53    1
    44    56    57    1
    45    54    55    2
    46    54    53    1
    47    59    60    1
    48    20    19    1
    49    53    52    1
    50    92    91    1
    51    19    18    1
    52     6     7    1
    53   120   119    1
    54    52    47   am
    55    13    11    1
    56   134   133   ar
    57   134   132   ar
    58    11    10    1
    59    91    90    1
    60   108   107    1
    61   108   109    2
    62    48    47    2
    63   133   131   ar
    64    18    15    1
    65   111   109    1
    66   132   130   ar
    67    47    46    1
    68    89    90    1
    69    89    88    1
    70   107   106    1
    71   109   110    1
    72    84    85    1
    73    10     7    1
    74    10    12    1
    75    32    30   ar
    76   119   118    1
    77     7     8    1
    78    44    43    1
    79   131   128   ar
    80    17    16    2
    81   130   128   ar
    82   130   129   ar
    83    87    86    2
    84    15    16    1
    85    15    14    1
    86   106   105    1
    87     9     8    2
    88    88    85    1
    89   128   126   ar
    90    46    45    1
    91    46    49    1
    92    85    86    1
    93    30    31   ar
    94    30    29    1
    95   118   117    1
    96   129   127   ar
    97    45    51    1
    98   105   102    1
    99    43    42   ar
   100    43    41   ar
   101   100    98   am
   102    42    40   ar
   103    49    50    1
   104    99    98    2
   105    50    51    1
   106   126   127   ar
   107   126   125    1
   108    98    97    1
   109    41    39   ar
   110    29    26    1
   111   102   103    1
   112   102   101    1
   113   117   116    1
   114    97    94    1
   115   103   104    2
   116   125   122    1
   117    25    26    1
   118    40    38   ar
   119   116   113    1
   120   122   123    1
   121   122   121    1
   122    39    38   ar
   123    26    27    1
   124   123   124    2
   125    94    95    1
   126    94    93    1
   127    38    37    1
   128    95    96    2
   129    28    27    2
   130   113   112    1
   131   113   114    1
   132    37    34    1
   133   114   115    2
   134    34    33    1
   135    34    35    1
   136    35    36    2
