@<TRIPOS>MOLECULE
tmp/5medA00.pdb
 120 113 0 0 0
SMALL
GASTEIGER

@<TRIPOS>ATOM
      1  N         25.0990    2.0890   36.3330 N.3    57  ARG57      -0.1245
      2  CA        23.8230    2.5700   36.8620 C.3    57  ARG57       0.1563
      3  C         23.8480    2.5580   38.3900 C.2    57  ARG57       0.2260
      4  O         23.3990    3.5190   39.0430 O.2    57  ARG57      -0.2867
      5  CB        22.6680    1.7120   36.3400 C.3    57  ARG57       0.0307
      6  CG        21.2970    2.1460   36.8380 C.3    57  ARG57       0.0489
      7  CD        20.1830    1.2960   36.2560 C.3    57  ARG57       0.2205
      8  NE        18.9430    1.4750   37.0090 N.pl3  57  ARG57      -0.0865
      9  CZ        18.0820    2.4690   36.8160 C.cat  57  ARG57       0.5346
     10  NH1       18.3140    3.3640   35.8670 N.pl3  57  ARG57       0.1354
     11  NH2       16.9890    2.5540   37.5600 N.pl3  57  ARG57       0.1354
     12  N         10.9190   13.6660   24.9480 N.3   257  HIS257     -0.1226
     13  CA        11.7770   12.6050   25.4580 C.3   257  HIS257      0.1752
     14  C         11.0650   11.2510   25.4880 C.2   257  HIS257      0.2595
     15  O         11.4380   10.3570   24.7350 O.2   257  HIS257     -0.2718
     16  CB        12.3110   13.0290   26.8310 C.3   257  HIS257      0.0759
     17  CG        13.3060   12.0890   27.4210 C.ar  257  HIS257      0.0818
     18  ND1       13.5090   11.9790   28.7750 N.ar  257  HIS257     -0.2268
     19  CD2       14.1120   11.1660   26.8470 C.ar  257  HIS257      0.1154
     20  CE1       14.4120   11.0490   29.0100 C.ar  257  HIS257      0.1986
     21  NE2       14.7930   10.5380   27.8580 N.ar  257  HIS257     -0.2212
     22  N         10.0470   11.0740   26.3380 N.am  258  LEU258     -0.1980
     23  CA         9.4240    9.7620   26.4420 C.3   258  LEU258      0.1596
     24  C          8.7490    9.3500   25.1390 C.2   258  LEU258      0.2287
     25  O          9.0280    8.2730   24.5980 O.2   258  LEU258     -0.2864
     26  CB         8.4150    9.7500   27.5850 C.3   258  LEU258      0.0297
     27  CG         8.9920    9.3770   28.9440 C.3   258  LEU258      0.0022
     28  CD1        7.9280    9.5270   30.0310 C.3   258  LEU258      0.0001
     29  CD2        9.5290    7.9370   28.8610 C.3   258  LEU258      0.0001
     30  N         12.2590    7.3220   23.1460 N.3   262  HIS262     -0.1241
     31  CA        11.9800    6.0080   23.7200 C.3   262  HIS262      0.1621
     32  C         10.8140    5.2460   23.0720 C.2   262  HIS262      0.2264
     33  O         10.9960    4.1300   22.5710 O.2   262  HIS262     -0.2867
     34  CB        11.7170    6.1930   25.2080 C.3   262  HIS262      0.0745
     35  CG        12.9430    6.4880   26.0110 C.ar  262  HIS262      0.0817
     36  ND1       13.7560    5.4970   26.5030 N.ar  262  HIS262     -0.2268
     37  CD2       13.5280    7.6590   26.3530 C.ar  262  HIS262      0.1154
     38  CE1       14.7750    6.0410   27.1410 C.ar  262  HIS262      0.1986
     39  NE2       14.6580    7.3540   27.0650 N.ar  262  HIS262     -0.2212
     40  N         15.4560   -0.3720   28.5640 N.3   296  ILE296     -0.1245
     41  CA        15.2530    0.9390   29.1840 C.3   296  ILE296      0.1561
     42  C         13.7750    1.3250   29.0970 C.2   296  ILE296      0.2260
     43  O         13.2330    1.9540   30.0100 O.2   296  ILE296     -0.2867
     44  CB        16.1880    2.0270   28.6020 C.3   296  ILE296      0.0252
     45  CG1       16.2080    3.2860   29.4750 C.3   296  ILE296      0.0019
     46  CG2       15.8070    2.4410   27.1640 C.3   296  ILE296      0.0019
     47  CD1       16.7690    3.0570   30.8950 C.3   296  ILE296      0.0001
     48  N         12.1370   -0.3440   31.9870 N.3   299  LEU299     -0.1231
     49  CA        12.3000    0.4480   33.2060 C.3   299  LEU299      0.1693
     50  C         11.3730    1.6610   33.2060 C.2   299  LEU299      0.2591
     51  O         10.8740    2.0510   34.2560 O.2   299  LEU299     -0.2718
     52  CB        13.7400    0.9010   33.3990 C.3   299  LEU299      0.0284
     53  CG        14.7400   -0.1890   33.7860 C.3   299  LEU299      0.0019
     54  CD1       16.0790    0.4480   34.1670 C.3   299  LEU299      0.0001
     55  CD2       14.2030   -1.0730   34.9310 C.3   299  LEU299      0.0001
     56  N         11.1450    2.2760   32.0400 N.am  300  ALA300     -0.1980
     57  CA        10.2280    3.4090   31.9870 C.3   300  ALA300      0.1597
     58  C          8.8180    2.9620   32.3380 C.2   300  ALA300      0.2287
     59  O          8.0990    3.6530   33.0730 O.2   300  ALA300     -0.2864
     60  CB        10.2450    4.0520   30.6070 C.3   300  ALA300      0.0319
     61  N          9.0140    2.3140   36.2740 N.3   303  GLN303     -0.1231
     62  CA         9.5120    3.3190   37.1980 C.3   303  GLN303      0.1698
     63  C          9.1020    4.7330   36.8290 C.2   303  GLN303      0.2592
     64  O          9.0120    5.5850   37.7100 O.2   303  GLN303     -0.2718
     65  CB        11.0430    3.2300   37.2730 C.3   303  GLN303      0.0381
     66  CG        11.5900    1.8670   37.7480 C.3   303  GLN303      0.0905
     67  CD        13.1060    1.7800   37.6350 C.2   303  GLN303      0.2608
     68  OE1       13.7130    2.5800   36.9350 O.2   303  GLN303     -0.2717
     69  NE2       13.7200    0.8250   38.3290 N.am  303  GLN303     -0.0878
     70  N          8.8580    4.9930   35.5370 N.am  304  LEU304     -0.1980
     71  CA         8.5330    6.3220   35.0400 C.3   304  LEU304      0.1596
     72  C          7.0400    6.5490   34.8420 C.2   304  LEU304      0.2287
     73  O          6.5240    7.5820   35.2610 O.2   304  LEU304     -0.2864
     74  CB         9.2540    6.5840   33.7260 C.3   304  LEU304      0.0297
     75  CG        10.5870    7.3140   33.8130 C.3   304  LEU304      0.0022
     76  CD1       11.1910    7.3160   32.4580 C.3   304  LEU304      0.0001
     77  CD2       10.3270    8.7280   34.2390 C.3   304  LEU304      0.0001
     78  N          7.8870    8.2480   38.7170 N.3   310  TYR310     -0.1241
     79  CA         8.3710    9.6200   38.6080 C.3   310  TYR310      0.1605
     80  C          7.3380   10.5190   37.9410 C.2   310  TYR310      0.2264
     81  O          7.1240   11.6420   38.3760 O.2   310  TYR310     -0.2867
     82  CB         9.7010    9.6900   37.8460 C.3   310  TYR310      0.0534
     83  CG        10.8640    9.1270   38.6180 C.ar  310  TYR310     -0.0201
     84  CD1       11.4550    9.8460   39.6680 C.ar  310  TYR310     -0.0009
     85  CD2       11.3920    7.8920   38.2980 C.ar  310  TYR310     -0.0009
     86  CE1       12.5390    9.3170   40.3690 C.ar  310  TYR310      0.0417
     87  CE2       12.4630    7.3540   38.9890 C.ar  310  TYR310      0.0417
     88  CZ        13.0400    8.0710   40.0200 C.ar  310  TYR310      0.1957
     89  OH        14.1000    7.5110   40.7030 O.3   310  TYR310     -0.2866
     90  N         15.8400   11.7390   39.6910 N.3   502  LEU502     -0.1245
     91  CA        15.5660   11.3100   38.3240 C.3   502  LEU502      0.1561
     92  C         16.6270   11.8420   37.3630 C.2   502  LEU502      0.2260
     93  O         17.2070   11.0850   36.5640 O.2   502  LEU502     -0.2867
     94  CB        14.1830   11.7710   37.8840 C.3   502  LEU502      0.0270
     95  CG        13.8280   11.4890   36.4190 C.3   502  LEU502      0.0019
     96  CD1       13.9000    9.9710   36.1290 C.3   502  LEU502      0.0001
     97  CD2       12.4510   12.0740   36.0460 C.3   502  LEU502      0.0001
     98  N         20.0460   10.1740   37.5180 N.3   505  THR505     -0.1203
     99  CA        20.0720    8.8080   36.9770 C.3   505  THR505      0.1994
    100  C         19.9880    8.7780   35.4510 C.2   505  THR505      0.2617
    101  O         20.5200    7.8590   34.8140 O.2   505  THR505     -0.2717
    102  CB        18.9380    7.9330   37.5310 C.3   505  THR505      0.1784
    103  OG1       17.6720    8.4400   37.0860 O.3   505  THR505     -0.2211
    104  CG2       18.9250    7.8980   39.0420 C.3   505  THR505      0.0376
    105  N         19.3080    9.7490   34.8390 N.am  506  LEU506     -0.1979
    106  CA        19.1920    9.7320   33.3910 C.3   506  LEU506      0.1596
    107  C         20.4380   10.2510   32.6860 C.2   506  LEU506      0.2287
    108  O         20.5950   10.0070   31.4800 O.2   506  LEU506     -0.2864
    109  CB        17.9850   10.5450   32.9480 C.3   506  LEU506      0.0297
    110  CG        16.6060   10.1410   33.4850 C.3   506  LEU506      0.0022
    111  CD1       15.5270   11.0330   32.8680 C.3   506  LEU506      0.0001
    112  CD2       16.3100    8.6620   33.2090 C.3   506  LEU506      0.0001
    113  N         19.1540    5.0000   28.0420 N.3   569  ILE569     -0.1245
    114  CA        19.1670    5.5410   29.3780 C.3   569  ILE569      0.1561
    115  C         18.0230    6.5590   29.4490 C.2   569  ILE569      0.2260
    116  O         17.5360    6.9960   28.4000 O.2   569  ILE569     -0.2867
    117  CB        20.5590    6.1440   29.7320 C.3   569  ILE569      0.0252
    118  CG1       20.6670    6.4760   31.2090 C.3   569  ILE569      0.0019
    119  CG2       20.8550    7.4020   28.8640 C.3   569  ILE569      0.0019
    120  CD1       22.0870    6.8160   31.6390 C.3   569  ILE569      0.0001
@<TRIPOS>BOND
     1    33    32    2
     2    32    31    1
     3    30    31    1
     4    31    34    1
     5    25    24    2
     6    15    14    2
     7    12    13    1
     8    24    23    1
     9    34    35    1
    10    13    14    1
    11    13    16    1
    12    14    22   am
    13    35    37   ar
    14    35    36   ar
    15    22    23    1
    16    37    39   ar
    17    23    26    1
    18    36    38   ar
    19    16    17    1
    20    19    17   ar
    21    19    21   ar
    22    39    38   ar
    23    46    44    1
    24    17    18   ar
    25    26    27    1
    26    21    20   ar
    27   113   114    1
    28   116   115    2
    29    40    41    1
    30    44    41    1
    31    44    45    1
    32    18    20   ar
    33    29    27    1
    34   119   117    1
    35    27    28    1
    36    42    41    1
    37    42    43    2
    38   114   115    1
    39   114   117    1
    40    45    47    1
    41   117   118    1
    42    60    57    1
    43   118   120    1
    44   108   107    2
    45    48    49    1
    46    57    56    1
    47    57    58    1
    48    56    50   am
    49    58    59    2
    50    76    75    1
    51   107   106    1
    52   111   110    1
    53   109   106    1
    54   109   110    1
    55    49    50    1
    56    49    52    1
    57    50    51    2
    58   112   110    1
    59   106   105    1
    60    52    53    1
    61    74    75    1
    62    74    71    1
    63    53    54    1
    64    53    55    1
    65    75    77    1
    66   101   100    2
    67   105   100   am
    68    72    71    1
    69    72    73    2
    70    71    70    1
    71   100    99    1
    72    70    63   am
    73    10     9    1
    74    97    95    1
    75    96    95    1
    76     7     6    1
    77     7     8    1
    78    61    62    1
    79     1     2    1
    80     5     6    1
    81     5     2    1
    82    95    94    1
    83    93    92    2
    84     9     8    2
    85     9    11    1
    86    63    62    1
    87    63    64    2
    88     2     3    1
    89    68    67    2
    90    99    98    1
    91    99   102    1
    92   103   102    1
    93    62    65    1
    94    65    66    1
    95    92    91    1
    96   102   104    1
    97    67    66    1
    98    67    69   am
    99    82    79    1
   100    82    83    1
   101    94    91    1
   102    80    81    2
   103    80    79    1
   104    85    83   ar
   105    85    87   ar
   106    91    90    1
   107     3     4    2
   108    79    78    1
   109    83    84   ar
   110    87    88   ar
   111    84    86   ar
   112    88    86   ar
   113    88    89    1
