@<TRIPOS>MOLECULE
tmp/5meeA00.pdb
 101 98 0 0 0
SMALL
GASTEIGER

@<TRIPOS>ATOM
      1  N          3.4610   48.7680   21.9040 N.3   137  ALA137     -0.1231
      2  CA         4.0200   49.4790   23.0490 C.3   137  ALA137      0.1694
      3  C          4.9350   48.5760   23.8670 C.2   137  ALA137      0.2591
      4  O          6.0490   48.9710   24.2280 O.2   137  ALA137     -0.2718
      5  CB         2.8960   50.0420   23.9180 C.3   137  ALA137      0.0304
      6  N          4.4810   47.3560   24.1730 N.am  138  MET138     -0.1979
      7  CA         5.3190   46.4210   24.9190 C.3   138  MET138      0.1605
      8  C          6.6070   46.1210   24.1640 C.2   138  MET138      0.2287
      9  O          7.7090   46.2360   24.7160 O.2   138  MET138     -0.2864
     10  CB         4.5620   45.1200   25.1940 C.3   138  MET138      0.0413
     11  CG         3.2420   45.2680   25.9270 C.3   138  MET138      0.0598
     12  SD         2.4810   43.6550   26.2140 S.3   138  MET138     -0.1393
     13  CE         0.8430   44.1330   26.7560 C.3   138  MET138      0.0692
     14  N          8.9480   49.0320   24.1810 N.3   141  LYS141     -0.1231
     15  CA         9.4780   49.3220   25.5090 C.3   141  LYS141      0.1693
     16  C         10.5260   48.3030   25.9390 C.2   141  LYS141      0.2591
     17  O         11.4430   48.6440   26.6960 O.2   141  LYS141     -0.2718
     18  CB         8.3370   49.3740   26.5240 C.3   141  LYS141      0.0285
     19  CG         8.7320   49.9330   27.8770 C.3   141  LYS141      0.0035
     20  CD         7.5150   50.4380   28.6310 C.3   141  LYS141      0.0206
     21  CE         7.8850   50.9320   30.0210 C.3   141  LYS141      0.1093
     22  NZ         8.4560   49.8500   30.8710 N.3   141  LYS141     -0.1314
     23  N         10.4160   47.0620   25.4710 N.am  142  ILE142     -0.1980
     24  CA        11.3690   46.0210   25.8530 C.3   142  ILE142      0.1595
     25  C         12.5900   46.0270   24.9420 C.2   142  ILE142      0.2287
     26  O         13.7260   45.9430   25.4150 O.2   142  ILE142     -0.2864
     27  CB        10.6780   44.6380   25.8680 C.3   142  ILE142      0.0276
     28  CG1        9.9940   44.3840   27.2140 C.3   142  ILE142      0.0022
     29  CG2       11.6770   43.5220   25.6030 C.3   142  ILE142      0.0022
     30  CD1        8.8820   45.3510   27.5480 C.3   142  ILE142      0.0001
     31  N         -1.9010   38.4440   33.0210 N.3   227  PRO227     -0.2102
     32  CA        -1.3290   39.5280   32.2210 C.3   227  PRO227      0.1504
     33  C         -0.1220   39.0360   31.4320 C.2   227  PRO227      0.2576
     34  O          0.3170   37.8950   31.5590 O.2   227  PRO227     -0.2718
     35  CB        -0.9200   40.5450   33.2800 C.3   227  PRO227      0.0282
     36  CG        -0.5510   39.6890   34.4560 C.3   227  PRO227      0.0208
     37  CD        -1.4300   38.4770   34.4190 C.3   227  PRO227      0.0893
     38  N          0.4120   39.9320   30.6110 N.am  228  ILE228     -0.1966
     39  CA         1.6040   39.6790   29.8140 C.3   228  ILE228      0.1727
     40  C          2.7790   40.3010   30.5530 C.2   228  ILE228      0.2616
     41  O          2.8770   41.5270   30.6610 O.2   228  ILE228     -0.2715
     42  CB         1.4720   40.2550   28.3990 C.3   228  ILE228      0.0290
     43  CG1        0.3640   39.5400   27.6300 C.3   228  ILE228      0.0022
     44  CG2        2.7890   40.1610   27.6550 C.3   228  ILE228      0.0023
     45  CD1        0.2410   40.0020   26.2010 C.3   228  ILE228      0.0001
     46  N          3.6680   39.4580   31.0690 N.am  229  TYR229     -0.1960
     47  CA         4.8390   39.9210   31.7950 C.3   229  TYR229      0.1771
     48  C          6.0150   40.1240   30.8480 C.2   229  TYR229      0.2620
     49  O          6.1310   39.4630   29.8130 O.2   229  TYR229     -0.2715
     50  CB         5.2220   38.9310   32.8960 C.3   229  TYR229      0.0574
     51  CG         4.2050   38.8250   34.0100 C.ar  229  TYR229     -0.0198
     52  CD1        4.1730   39.7630   35.0330 C.ar  229  TYR229     -0.0009
     53  CD2        3.2800   37.7880   34.0420 C.ar  229  TYR229     -0.0009
     54  CE1        3.2500   39.6740   36.0560 C.ar  229  TYR229      0.0417
     55  CE2        2.3510   37.6910   35.0640 C.ar  229  TYR229      0.0417
     56  CZ         2.3430   38.6390   36.0690 C.ar  229  TYR229      0.1957
     57  OH         1.4270   38.5600   37.0930 O.3   229  TYR229     -0.2866
     58  N          6.8840   41.0680   31.2130 N.am  230  THR230     -0.1951
     59  CA         8.0490   41.4520   30.4250 C.3   230  THR230      0.1897
     60  C          9.2490   41.5680   31.3580 C.2   230  THR230      0.2313
     61  O          9.0730   41.5560   32.5840 O.2   230  THR230     -0.2863
     62  CB         7.8060   42.7800   29.7030 C.3   230  THR230      0.1794
     63  OG1        7.8760   43.8540   30.6490 O.3   230  THR230     -0.2208
     64  CG2        6.4500   42.7960   29.0110 C.3   230  THR230      0.0378
     65  N         10.6050   44.0390   32.3060 N.3   232  ARG232     -0.1231
     66  CA        10.4250   45.2410   33.1080 C.3   232  ARG232      0.1694
     67  C          9.6620   44.9640   34.3950 C.2   232  ARG232      0.2592
     68  O          9.5580   45.8500   35.2470 O.2   232  ARG232     -0.2718
     69  CB         9.6830   46.3200   32.3220 C.3   232  ARG232      0.0321
     70  CG        10.1330   46.4970   30.8850 C.3   232  ARG232      0.0489
     71  CD        11.3360   47.4050   30.7740 C.3   232  ARG232      0.2205
     72  NE        11.1870   48.6040   31.5860 N.pl3 232  ARG232     -0.0865
     73  CZ        12.0680   49.5960   31.6160 C.cat 232  ARG232      0.5346
     74  NH1       13.1590   49.5420   30.8650 N.pl3 232  ARG232      0.1354
     75  NH2       11.8560   50.6430   32.3980 N.pl3 232  ARG232      0.1354
     76  N          9.1280   43.7610   34.5520 N.am  233  ASP233     -0.1974
     77  CA         8.3150   43.3910   35.7060 C.3   233  ASP233      0.1709
     78  C          9.0940   42.8970   36.9190 C.2   233  ASP233      0.2293
     79  O          8.4770   42.4340   37.8940 O.2   233  ASP233     -0.2864
     80  CB         7.2500   42.3950   35.2840 C.3   233  ASP233      0.1436
     81  CG         6.4190   42.9290   34.1560 C.2   233  ASP233      0.3671
     82  OD1        5.7300   43.9210   34.3860 O.co2 233  ASP233     -0.2456
     83  OD2        6.4510   42.3640   33.0550 O.co2 233  ASP233     -0.2456
     84  N         -0.1840   40.5520   39.5850 N.3   477  LYS477     -0.1231
     85  CA         0.8520   41.4000   38.9980 C.3   477  LYS477      0.1693
     86  C          1.2520   42.5440   39.9220 C.2   477  LYS477      0.2591
     87  O          2.3930   43.0160   39.8630 O.2   477  LYS477     -0.2718
     88  CB         0.3800   41.9520   37.6520 C.3   477  LYS477      0.0285
     89  CG        -0.8770   42.7990   37.7390 C.3   477  LYS477      0.0035
     90  CD        -1.2030   43.4550   36.4110 C.3   477  LYS477      0.0206
     91  CE        -2.4010   44.3760   36.5480 C.3   477  LYS477      0.1093
     92  NZ        -2.6900   45.0980   35.2810 N.3   477  LYS477     -0.1314
     93  N          0.3410   42.9950   40.7830 N.am  478  GLU478     -0.1979
     94  CA         0.5940   44.1210   41.6710 C.3   478  GLU478      0.1602
     95  C          1.0400   43.7000   43.0660 C.2   478  GLU478      0.2287
     96  O          1.3830   44.5680   43.8750 O.2   478  GLU478     -0.2864
     97  CB        -0.6650   44.9930   41.7830 C.3   478  GLU478      0.0415
     98  CG        -1.2980   45.3550   40.4430 C.3   478  GLU478      0.1163
     99  CD        -0.7060   46.6080   39.8270 C.2   478  GLU478      0.3649
    100  OE1       -0.3090   47.5140   40.5890 O.co2 478  GLU478     -0.2457
    101  OE2       -0.6400   46.6890   38.5820 O.co2 478  GLU478     -0.2457
@<TRIPOS>BOND
     1     1     2    1
     2     2     3    1
     3     2     5    1
     4     3     6   am
     5     3     4    2
     6     8     9    2
     7     8     7    1
     8     6     7    1
     9    14    15    1
    10     7    10    1
    11    25    26    2
    12    25    24    1
    13    10    11    1
    14    23    24    1
    15    23    16   am
    16    15    16    1
    17    15    18    1
    18    29    27    1
    19    24    27    1
    20    27    28    1
    21    11    12    1
    22    16    17    2
    23    45    43    1
    24    12    13    1
    25    18    19    1
    26    28    30    1
    27    43    42    1
    28    44    42    1
    29    19    20    1
    30    42    39    1
    31    20    21    1
    32    64    62    1
    33    62    59    1
    34    62    63    1
    35    49    48    2
    36    39    40    1
    37    39    38    1
    38    21    22    1
    39    59    58    1
    40    59    60    1
    41    40    41    2
    42    40    46   am
    43    38    33   am
    44    71    70    1
    45    71    72    1
    46    48    58   am
    47    48    47    1
    48    74    73    1
    49    70    69    1
    50    46    47    1
    51    60    61    2
    52    33    34    2
    53    33    32    1
    54    72    73    2
    55    73    75    1
    56    47    50    1
    57    32    31    1
    58    32    35    1
    59    65    66    1
    60    69    66    1
    61    50    51    1
    62    31    37    1
    63    83    81   ar
    64    66    67    1
    65    35    36    1
    66    51    53   ar
    67    51    52   ar
    68    53    55   ar
    69    81    82   ar
    70    81    80    1
    71    67    76   am
    72    67    68    2
    73    37    36    1
    74    76    77    1
    75    52    54   ar
    76    55    56   ar
    77    92    91    1
    78    80    77    1
    79    77    78    1
    80    54    56   ar
    81    56    57    1
    82    90    91    1
    83    90    89    1
    84    78    79    2
    85    88    89    1
    86    88    85    1
    87   101    99   ar
    88    85    84    1
    89    85    86    1
    90    99    98    1
    91    99   100   ar
    92    87    86    2
    93    86    93   am
    94    98    97    1
    95    93    94    1
    96    94    97    1
    97    94    95    1
    98    95    96    2
