@<TRIPOS>MOLECULE
tmp/5mehA00.pdb
 133 127 0 0 0
SMALL
GASTEIGER

@<TRIPOS>ATOM
      1  N         21.3890   12.0750   39.0240 N.3    96  PHE96      -0.1227
      2  CA        22.2310   12.2980   40.2130 C.3    96  PHE96       0.1736
      3  C         21.4140   12.9050   41.3760 C.2    96  PHE96       0.2595
      4  O         21.4440   12.4210   42.5260 O.2    96  PHE96      -0.2718
      5  CB        23.3890   13.2440   39.7870 C.3    96  PHE96       0.0547
      6  CG        24.1640   13.8990   40.9300 C.ar   96  PHE96      -0.0202
      7  CD1       25.1120   13.1720   41.6760 C.ar   96  PHE96      -0.0042
      8  CD2       23.9730   15.2490   41.2250 C.ar   96  PHE96      -0.0042
      9  CE1       25.8440   13.8190   42.6800 C.ar   96  PHE96      -0.0003
     10  CE2       24.6820   15.8750   42.2440 C.ar   96  PHE96      -0.0003
     11  CZ        25.6240   15.1510   42.9850 C.ar   96  PHE96      -0.0000
     12  N         20.7070   14.0320   41.0740 N.am   97  GLU97      -0.1979
     13  CA        19.9700   14.7420   42.1350 C.3    97  GLU97       0.1602
     14  C         18.8140   13.8570   42.6790 C.2    97  GLU97       0.2287
     15  O         18.4940   13.8590   43.8780 O.2    97  GLU97      -0.2864
     16  CB        19.3880   16.0800   41.6020 C.3    97  GLU97       0.0415
     17  CG        20.4540   17.1120   41.1730 C.3    97  GLU97       0.1163
     18  CD        21.2820   17.7480   42.3080 C.2    97  GLU97       0.3649
     19  OE1       20.9850   17.5350   43.4800 O.co2  97  GLU97      -0.2457
     20  OE2       22.2720   18.4970   41.9500 O.co2  97  GLU97      -0.2457
     21  N         20.3850   11.1410   45.1160 N.3   100  ILE100     -0.1231
     22  CA        20.9270   11.5270   46.4310 C.3   100  ILE100      0.1692
     23  C         19.8340   12.1570   47.3210 C.2   100  ILE100      0.2591
     24  O         19.8940   12.0590   48.5610 O.2   100  ILE100     -0.2718
     25  CB        22.1970   12.4110   46.3280 C.3   100  ILE100      0.0266
     26  CG1       21.9050   13.8200   45.7490 C.3   100  ILE100      0.0019
     27  CG2       23.3180   11.6540   45.5850 C.3   100  ILE100      0.0020
     28  CD1       23.0990   14.7590   45.7330 C.3   100  ILE100      0.0001
     29  N         18.8390   12.8240   46.6870 N.am  101  ARG101     -0.1980
     30  CA        17.7880   13.5300   47.4720 C.3   101  ARG101      0.1597
     31  C         16.5770   12.6370   47.7790 C.2   101  ARG101      0.2287
     32  O         16.1220   12.5720   48.9370 O.2   101  ARG101     -0.2864
     33  CB        17.3180   14.7970   46.7290 C.3   101  ARG101      0.0334
     34  CG        18.4300   15.8320   46.5300 C.3   101  ARG101      0.0492
     35  CD        17.9950   17.0000   45.6920 C.3   101  ARG101      0.2205
     36  NE        19.0680   17.9800   45.4140 N.pl3 101  ARG101     -0.0865
     37  CZ        19.0750   19.2110   45.8640 C.cat 101  ARG101      0.5346
     38  NH1       18.2550   19.6340   46.8520 N.pl3 101  ARG101      0.1354
     39  NH2       19.9350   20.0780   45.3180 N.pl3 101  ARG101      0.1354
     40  N         34.0300   15.6770   43.3550 N.3   225  ASP225     -0.1225
     41  CA        33.8300   15.5690   44.8220 C.3   225  ASP225      0.1805
     42  C         33.2410   14.2220   45.3540 C.2   225  ASP225      0.2598
     43  O         33.9960   13.4160   45.9360 O.2   225  ASP225     -0.2718
     44  CB        33.0620   16.8130   45.3370 C.3   225  ASP225      0.1424
     45  CG        31.7820   17.2290   44.6140 C.2   225  ASP225      0.3668
     46  OD1       31.1530   16.4030   43.8930 O.co2 225  ASP225     -0.2456
     47  OD2       31.4130   18.4390   44.8430 O.co2 225  ASP225     -0.2456
     48  N         31.9290   14.0220   45.2470 N.am  226  SER226     -0.1952
     49  CA        31.2940   12.9060   45.9620 C.3   226  SER226      0.1924
     50  C         31.6700   11.5210   45.4130 C.2   226  SER226      0.2314
     51  O         31.4640   10.5130   46.1360 O.2   226  SER226     -0.2863
     52  CB        29.7690   13.1290   46.0360 C.3   226  SER226      0.2116
     53  OG        29.2040   13.4520   44.7670 O.3   226  SER226     -0.2180
     54  N         32.0900   24.3790   48.1810 N.3   286  LEU286     -0.1245
     55  CA        31.6390   22.9850   48.2910 C.3   286  LEU286      0.1561
     56  C         32.8200   22.0330   48.5190 C.2   286  LEU286      0.2260
     57  O         32.6130   20.8870   49.0230 O.2   286  LEU286     -0.2867
     58  CB        30.7900   22.5570   47.0870 C.3   286  LEU286      0.0270
     59  CG        29.3690   23.1860   46.9420 C.3   286  LEU286      0.0019
     60  CD1       29.4010   24.6640   46.5890 C.3   286  LEU286      0.0001
     61  CD2       28.5840   22.3650   45.9410 C.3   286  LEU286      0.0001
     62  N         25.0180   27.1830   51.9810 N.3   339  ARG339     -0.1231
     63  CA        25.7160   25.9080   51.7750 C.3   339  ARG339      0.1679
     64  C         26.1260   25.2170   53.0780 C.2   339  ARG339      0.2434
     65  O         26.5310   25.8770   54.0850 O.2   339  ARG339     -0.2733
     66  CB        26.9840   26.1350   50.9100 C.3   339  ARG339      0.0321
     67  CG        26.7050   26.5730   49.4590 C.3   339  ARG339      0.0489
     68  CD        26.1680   25.4470   48.5670 C.3   339  ARG339      0.2205
     69  NE        25.8680   25.9570   47.2280 N.pl3 339  ARG339     -0.0865
     70  CZ        25.3470   25.1880   46.2460 C.cat 339  ARG339      0.5346
     71  NH1       25.1140   23.8940   46.4090 N.pl3 339  ARG339      0.1354
     72  NH2       25.0500   25.7660   45.0700 N.pl3 339  ARG339      0.1354
     73  N         26.1320   23.8530   53.0820 N.am  340  PRO340     -0.2718
     74  CA        26.3330   23.0670   54.3240 C.3   340  PRO340      0.1535
     75  C         27.7490   22.4500   54.5340 C.2   340  PRO340      0.2598
     76  O         27.9330   21.7350   55.5440 O.2   340  PRO340     -0.2715
     77  CB        25.3150   21.9030   54.1440 C.3   340  PRO340      0.0310
     78  CG        25.4330   21.6080   52.6480 C.3   340  PRO340      0.0237
     79  CD        25.4720   23.0000   52.0200 C.3   340  PRO340      0.0939
     80  N         28.7090   22.6580   53.5910 N.am  341  GLU341     -0.1978
     81  CA        29.9230   21.7920   53.6320 C.3   341  GLU341      0.1602
     82  C         30.8620   22.0780   54.8110 C.2   341  GLU341      0.2287
     83  O         31.6400   21.1680   55.1860 O.2   341  GLU341     -0.2864
     84  CB        30.6720   21.8190   52.2900 C.3   341  GLU341      0.0415
     85  CG        29.9100   21.1120   51.1450 C.3   341  GLU341      0.1163
     86  CD        28.7610   21.8800   50.5070 C.2   341  GLU341      0.3649
     87  OE1       28.5850   23.1300   50.7520 O.co2 341  GLU341     -0.2457
     88  OE2       28.0040   21.2430   49.7040 O.co2 341  GLU341     -0.2457
     89  N         29.5410   20.0330   57.6940 N.3   344  ASP344     -0.1239
     90  CA        29.7670   18.6340   57.2210 C.3   344  ASP344      0.1674
     91  C         31.1880   18.1870   57.6670 C.2   344  ASP344      0.2266
     92  O         31.3820   17.1630   58.3920 O.2   344  ASP344     -0.2867
     93  CB        29.6160   18.6310   55.6740 C.3   344  ASP344      0.1410
     94  CG        29.9500   17.3590   54.9040 C.2   344  ASP344      0.3668
     95  OD1       30.6000   16.4330   55.4880 O.co2 344  ASP344     -0.2456
     96  OD2       29.6040   17.3130   53.6900 O.co2 344  ASP344     -0.2456
     97  N         18.4670   20.8020   50.1910 N.3   399  TYR399     -0.1241
     98  CA        19.5250   20.1800   51.0050 C.3   399  TYR399      0.1605
     99  C         19.6060   20.8100   52.4170 C.2   399  TYR399      0.2264
    100  O         20.1280   20.1330   53.3430 O.2   399  TYR399     -0.2867
    101  CB        20.9040   20.1920   50.2930 C.3   399  TYR399      0.0534
    102  CG        21.3630   21.5170   49.6860 C.ar  399  TYR399     -0.0201
    103  CD1       21.7780   22.6130   50.4910 C.ar  399  TYR399     -0.0009
    104  CD2       21.3870   21.6870   48.3040 C.ar  399  TYR399     -0.0009
    105  CE1       22.2000   23.8270   49.9040 C.ar  399  TYR399      0.0417
    106  CE2       21.8170   22.8780   47.7020 C.ar  399  TYR399      0.0417
    107  CZ        22.2070   23.9500   48.5230 C.ar  399  TYR399      0.1957
    108  OH        22.5700   25.1480   47.8920 O.3   399  TYR399     -0.2866
    109  N         20.7950   18.5320   55.5880 N.3   403  GLU403     -0.1245
    110  CA        22.2160   18.6960   55.9350 C.3   403  GLU403      0.1567
    111  C         22.4860   19.5760   57.1740 C.2   403  GLU403      0.2260
    112  O         22.7260   19.0290   58.2720 O.2   403  GLU403     -0.2867
    113  CB        23.0190   19.1640   54.7130 C.3   403  GLU403      0.0388
    114  CG        23.0110   18.1390   53.5610 C.3   403  GLU403      0.1160
    115  CD        24.2090   18.2700   52.6320 C.2   403  GLU403      0.3649
    116  OE1       25.3810   18.2770   53.1600 O.co2 403  GLU403     -0.2457
    117  OE2       23.9930   18.3570   51.3960 O.co2 403  GLU403     -0.2457
    118  N         26.1500   11.6640   50.9950 N.3   427  THR427     -0.1203
    119  CA        26.6510   13.0110   50.6580 C.3   427  THR427      0.1994
    120  C         25.5800   14.1210   50.8290 C.2   427  THR427      0.2617
    121  O         25.8920   15.3160   50.7820 O.2   427  THR427     -0.2717
    122  CB        27.2550   13.0590   49.2150 C.3   427  THR427      0.1784
    123  OG1       28.1160   14.2110   49.0950 O.3   427  THR427     -0.2211
    124  CG2       26.2070   13.1090   48.1150 C.3   427  THR427      0.0376
    125  N         24.2920   13.6840   50.9890 N.am  428  GLU428     -0.1979
    126  CA        23.1280   14.5420   51.2730 C.3   428  GLU428      0.1602
    127  C         22.7470   14.4840   52.7770 C.2   428  GLU428      0.2287
    128  O         21.6760   14.9430   53.1950 O.2   428  GLU428     -0.2864
    129  CB        21.9340   14.0620   50.4020 C.3   428  GLU428      0.0415
    130  CG        20.7310   15.0060   50.2890 C.3   428  GLU428      0.1163
    131  CD        20.9680   16.2120   49.3910 C.2   428  GLU428      0.3649
    132  OE1       21.9730   16.2690   48.6460 O.co2 428  GLU428     -0.2457
    133  OE2       20.0590   17.1540   49.3660 O.co2 428  GLU428     -0.2457
@<TRIPOS>BOND
     1     1     2    1
     2     5     2    1
     3     5     6    1
     4     2     3    1
     5     6     8   ar
     6     6     7   ar
     7    12     3   am
     8    12    13    1
     9    17    16    1
    10    17    18    1
    11     8    10   ar
    12     3     4    2
    13    16    13    1
    14     7     9   ar
    15    20    18   ar
    16    13    14    1
    17    10    11   ar
    18    18    19   ar
    19    14    15    2
    20     9    11   ar
    21    40    41    1
    22    46    45   ar
    23    45    47   ar
    24    45    44    1
    25    53    52    1
    26    41    44    1
    27    41    42    1
    28    72    70    1
    29    21    22    1
    30    48    42   am
    31    48    49    1
    32    39    37    1
    33    42    43    2
    34    50    49    1
    35    50    51    2
    36    36    35    1
    37    36    37    2
    38    27    25    1
    39    35    34    1
    40    28    26    1
    41    26    25    1
    42    37    38    1
    43    61    59    1
    44    49    52    1
    45    70    71    1
    46    70    69    2
    47    25    22    1
    48    22    23    1
    49    34    33    1
    50    60    59    1
    51    29    23   am
    52    29    30    1
    53    33    30    1
    54    59    58    1
    55    58    55    1
    56    69    68    1
    57    23    24    2
    58    30    31    1
    59   106   104   ar
    60   106   107   ar
    61    31    32    2
    62   108   107    1
    63   124   122    1
    64    54    55    1
    65    55    56    1
    66   104   102   ar
    67    56    57    2
    68   107   105   ar
    69    68    67    1
    70   132   131   ar
    71   123   122    1
    72   122   119    1
    73   133   131   ar
    74   131   130    1
    75    67    66    1
    76   102   101    1
    77   102   103   ar
    78    88    86   ar
    79   105   103   ar
    80    97    98    1
    81   130   129    1
    82   101    98    1
    83   129   126    1
    84    86    87   ar
    85    86    85    1
    86   119   120    1
    87   119   118    1
    88   121   120    2
    89   120   125   am
    90    66    63    1
    91   125   126    1
    92    98    99    1
    93    85    84    1
    94   126   127    1
    95   117   115   ar
    96    63    62    1
    97    63    64    1
    98    79    78    1
    99    79    73    1
   100    84    81    1
   101    99   100    2
   102   115   116   ar
   103   115   114    1
   104    78    77    1
   105   127   128    2
   106    64    73   am
   107    64    65    2
   108    73    74    1
   109   114   113    1
   110    80    81    1
   111    80    75   am
   112    81    82    1
   113    96    94   ar
   114    77    74    1
   115    74    75    1
   116    75    76    2
   117   113   110    1
   118    82    83    2
   119    94    95   ar
   120    94    93    1
   121   109   110    1
   122    93    90    1
   123   110   111    1
   124   111   112    2
   125    90    91    1
   126    90    89    1
   127    91    92    2
