@<TRIPOS>MOLECULE
tmp/5melA01.pdb
 119 118 0 0 0
SMALL
GASTEIGER

@<TRIPOS>ATOM
      1  N          6.0680   32.8810    6.8510 N.3    14  TYR14      -0.1241
      2  CA         5.4230   32.0620    7.8570 C.3    14  TYR14       0.1605
      3  C          5.4260   32.8630    9.1780 C.2    14  TYR14       0.2264
      4  O          6.4540   33.3360    9.6370 O.2    14  TYR14      -0.2867
      5  CB         6.1690   30.6980    7.9730 C.3    14  TYR14       0.0534
      6  CG         5.9560   29.9430    6.6750 C.ar   14  TYR14      -0.0201
      7  CD1        6.7740   30.1920    5.5740 C.ar   14  TYR14      -0.0009
      8  CD2        4.8760   29.1030    6.4960 C.ar   14  TYR14      -0.0009
      9  CE1        6.5000   29.6150    4.3520 C.ar   14  TYR14       0.0417
     10  CE2        4.5770   28.5140    5.2640 C.ar   14  TYR14       0.0417
     11  CZ         5.3970   28.7910    4.1780 C.ar   14  TYR14       0.1957
     12  OH         5.1410   28.2550    2.9160 O.3    14  TYR14      -0.2866
     13  N          4.1490   31.6140   12.2120 N.3    16  TRP16      -0.1241
     14  CA         3.7490   30.5970   13.1890 C.3    16  TRP16       0.1605
     15  C          4.7850   30.3920   14.3160 C.2    16  TRP16       0.2264
     16  O          4.6240   29.4570   15.1300 O.2    16  TRP16      -0.2867
     17  CB         3.4140   29.3030   12.4640 C.3    16  TRP16       0.0550
     18  CG         4.4770   28.7000   11.5620 C.ar   16  TRP16       0.0003
     19  CD1        5.8440   28.8200   11.6610 C.ar   16  TRP16       0.0946
     20  CD2        4.2420   27.8080   10.4640 C.ar   16  TRP16       0.0152
     21  NE1        6.4440   28.0640   10.6930 N.ar   16  TRP16      -0.2442
     22  CE2        5.4900   27.4400    9.9370 C.ar   16  TRP16       0.0810
     23  CE3        3.0840   27.2910    9.8610 C.ar   16  TRP16       0.0012
     24  CZ2        5.6170   26.5220    8.8660 C.ar   16  TRP16       0.0191
     25  CZ3        3.2160   26.3980    8.7890 C.ar   16  TRP16       0.0001
     26  CH2        4.4560   26.0400    8.2960 C.ar   16  TRP16       0.0015
     27  N         -3.9470   30.0560    8.0190 N.3    94  TRP94      -0.1241
     28  CA        -4.4330   28.7780    8.5270 C.3    94  TRP94       0.1605
     29  C         -5.8400   28.8250    9.1200 C.2    94  TRP94       0.2264
     30  O         -6.3400   27.8070    9.6180 O.2    94  TRP94      -0.2867
     31  CB        -3.4410   28.2100    9.5680 C.3    94  TRP94       0.0550
     32  CG        -2.2440   27.6540    8.9080 C.ar   94  TRP94       0.0003
     33  CD1       -1.0810   28.2920    8.6730 C.ar   94  TRP94       0.0946
     34  CD2       -2.1350   26.3660    8.2620 C.ar   94  TRP94       0.0152
     35  NE1       -0.2200   27.4650    7.9900 N.ar   94  TRP94      -0.2442
     36  CE2       -0.8500   26.2850    7.6990 C.ar   94  TRP94       0.0810
     37  CE3       -2.9950   25.2680    8.1290 C.ar   94  TRP94       0.0012
     38  CZ2       -0.4020   25.1660    7.0110 C.ar   94  TRP94       0.0191
     39  CZ3       -2.5660   24.1480    7.4350 C.ar   94  TRP94       0.0001
     40  CH2       -1.2720   24.0960    6.8790 C.ar   94  TRP94       0.0015
     41  N         -1.6740   33.4100    1.4530 N.3   122  HIS122     -0.1241
     42  CA        -1.4080   32.0630    0.9520 C.3   122  HIS122      0.1621
     43  C         -2.3620   31.1500    1.7310 C.2   122  HIS122      0.2264
     44  O         -2.1430   30.8440    2.9230 O.2   122  HIS122     -0.2867
     45  CB         0.0620   31.7340    1.2270 C.3   122  HIS122      0.0745
     46  CG         0.5490   30.4430    0.6500 C.ar  122  HIS122      0.0817
     47  ND1        1.7670   29.8940    0.9910 N.ar  122  HIS122     -0.2268
     48  CD2        0.0260   29.6330   -0.3080 C.ar  122  HIS122      0.1154
     49  CE1        1.9850   28.8180    0.2390 C.ar  122  HIS122      0.1986
     50  NE2        0.9440   28.6260   -0.5480 N.ar  122  HIS122     -0.2212
     51  N         -4.0030   28.1280    3.1140 N.3   124  GLU124     -0.1231
     52  CA        -3.5410   26.7950    3.4260 C.3   124  GLU124      0.1684
     53  C         -4.6920   25.8040    3.5070 C.2   124  GLU124      0.2434
     54  O         -5.8640   26.2130    3.5660 O.2   124  GLU124     -0.2733
     55  CB        -2.7430   26.8520    4.7440 C.3   124  GLU124      0.0402
     56  CG        -1.5310   27.7410    4.6740 C.3   124  GLU124      0.1161
     57  CD        -0.2970   27.0830    4.0730 C.2   124  GLU124      0.3649
     58  OE1       -0.3970   25.9390    3.5640 O.co2 124  GLU124     -0.2457
     59  OE2        0.7770   27.7670    4.1150 O.co2 124  GLU124     -0.2457
     60  N         -4.3820   24.4900    3.5830 N.am  125  PRO125     -0.2729
     61  CA        -5.4410   23.4580    3.6440 C.3   125  PRO125      0.1401
     62  C         -5.9540   23.2780    5.0740 C.2   125  PRO125      0.2269
     63  O         -5.6860   22.2830    5.7570 O.2   125  PRO125     -0.2865
     64  CB        -4.7770   22.2090    3.0860 C.3   125  PRO125      0.0296
     65  CG        -3.3800   22.5200    2.8450 C.3   125  PRO125      0.0237
     66  CD        -3.0690   23.8890    3.2810 C.3   125  PRO125      0.0939
     67  N         -2.7560   26.7850   -1.6690 N.3   163  TYR163     -0.1241
     68  CA        -1.9150   25.6060   -1.4990 C.3   163  TYR163      0.1605
     69  C         -2.7570   24.3370   -1.5800 C.2   163  TYR163      0.2264
     70  O         -3.8790   24.2930   -1.0730 O.2   163  TYR163     -0.2867
     71  CB        -1.0870   25.6580   -0.2000 C.3   163  TYR163      0.0534
     72  CG        -0.0570   24.5520   -0.1330 C.ar  163  TYR163     -0.0201
     73  CD1        1.0930   24.5850   -0.8740 C.ar  163  TYR163     -0.0009
     74  CD2       -0.2420   23.4420    0.6580 C.ar  163  TYR163     -0.0009
     75  CE1        1.9910   23.5340   -0.8670 C.ar  163  TYR163      0.0417
     76  CE2        0.6580   22.4110    0.6630 C.ar  163  TYR163      0.0417
     77  CZ         1.7730   22.4520   -0.1170 C.ar  163  TYR163      0.1957
     78  OH         2.6710   21.4020   -0.1310 O.3   163  TYR163     -0.2866
     79  N          5.4010   26.1610   -5.9480 N.3   220  TYR220     -0.1241
     80  CA         5.8340   26.1040   -4.5310 C.3   220  TYR220      0.1605
     81  C          7.1770   25.4170   -4.2380 C.2   220  TYR220      0.2264
     82  O          8.0640   26.0330   -3.6390 O.2   220  TYR220     -0.2867
     83  CB         4.7570   25.5520   -3.5660 C.3   220  TYR220      0.0534
     84  CG         5.2140   25.7830   -2.1360 C.ar  220  TYR220     -0.0201
     85  CD1        5.1220   27.0500   -1.5470 C.ar  220  TYR220     -0.0009
     86  CD2        5.8440   24.7910   -1.4160 C.ar  220  TYR220     -0.0009
     87  CE1        5.6580   27.3250   -0.3230 C.ar  220  TYR220      0.0417
     88  CE2        6.4090   25.0630   -0.1620 C.ar  220  TYR220      0.0417
     89  CZ         6.2940   26.3220    0.3960 C.ar  220  TYR220      0.1957
     90  OH         6.8990   26.5810    1.6280 O.3   220  TYR220     -0.2866
     91  N         11.8450   15.4400    9.6250 N.3   263  ARG263     -0.1245
     92  CA        11.4870   14.2710    8.7910 C.3   263  ARG263      0.1563
     93  C         12.7680   13.5030    8.4880 C.2   263  ARG263      0.2260
     94  O         13.3330   13.5960    7.3800 O.2   263  ARG263     -0.2867
     95  CB        10.7670   14.7150    7.4990 C.3   263  ARG263      0.0307
     96  CG         9.4980   15.5420    7.6870 C.3   263  ARG263      0.0489
     97  CD         8.8050   15.8220    6.3450 C.3   263  ARG263      0.2205
     98  NE         7.6390   16.6900    6.5130 N.pl3 263  ARG263     -0.0865
     99  CZ         7.5160   17.9350    6.0420 C.cat 263  ARG263      0.5346
    100  NH1        8.4870   18.5340    5.3840 N.pl3 263  ARG263      0.1354
    101  NH2        6.3860   18.6010    6.2440 N.pl3 263  ARG263      0.1354
    102  N         10.6350   29.4480    5.9760 N.3   301  GLN301     -0.1245
    103  CA        10.1730   28.0750    6.2810 C.3   301  GLN301      0.1566
    104  C         11.4160   27.3150    6.8020 C.2   301  GLN301      0.2260
    105  O         12.0810   26.5540    6.1040 O.2   301  GLN301     -0.2867
    106  CB         9.4960   27.4020    5.0850 C.3   301  GLN301      0.0367
    107  CG         8.2390   26.6140    5.4300 C.3   301  GLN301      0.0905
    108  CD         8.4550   25.4510    6.3700 C.2   301  GLN301      0.2608
    109  OE1        9.4230   25.3760    7.1220 O.2   301  GLN301     -0.2717
    110  NE2        7.4960   24.5360    6.3690 N.am  301  GLN301     -0.0878
    111  N         11.9800   23.4180    6.6840 N.3   304  GLU304     -0.1245
    112  CA        12.2740   22.8000    5.4050 C.3   304  GLU304      0.1567
    113  C         13.5600   23.3250    4.7520 C.2   304  GLU304      0.2260
    114  O         13.9300   22.8850    3.6650 O.2   304  GLU304     -0.2867
    115  CB        11.0630   22.9120    4.4840 C.3   304  GLU304      0.0388
    116  CG         9.9020   22.0730    5.0070 C.3   304  GLU304      0.1160
    117  CD         8.6850   22.0120    4.1210 C.2   304  GLU304      0.3649
    118  OE1        8.6260   22.7440    3.1030 O.co2 304  GLU304     -0.2457
    119  OE2        7.7700   21.2170    4.4740 O.co2 304  GLU304     -0.2457
@<TRIPOS>BOND
     1    79    80    1
     2    80    81    1
     3    80    83    1
     4    81    82    2
     5    83    84    1
     6    84    85   ar
     7    84    86   ar
     8    67    68    1
     9    69    68    1
    10    69    70    2
    11    85    87   ar
    12    68    71    1
    13    86    88   ar
    14    73    75   ar
    15    73    72   ar
    16    75    77   ar
    17    50    48   ar
    18    50    49   ar
    19    87    89   ar
    20    48    46   ar
    21    71    72    1
    22    88    89   ar
    23    72    74   ar
    24    78    77    1
    25    77    76   ar
    26    49    47   ar
    27    89    90    1
    28    46    47   ar
    29    46    45    1
    30    74    76   ar
    31    42    45    1
    32    42    41    1
    33    42    43    1
    34    43    44    2
    35    65    64    1
    36    65    66    1
    37    12    11    1
    38    64    61    1
    39   118   117   ar
    40    51    52    1
    41    66    60    1
    42    52    53    1
    43    52    55    1
    44    53    54    2
    45    53    60   am
    46    58    57   ar
    47    60    61    1
    48    61    62    1
    49   114   113    2
    50    57    59   ar
    51    57    56    1
    52   117   119   ar
    53   117   116    1
    54    11     9   ar
    55    11    10   ar
    56     9     7   ar
    57   115   116    1
    58   115   112    1
    59    56    55    1
    60   113   112    1
    61    62    63    2
    62   106   107    1
    63   106   103    1
    64    10     8   ar
    65   100    99    1
    66   112   111    1
    67   107   108    1
    68     7     6   ar
    69   102   103    1
    70    99   101    1
    71    99    98    2
    72   105   104    2
    73   103   104    1
    74    97    98    1
    75    97    96    1
    76   110   108   am
    77   108   109    2
    78     8     6   ar
    79     6     5    1
    80     1     2    1
    81    40    38   ar
    82    40    39   ar
    83    38    36   ar
    84    94    93    2
    85    39    37   ar
    86    95    96    1
    87    95    92    1
    88    36    35   ar
    89    36    34   ar
    90     2     5    1
    91     2     3    1
    92    35    33   ar
    93    27    28    1
    94    37    34   ar
    95    34    32   ar
    96    26    25   ar
    97    26    24   ar
    98    93    92    1
    99    28    29    1
   100    28    31    1
   101    33    32   ar
   102    25    23   ar
   103    92    91    1
   104    24    22   ar
   105    32    31    1
   106    29    30    2
   107     3     4    2
   108    23    20   ar
   109    22    20   ar
   110    22    21   ar
   111    20    18   ar
   112    21    19   ar
   113    18    19   ar
   114    18    17    1
   115    13    14    1
   116    17    14    1
   117    14    15    1
   118    15    16    2
