@<TRIPOS>MOLECULE
tmp/5mesA00.pdb
 164 154 0 0 0
SMALL
GASTEIGER

@<TRIPOS>ATOM
      1  N        -11.4550  -15.3080  -21.6770 N.3    53  HIS53      -0.1241
      2  CA       -12.0180  -14.2690  -22.5250 C.3    53  HIS53       0.1621
      3  C        -12.5160  -14.8940  -23.8370 C.2    53  HIS53       0.2264
      4  O        -12.5120  -14.2320  -24.8780 O.2    53  HIS53      -0.2867
      5  CB       -10.9850  -13.1520  -22.7700 C.3    53  HIS53       0.0745
      6  CG       -10.5900  -12.3950  -21.5370 C.ar   53  HIS53       0.0817
      7  ND1       -9.6850  -12.9180  -20.6250 N.ar   53  HIS53      -0.2268
      8  CD2      -10.9550  -11.1580  -21.1270 C.ar   53  HIS53       0.1154
      9  CE1       -9.5440  -11.9950  -19.6870 C.ar   53  HIS53       0.1986
     10  NE2      -10.2840  -10.9150  -19.9470 N.ar   53  HIS53      -0.2212
     11  N        -15.5300  -12.9520  -25.6300 N.3    56  ALA56      -0.1231
     12  CA       -14.9600  -11.7070  -26.1510 C.3    56  ALA56       0.1694
     13  C        -14.0550  -11.9850  -27.3610 C.2    56  ALA56       0.2592
     14  O        -14.0620  -11.2040  -28.3150 O.2    56  ALA56      -0.2718
     15  CB       -14.1720  -10.9960  -25.0600 C.3    56  ALA56       0.0304
     16  N        -13.2980  -13.1080  -27.3290 N.am   57  PHE57      -0.1976
     17  CA       -12.4130  -13.5280  -28.4250 C.3    57  PHE57       0.1639
     18  C        -13.2320  -14.0190  -29.6270 C.2    57  PHE57       0.2290
     19  O        -12.8970  -13.6750  -30.7630 O.2    57  PHE57      -0.2864
     20  CB       -11.3900  -14.5890  -27.9580 C.3    57  PHE57       0.0560
     21  CG       -10.1130  -14.0950  -27.2970 C.ar   57  PHE57      -0.0200
     22  CD1      -10.0650  -12.8510  -26.6700 C.ar   57  PHE57      -0.0042
     23  CD2       -8.9790  -14.8980  -27.2540 C.ar   57  PHE57      -0.0042
     24  CE1       -8.8940  -12.4040  -26.0520 C.ar   57  PHE57      -0.0003
     25  CE2       -7.8040  -14.4490  -26.6400 C.ar   57  PHE57      -0.0003
     26  CZ        -7.7720  -13.2090  -26.0360 C.ar   57  PHE57      -0.0000
     27  N        -14.8650  -10.8230  -31.2170 N.3    60  MET60      -0.1245
     28  CA       -13.8530  -10.0410  -31.9390 C.3    60  MET60       0.1570
     29  C        -13.5060  -10.6800  -33.2780 C.2    60  MET60       0.2261
     30  O        -13.3240   -9.9640  -34.2650 O.2    60  MET60      -0.2867
     31  CB       -12.5790   -9.9000  -31.1070 C.3    60  MET60       0.0387
     32  CG       -12.5010   -8.6160  -30.3170 C.3    60  MET60       0.0595
     33  SD       -10.8400   -8.2630  -29.6720 S.3    60  MET60      -0.1393
     34  CE       -10.5330   -9.7720  -28.7140 C.3    60  MET60       0.0692
     35  N        -14.2510   -9.0540  -36.9630 N.3    64  LEU64      -0.1245
     36  CA       -13.1050   -8.7900  -37.8360 C.3    64  LEU64       0.1561
     37  C        -13.3150   -9.2730  -39.2770 C.2    64  LEU64       0.2260
     38  O        -12.7890   -8.6420  -40.2040 O.2    64  LEU64      -0.2867
     39  CB       -11.7930   -9.3340  -37.2460 C.3    64  LEU64       0.0270
     40  CG       -11.0840   -8.4470  -36.2120 C.3    64  LEU64       0.0019
     41  CD1       -9.8780   -9.1520  -35.6330 C.3    64  LEU64       0.0001
     42  CD2      -10.6600   -7.1110  -36.8040 C.3    64  LEU64       0.0001
     43  N         -4.6830   -6.3940  -40.1340 N.3    75  LEU75      -0.1245
     44  CA        -4.7840   -6.7970  -38.7260 C.3    75  LEU75       0.1561
     45  C         -3.7620   -6.1080  -37.7900 C.2    75  LEU75       0.2260
     46  O         -3.9410   -6.0930  -36.5680 O.2    75  LEU75      -0.2867
     47  CB        -4.7000   -8.3210  -38.6130 C.3    75  LEU75       0.0270
     48  CG        -5.8990   -9.0320  -37.9860 C.3    75  LEU75       0.0019
     49  CD1       -7.2270   -8.5770  -38.5830 C.3    75  LEU75       0.0001
     50  CD2       -5.7640  -10.5240  -38.1120 C.3    75  LEU75       0.0001
     51  N         -5.2250   -3.2330  -35.9100 N.3    78  VAL78      -0.1231
     52  CA        -6.0200   -3.7020  -34.7760 C.3    78  VAL78       0.1692
     53  C         -5.0600   -3.9940  -33.5990 C.2    78  VAL78       0.2591
     54  O         -5.3480   -3.5940  -32.4780 O.2    78  VAL78      -0.2718
     55  CB        -6.9010   -4.9210  -35.1640 C.3    78  VAL78       0.0266
     56  CG1       -7.7520   -5.3910  -33.9900 C.3    78  VAL78       0.0020
     57  CG2       -7.7890   -4.5910  -36.3620 C.3    78  VAL78       0.0020
     58  N         -3.9100   -4.6540  -33.8770 N.am   79  MET79      -0.1979
     59  CA        -2.8470   -5.0060  -32.9230 C.3    79  MET79       0.1605
     60  C         -2.3220   -3.8090  -32.1100 C.2    79  MET79       0.2287
     61  O         -2.0680   -3.9550  -30.9180 O.2    79  MET79      -0.2864
     62  CB        -1.6780   -5.6870  -33.6490 C.3    79  MET79       0.0413
     63  CG        -1.9740   -7.1070  -34.0780 C.3    79  MET79       0.0598
     64  SD        -0.7330   -7.7420  -35.2360 S.3    79  MET79      -0.1393
     65  CE        -1.7070   -8.9220  -36.1480 C.3    79  MET79       0.0692
     66  N         -3.9600   -1.2020  -31.1000 N.3    81  HIS81      -0.1226
     67  CA        -4.9900   -0.7870  -30.1340 C.3    81  HIS81       0.1752
     68  C         -4.7920   -1.4070  -28.7400 C.2    81  HIS81       0.2595
     69  O         -5.3650   -0.9220  -27.7590 O.2    81  HIS81      -0.2718
     70  CB        -6.4110   -1.0170  -30.6740 C.3    81  HIS81       0.0759
     71  CG        -6.7120   -0.2310  -31.9210 C.ar   81  HIS81       0.0818
     72  ND1       -7.5190   -0.7470  -32.9220 N.ar   81  HIS81      -0.2268
     73  CD2       -6.2800    1.0000  -32.3000 C.ar   81  HIS81       0.1154
     74  CE1       -7.5690    0.1870  -33.8630 C.ar   81  HIS81       0.1986
     75  NE2       -6.8210    1.2490  -33.5410 N.ar   81  HIS81      -0.2212
     76  N         -3.9210   -2.4290  -28.6540 N.am   82  VAL82      -0.1980
     77  CA        -3.5090   -3.0890  -27.4180 C.3    82  VAL82       0.1595
     78  C         -2.5060   -2.1460  -26.6930 C.2    82  VAL82       0.2287
     79  O         -2.3750   -2.2440  -25.4810 O.2    82  VAL82      -0.2864
     80  CB        -2.9310   -4.5130  -27.6950 C.3    82  VAL82       0.0276
     81  CG1       -2.5390   -5.2310  -26.4080 C.3    82  VAL82       0.0022
     82  CG2       -3.9200   -5.3660  -28.4850 C.3    82  VAL82       0.0022
     83  N         -2.3540    1.4900  -27.9390 N.3    84  SER84      -0.1202
     84  CA        -2.9170    2.7870  -28.3460 C.3    84  SER84       0.2020
     85  C         -2.9800    3.8240  -27.2220 C.2    84  SER84       0.2618
     86  O         -2.6130    4.9910  -27.4290 O.2    84  SER84      -0.2717
     87  CB        -4.3320    2.5900  -28.8850 C.3    84  SER84       0.2103
     88  OG        -4.3270    2.4240  -30.2880 O.3    84  SER84      -0.2182
     89  N         -3.4630    3.3850  -26.0360 N.am   85  ASP85      -0.1973
     90  CA        -3.6690    4.1920  -24.8340 C.3    85  ASP85       0.1709
     91  C         -2.3900    4.5530  -24.0510 C.2    85  ASP85       0.2293
     92  O         -2.4910    5.2470  -23.0350 O.2    85  ASP85      -0.2864
     93  CB        -4.6880    3.4920  -23.9220 C.3    85  ASP85       0.1436
     94  CG        -4.3370    2.0790  -23.4540 C.2    85  ASP85       0.3671
     95  OD1       -3.4000    1.4620  -24.0330 O.co2  85  ASP85      -0.2456
     96  OD2       -5.0130    1.5790  -22.5350 O.co2  85  ASP85      -0.2456
     97  N          0.6010   -8.2010  -19.1980 N.3    91  GLY91      -0.1210
     98  CA        -0.8100   -8.5500  -19.3220 C.3    91  GLY91       0.1956
     99  C         -1.3450   -8.2220  -20.7060 C.2    91  GLY91       0.2611
    100  O         -2.0760   -9.0290  -21.2830 O.2    91  GLY91      -0.2717
    101  N         -0.9420   -7.0590  -21.2730 N.am   92  ARG92      -0.1979
    102  CA        -1.3490   -6.6420  -22.6290 C.3    92  ARG92       0.1597
    103  C         -0.6430   -7.4710  -23.7010 C.2    92  ARG92       0.2287
    104  O         -1.2580   -7.8260  -24.7080 O.2    92  ARG92      -0.2864
    105  CB        -1.0240   -5.1510  -22.8750 C.3    92  ARG92       0.0334
    106  CG        -1.8600   -4.1730  -22.0730 C.3    92  ARG92       0.0492
    107  CD        -3.2300   -3.9890  -22.6880 C.3    92  ARG92       0.2205
    108  NE        -4.0420   -3.0420  -21.9290 N.pl3  92  ARG92      -0.0865
    109  CZ        -4.0540   -1.7300  -22.1360 C.cat  92  ARG92       0.5346
    110  NH1       -4.8220   -0.9450  -21.3930 N.pl3  92  ARG92       0.1354
    111  NH2       -3.3040   -1.1930  -23.0880 N.pl3  92  ARG92       0.1354
    112  N         -2.1520  -11.0160  -24.0350 N.3    95  THR95      -0.1203
    113  CA        -3.4570  -10.9160  -24.6950 C.3    95  THR95       0.1994
    114  C         -3.2490  -10.7630  -26.2040 C.2    95  THR95       0.2617
    115  O         -3.8640  -11.5140  -26.9700 O.2    95  THR95      -0.2717
    116  CB        -4.3230   -9.8320  -24.0230 C.3    95  THR95       0.1784
    117  OG1       -4.2780  -10.0640  -22.6120 O.3    95  THR95      -0.2211
    118  CG2       -5.7840   -9.8640  -24.4920 C.3    95  THR95       0.0376
    119  N         -2.3170   -9.8650  -26.6200 N.am   96  LEU96      -0.1979
    120  CA        -1.9690   -9.6550  -28.0300 C.3    96  LEU96       0.1596
    121  C         -1.5850  -10.9720  -28.7350 C.2    96  LEU96       0.2287
    122  O         -2.0720  -11.2350  -29.8400 O.2    96  LEU96      -0.2864
    123  CB        -0.8550   -8.6100  -28.1610 C.3    96  LEU96       0.0297
    124  CG        -0.1770   -8.4970  -29.5350 C.3    96  LEU96       0.0022
    125  CD1       -0.9600   -7.5870  -30.4650 C.3    96  LEU96       0.0001
    126  CD2        1.2770   -8.0280  -29.3970 C.3    96  LEU96       0.0001
    127  N         -4.7120  -13.7860  -28.6970 N.3    99  PHE99      -0.1227
    128  CA        -5.6590  -13.5280  -29.7770 C.3    99  PHE99       0.1736
    129  C         -5.0530  -13.8900  -31.1310 C.2    99  PHE99       0.2596
    130  O         -5.7720  -14.3900  -31.9990 O.2    99  PHE99      -0.2718
    131  CB        -6.1590  -12.0810  -29.7690 C.3    99  PHE99       0.0547
    132  CG        -7.3600  -11.9050  -30.6540 C.ar   99  PHE99      -0.0202
    133  CD1       -8.5620  -12.5450  -30.3600 C.ar   99  PHE99      -0.0042
    134  CD2       -7.2900  -11.1190  -31.7930 C.ar   99  PHE99      -0.0042
    135  CE1       -9.6730  -12.3920  -31.1920 C.ar   99  PHE99      -0.0003
    136  CE2       -8.4070  -10.9430  -32.6090 C.ar   99  PHE99      -0.0003
    137  CZ        -9.5890  -11.5870  -32.3060 C.ar   99  PHE99      -0.0000
    138  N         -3.7400  -13.6740  -31.2770 N.am  100  GLY100     -0.1957
    139  CA        -2.9880  -14.0630  -32.4640 C.3   100  GLY100      0.1869
    140  C         -3.1650  -15.5450  -32.7390 C.2   100  GLY100      0.2309
    141  O         -3.4150  -15.9440  -33.8830 O.2   100  GLY100     -0.2863
    142  N         -6.8040  -16.1980  -33.9230 N.3   103  VAL103     -0.1245
    143  CA        -6.9010  -15.8310  -35.3400 C.3   103  VAL103      0.1561
    144  C         -6.2720  -16.9440  -36.1850 C.2   103  VAL103      0.2260
    145  O         -6.8970  -17.4070  -37.1430 O.2   103  VAL103     -0.2867
    146  CB        -6.3000  -14.4350  -35.6680 C.3   103  VAL103      0.0252
    147  CG1       -6.3930  -14.1340  -37.1630 C.3   103  VAL103      0.0019
    148  CG2       -6.9850  -13.3270  -34.8730 C.3   103  VAL103      0.0019
    149  N          0.9310  -13.3330  -40.2180 N.3   119  LEU119     -0.1245
    150  CA         0.2930  -12.8730  -38.9720 C.3   119  LEU119      0.1561
    151  C          1.2880  -12.9180  -37.8130 C.2   119  LEU119      0.2260
    152  O          1.3490  -11.9640  -37.0360 O.2   119  LEU119     -0.2867
    153  CB        -0.9530  -13.7490  -38.6340 C.3   119  LEU119      0.0270
    154  CG        -1.6490  -13.5620  -37.2480 C.3   119  LEU119      0.0019
    155  CD1       -2.6080  -12.3970  -37.2680 C.3   119  LEU119      0.0001
    156  CD2       -2.4210  -14.8150  -36.8370 C.3   119  LEU119      0.0001
    157  N          2.5580   -9.7340  -35.5550 N.3   123  ILE123     -0.1245
    158  CA         2.4540   -9.6220  -34.0940 C.3   123  ILE123      0.1561
    159  C          3.8350   -9.2550  -33.5340 C.2   123  ILE123      0.2260
    160  O          3.9390   -8.3100  -32.7470 O.2   123  ILE123     -0.2867
    161  CB         1.8860  -10.9320  -33.4890 C.3   123  ILE123      0.0252
    162  CG1        0.3620  -10.9850  -33.6920 C.3   123  ILE123      0.0019
    163  CG2        2.2550  -11.0710  -31.9950 C.3   123  ILE123      0.0019
    164  CD1       -0.1600  -12.2920  -33.8990 C.3   123  ILE123      0.0001
@<TRIPOS>BOND
     1   149   150    1
     2    38    37    2
     3    43    44    1
     4    37    36    1
     5   150   153    1
     6   150   151    1
     7    44    47    1
     8    44    45    1
     9   153   154    1
    10    47    48    1
    11    49    48    1
    12    50    48    1
    13    36    39    1
    14    36    35    1
    15   151   152    2
    16    45    46    2
    17   155   154    1
    18   154   156    1
    19    39    40    1
    20   147   146    1
    21   145   144    2
    22    42    40    1
    23    57    55    1
    24    40    41    1
    25   144   143    1
    26    65    64    1
    27    51    52    1
    28   146   143    1
    29   146   148    1
    30   157   158    1
    31   143   142    1
    32    64    63    1
    33    55    52    1
    34    55    56    1
    35    52    53    1
    36    30    29    2
    37   158   159    1
    38   158   161    1
    39    63    62    1
    40   164   162    1
    41   141   140    2
    42    58    53   am
    43    58    59    1
    44    74    75   ar
    45    74    72   ar
    46   162   161    1
    47    62    59    1
    48    53    54    2
    49    75    73   ar
    50   159   160    2
    51   161   163    1
    52    29    28    1
    53    59    60    1
    54    72    71   ar
    55   140   139    1
    56   136   137   ar
    57   136   134   ar
    58   139   138    1
    59   137   135   ar
    60    73    71   ar
    61    60    61    2
    62   130   129    2
    63    28    27    1
    64    28    31    1
    65    71    70    1
    66   134   132   ar
    67   138   129   am
    68   135   133   ar
    69   129   128    1
    70    31    32    1
    71    66    67    1
    72    19    18    2
    73    70    67    1
    74   132   133   ar
    75   132   131    1
    76   125   124    1
    77    32    33    1
    78    88    87    1
    79    67    68    1
    80   122   121    2
    81   128   131    1
    82   128   127    1
    83    33    34    1
    84    18    17    1
    85   124   126    1
    86   124   123    1
    87    87    84    1
    88    68    76   am
    89    68    69    2
    90   121   120    1
    91    76    77    1
    92    82    80    1
    93    17    20    1
    94    17    16    1
    95    84    83    1
    96    84    85    1
    97    14    13    2
    98   123   120    1
    99   120   119    1
   100    20    21    1
   101    80    77    1
   102    80    81    1
   103    86    85    2
   104    77    78    1
   105    13    16   am
   106    13    12    1
   107    21    23   ar
   108    21    22   ar
   109    23    25   ar
   110    85    89   am
   111   115   114    2
   112    78    79    2
   113    22    24   ar
   114    25    26   ar
   115   119   114   am
   116   114   113    1
   117    12    11    1
   118    12    15    1
   119    24    26   ar
   120    89    90    1
   121     4     3    2
   122    90    91    1
   123    90    93    1
   124   104   103    2
   125   113   112    1
   126   113   116    1
   127   118   116    1
   128    91    92    2
   129    95    94   ar
   130   116   117    1
   131    93    94    1
   132     3     2    1
   133   103   102    1
   134    94    96   ar
   135   111   109    1
   136   105   102    1
   137   105   106    1
   138     5     2    1
   139     5     6    1
   140   107   106    1
   141   107   108    1
   142   102   101    1
   143     2     1    1
   144   109   108    2
   145   109   110    1
   146     6     8   ar
   147     6     7   ar
   148   100    99    2
   149   101    99   am
   150     8    10   ar
   151    99    98    1
   152     7     9   ar
   153    10     9   ar
   154    98    97    1
