@<TRIPOS>MOLECULE
tmp/5mevA00.pdb
 138 132 0 0 0
SMALL
GASTEIGER

@<TRIPOS>ATOM
      1  N         94.5160   20.1870   62.9770 N.3    53  HIS53      -0.1241
      2  CA        94.1290   20.9090   61.7820 C.3    53  HIS53       0.1621
      3  C         93.7230   19.9980   60.6140 C.2    53  HIS53       0.2264
      4  O         93.9390   20.3620   59.4510 O.2    53  HIS53      -0.2867
      5  CB        95.2790   21.8240   61.3700 C.3    53  HIS53       0.0745
      6  CG        95.5850   22.8970   62.3640 C.ar   53  HIS53       0.0817
      7  ND1       96.8690   23.1910   62.7710 N.ar   53  HIS53      -0.2268
      8  CD2       94.7770   23.7660   63.0150 C.ar   53  HIS53       0.1154
      9  CE1       96.8380   24.1900   63.6340 C.ar   53  HIS53       0.1986
     10  NE2       95.5800   24.5580   63.7990 N.ar   53  HIS53      -0.2212
     11  N         91.0190   22.0800   58.9810 N.3    56  ALA56      -0.1231
     12  CA        91.6360   23.2020   58.2800 C.3    56  ALA56       0.1694
     13  C         92.3070   22.7320   56.9960 C.2    56  ALA56       0.2592
     14  O         92.0560   23.3060   55.9320 O.2    56  ALA56      -0.2718
     15  CB        92.6420   23.9170   59.1730 C.3    56  ALA56       0.0304
     16  N         93.1310   21.6800   57.1060 N.am   57  PHE57      -0.1976
     17  CA        93.8720   21.1370   55.9610 C.3    57  PHE57       0.1639
     18  C         92.9460   20.5730   54.8890 C.2    57  PHE57       0.2290
     19  O         93.1500   20.8220   53.7030 O.2    57  PHE57      -0.2864
     20  CB        94.8750   20.0430   56.3830 C.3    57  PHE57       0.0560
     21  CG        96.0110   20.5180   57.2630 C.ar   57  PHE57      -0.0200
     22  CD1       96.4740   21.8390   57.2460 C.ar   57  PHE57      -0.0042
     23  CD2       96.6580   19.6060   58.0920 C.ar   57  PHE57      -0.0042
     24  CE1       97.5250   22.2320   58.0640 C.ar   57  PHE57      -0.0003
     25  CE2       97.7140   19.9980   58.9050 C.ar   57  PHE57      -0.0003
     26  CZ        98.1490   21.3100   58.8910 C.ar   57  PHE57      -0.0000
     27  N         91.3970   23.6020   53.0980 N.3    60  MET60      -0.1245
     28  CA        92.3530   24.1280   52.1160 C.3    60  MET60       0.1570
     29  C         92.5480   23.1880   50.9240 C.2    60  MET60       0.2261
     30  O         92.7740   23.6520   49.8090 O.2    60  MET60      -0.2867
     31  CB        93.7210   24.3840   52.7570 C.3    60  MET60       0.0387
     32  CG        93.7830   25.6070   53.6560 C.3    60  MET60       0.0595
     33  SD        95.4800   26.1440   53.9610 S.3    60  MET60      -0.1393
     34  CE        96.1160   24.7580   54.9070 C.3    60  MET60       0.0692
     35  N         89.3200   23.3580   48.5190 N.3    63  LYS63      -0.1231
     36  CA        89.4340   24.6250   47.7970 C.3    63  LYS63       0.1693
     37  C         90.5450   24.5130   46.7470 C.2    63  LYS63       0.2591
     38  O         90.2700   24.5310   45.5410 O.2    63  LYS63      -0.2718
     39  CB        89.7200   25.7860   48.7630 C.3    63  LYS63       0.0285
     40  CG        88.5960   26.0890   49.7450 C.3    63  LYS63       0.0035
     41  CD        89.0600   26.8890   50.9660 C.3    63  LYS63       0.0206
     42  CE        89.4080   28.3440   50.6490 C.3    63  LYS63       0.1093
     43  NZ        90.8260   28.5700   50.2430 N.3    63  LYS63      -0.1314
     44  N         91.7880   24.3540   47.2130 N.am   64  LEU64      -0.1980
     45  CA        92.9620   24.2280   46.3370 C.3    64  LEU64       0.1596
     46  C         92.9730   22.8310   45.7250 C.2    64  LEU64       0.2287
     47  O         93.7420   21.9630   46.1520 O.2    64  LEU64      -0.2864
     48  CB        94.2680   24.4840   47.1150 C.3    64  LEU64       0.0297
     49  CG        94.4900   25.9200   47.6250 C.3    64  LEU64       0.0022
     50  CD1       94.8900   25.9730   49.0980 C.3    64  LEU64       0.0001
     51  CD2       95.5090   26.6590   46.7680 C.3    64  LEU64       0.0001
     52  N        100.3110   30.1360   47.7700 N.3    78  VAL78      -0.1231
     53  CA        99.5340   30.1660   49.0180 C.3    78  VAL78       0.1692
     54  C        100.3770   29.7520   50.2350 C.2    78  VAL78       0.2591
     55  O        100.1420   30.2460   51.3380 O.2    78  VAL78      -0.2718
     56  CB        98.2710   29.2690   48.9260 C.3    78  VAL78       0.0266
     57  CG1       97.3860   29.4330   50.1660 C.3    78  VAL78       0.0020
     58  CG2       97.4870   29.5830   47.6510 C.3    78  VAL78       0.0020
     59  N        101.3440   28.8540   50.0400 N.am   79  MET79      -0.1979
     60  CA       102.1960   28.3660   51.1410 C.3    79  MET79       0.1605
     61  C        103.0780   29.4250   51.8130 C.2    79  MET79       0.2287
     62  O        103.4720   29.2410   52.9620 O.2    79  MET79      -0.2864
     63  CB       103.0870   27.2010   50.6830 C.3    79  MET79       0.0413
     64  CG       102.4010   25.8400   50.6640 C.3    79  MET79       0.0598
     65  SD       103.5720   24.4650   50.5710 S.3    79  MET79      -0.1393
     66  CE       104.5160   24.8840   49.1030 C.3    79  MET79       0.0692
     67  N        102.0260   32.3150   52.6810 N.3    81  HIS81      -0.1226
     68  CA       101.1410   33.0730   53.5780 C.3    81  HIS81       0.1752
     69  C        101.1950   32.6550   55.0630 C.2    81  HIS81       0.2595
     70  O        100.6950   33.3760   55.9360 O.2    81  HIS81      -0.2718
     71  CB        99.7070   33.0650   53.0430 C.3    81  HIS81       0.0759
     72  CG        99.5280   33.8870   51.8020 C.ar   81  HIS81       0.0818
     73  ND1       99.8950   33.4400   50.5490 N.ar   81  HIS81      -0.2268
     74  CD2       99.0340   35.1360   51.6230 C.ar   81  HIS81       0.1154
     75  CE1       99.6270   34.3740   49.6530 C.ar   81  HIS81       0.1986
     76  NE2       99.1020   35.4120   50.2790 N.ar   81  HIS81      -0.2212
     77  N        101.8300   31.5120   55.3310 N.am   82  VAL82      -0.1980
     78  CA       102.2240   31.1000   56.6900 C.3    82  VAL82       0.1595
     79  C        103.2550   32.0840   57.3100 C.2    82  VAL82       0.2287
     80  O        103.4260   32.1130   58.5310 O.2    82  VAL82      -0.2864
     81  CB       102.7580   29.6340   56.6910 C.3    82  VAL82       0.0276
     82  CG1      103.0290   29.1270   58.0950 C.3    82  VAL82       0.0022
     83  CG2      101.7690   28.6980   56.0070 C.3    82  VAL82       0.0022
     84  N        103.5660   35.5530   55.4880 N.3    84  SER84      -0.1202
     85  CA       103.1430   36.9040   55.0210 C.3    84  SER84       0.2020
     86  C        102.2670   37.6140   56.0670 C.2    84  SER84       0.2618
     87  O        101.0360   37.6720   55.9520 O.2    84  SER84      -0.2717
     88  CB       102.4620   36.8730   53.6300 C.3    84  SER84       0.2103
     89  OG       103.3510   37.3200   52.6150 O.3    84  SER84      -0.2182
     90  N        102.9540   38.1720   57.0630 N.am   85  ASP85      -0.1973
     91  CA       102.3590   38.7940   58.2710 C.3    85  ASP85       0.1709
     92  C        103.4170   39.2530   59.2910 C.2    85  ASP85       0.2293
     93  O        103.1470   40.1570   60.0810 O.2    85  ASP85      -0.2864
     94  CB       101.3040   37.8990   58.9680 C.3    85  ASP85       0.1436
     95  CG       101.8330   36.5270   59.3440 C.2    85  ASP85       0.3671
     96  OD1      101.5930   35.5660   58.5840 O.co2  85  ASP85      -0.2456
     97  OD2      102.4730   36.4030   60.4090 O.co2  85  ASP85      -0.2456
     98  N        106.1720   26.5990   65.1060 N.3    91  GLY91      -0.1210
     99  CA       104.7710   26.1870   64.9910 C.3    91  GLY91       0.1956
    100  C        104.2360   26.4250   63.5930 C.2    91  GLY91       0.2611
    101  O        103.5290   25.5840   63.0310 O.2    91  GLY91      -0.2717
    102  N        104.5780   27.5840   63.0370 N.am   92  ARG92      -0.1979
    103  CA       104.2810   27.9070   61.6410 C.3    92  ARG92       0.1597
    104  C        105.0100   26.9750   60.6720 C.2    92  ARG92       0.2287
    105  O        104.4870   26.6360   59.6060 O.2    92  ARG92      -0.2864
    106  CB       104.6560   29.3630   61.3420 C.3    92  ARG92       0.0334
    107  CG       103.7690   30.3980   62.0310 C.3    92  ARG92       0.0492
    108  CD       102.4200   30.5180   61.3470 C.3    92  ARG92       0.2205
    109  NE       101.5970   31.6040   61.8770 N.pl3  92  ARG92      -0.0865
    110  CZ       101.7630   32.9020   61.6110 C.cat  92  ARG92       0.5346
    111  NH1      100.9280   33.7880   62.1500 N.pl3  92  ARG92       0.1354
    112  NH2      102.7550   33.3340   60.8260 N.pl3  92  ARG92       0.1354
    113  N        103.5070   23.3730   60.9440 N.3    95  THR95      -0.1203
    114  CA       102.2250   23.5300   60.2460 C.3    95  THR95       0.1994
    115  C        102.4100   23.5290   58.7240 C.2    95  THR95       0.2617
    116  O        101.5860   22.9640   58.0130 O.2    95  THR95      -0.2717
    117  CB       101.4860   24.8060   60.7020 C.3    95  THR95       0.1784
    118  OG1      101.2220   24.7190   62.1090 O.3    95  THR95      -0.2211
    119  CG2      100.1720   24.9720   59.9670 C.3    95  THR95       0.0376
    120  N        103.4790   24.1610   58.2360 N.am   96  LEU96      -0.1979
    121  CA       103.8550   24.1090   56.8110 C.3    96  LEU96       0.1596
    122  C        104.1690   22.6930   56.3560 C.2    96  LEU96       0.2287
    123  O        103.6950   22.2410   55.3090 O.2    96  LEU96      -0.2864
    124  CB       105.0870   24.9830   56.5560 C.3    96  LEU96       0.0297
    125  CG       105.6060   25.1090   55.1260 C.3    96  LEU96       0.0022
    126  CD1      104.6170   25.8910   54.2720 C.3    96  LEU96       0.0001
    127  CD2      106.9720   25.7780   55.1440 C.3    96  LEU96       0.0001
    128  N        101.1120   20.2670   56.6940 N.3    99  PHE99      -0.1241
    129  CA       100.1450   20.4180   55.5900 C.3    99  PHE99       0.1605
    130  C        100.6460   19.7490   54.3150 C.2    99  PHE99       0.2264
    131  O         99.8880   19.0400   53.6550 O.2    99  PHE99      -0.2867
    132  CB        99.8170   21.8890   55.2930 C.3    99  PHE99       0.0534
    133  CG        98.8770   22.0730   54.1210 C.ar   99  PHE99      -0.0203
    134  CD1       97.6510   21.4080   54.0790 C.ar   99  PHE99      -0.0042
    135  CD2       99.2220   22.8900   53.0490 C.ar   99  PHE99      -0.0042
    136  CE1       96.7920   21.5600   53.0000 C.ar   99  PHE99      -0.0003
    137  CE2       98.3630   23.0550   51.9720 C.ar   99  PHE99      -0.0003
    138  CZ        97.1470   22.3880   51.9460 C.ar   99  PHE99      -0.0000
@<TRIPOS>BOND
     1    38    37    2
     2    46    47    2
     3    46    45    1
     4    45    48    1
     5    45    44    1
     6    37    44   am
     7    37    36    1
     8    51    49    1
     9    48    49    1
    10    49    50    1
    11    58    56    1
    12    52    53    1
    13    36    35    1
    14    36    39    1
    15    39    40    1
    16    56    53    1
    17    56    57    1
    18    53    54    1
    19    66    65    1
    20    75    76   ar
    21    75    73   ar
    22    40    41    1
    23    30    29    2
    24    59    54   am
    25    59    60    1
    26    54    55    2
    27    43    42    1
    28    76    74   ar
    29    73    72   ar
    30    65    64    1
    31    42    41    1
    32    64    63    1
    33    63    60    1
    34    29    28    1
    35    60    61    1
    36    74    72   ar
    37    72    71    1
    38    61    62    2
    39   138   137   ar
    40   138   136   ar
    41   137   135   ar
    42    28    31    1
    43    28    27    1
    44    89    88    1
    45    67    68    1
    46    31    32    1
    47   136   134   ar
    48    71    68    1
    49   135   133   ar
    50    68    69    1
    51    88    85    1
    52   131   130    2
    53    32    33    1
    54    19    18    2
    55    33    34    1
    56   134   133   ar
    57   133   132    1
    58   126   125    1
    59   130   129    1
    60    18    17    1
    61    85    84    1
    62    85    86    1
    63    69    77   am
    64    69    70    2
    65   125   127    1
    66   125   124    1
    67   132   129    1
    68   123   122    2
    69    77    78    1
    70   129   128    1
    71    14    13    2
    72    87    86    2
    73    17    20    1
    74    17    16    1
    75    83    81    1
    76    86    90   am
    77   122   121    1
    78    20    21    1
    79   124   121    1
    80    78    81    1
    81    78    79    1
    82    81    82    1
    83   121   120    1
    84    13    16   am
    85    13    12    1
    86    90    91    1
    87    22    21   ar
    88    22    24   ar
    89    21    23   ar
    90    79    80    2
    91   116   115    2
    92    24    26   ar
    93    23    25   ar
    94   120   115   am
    95    91    94    1
    96    91    92    1
    97    12    11    1
    98    12    15    1
    99    96    95   ar
   100   115   114    1
   101    26    25   ar
   102    94    95    1
   103    92    93    2
   104    95    97   ar
   105     4     3    2
   106   105   104    2
   107   119   117    1
   108   114   117    1
   109   114   113    1
   110     3     2    1
   111   104   103    1
   112   117   118    1
   113   112   110    1
   114   106   103    1
   115   106   107    1
   116   108   109    1
   117   108   107    1
   118     5     2    1
   119     5     6    1
   120   110   109    2
   121   110   111    1
   122   103   102    1
   123     2     1    1
   124     6     7   ar
   125     6     8   ar
   126     7     9   ar
   127     8    10   ar
   128   101   100    2
   129   102   100   am
   130   100    99    1
   131     9    10   ar
   132    99    98    1
