@<TRIPOS>MOLECULE
tmp/5mexA00.pdb
 204 199 0 0 0
SMALL
GASTEIGER

@<TRIPOS>ATOM
      1  N         -3.7310    1.3880  -26.4110 N.3    68  LYS68      -0.1245
      2  CA        -3.0810    0.2610  -27.0840 C.3    68  LYS68       0.1561
      3  C         -1.7190    0.5580  -27.7170 C.2    68  LYS68       0.2260
      4  O         -1.2240   -0.2220  -28.5220 O.2    68  LYS68      -0.2867
      5  CB        -4.0120   -0.3740  -28.1180 C.3    68  LYS68       0.0271
      6  CG        -5.4250   -0.6370  -27.6270 C.3    68  LYS68       0.0035
      7  CD        -5.4600   -1.0620  -26.1690 C.3    68  LYS68       0.0206
      8  CE        -5.0800   -2.5200  -25.9900 C.3    68  LYS68       0.1093
      9  NZ        -5.0670   -2.9140  -24.5570 N.3    68  LYS68      -0.1314
     10  N          1.1460    1.1360  -25.8280 N.3    70  GLY70      -0.1210
     11  CA         2.2150    0.9310  -24.8790 C.3    70  GLY70       0.1956
     12  C          1.9580    1.4520  -23.5010 C.2    70  GLY70       0.2613
     13  O          2.8890    1.7030  -22.7570 O.2    70  GLY70      -0.2717
     14  N          0.7060    1.7110  -23.1460 N.am   71  THR71      -0.1938
     15  CA         0.4340    2.4110  -21.9170 C.3    71  THR71       0.2028
     16  C          0.8650    1.5610  -20.6660 C.2    71  THR71       0.2643
     17  O          1.4850    2.0250  -19.7010 O.2    71  THR71      -0.2714
     18  CB        -1.0660    2.7070  -21.7950 C.3    71  THR71       0.1808
     19  OG1       -1.6100    3.2430  -23.0070 O.3    71  THR71      -0.2208
     20  CG2       -1.2750    3.7330  -20.7210 C.3    71  THR71       0.0379
     21  N          0.4810    0.3010  -20.6880 N.am   72  THR72      -0.1936
     22  CA         0.7960   -0.6290  -19.6070 C.3    72  THR72       0.2028
     23  C          2.2870   -0.7130  -19.3600 C.2    72  THR72       0.2642
     24  O          2.7320   -0.6840  -18.2160 O.2    72  THR72      -0.2714
     25  CB         0.2190   -2.0480  -19.8640 C.3    72  THR72       0.1808
     26  OG1       -1.2030   -1.9950  -20.1630 O.3    72  THR72      -0.2208
     27  CG2        0.3970   -2.8770  -18.6670 C.3    72  THR72       0.0379
     28  N          3.0630   -0.8510  -20.4430 N.am   73  TRP73      -0.1973
     29  CA         4.4700   -0.9470  -20.3610 C.3    73  TRP73       0.1640
     30  C          5.0640    0.3090  -19.7340 C.2    73  TRP73       0.2290
     31  O          5.8850    0.2420  -18.8470 O.2    73  TRP73      -0.2864
     32  CB         5.0170   -1.1820  -21.7600 C.3    73  TRP73       0.0576
     33  CG         6.4490   -1.5110  -21.8880 C.ar   73  TRP73       0.0006
     34  CD1        7.3160   -1.9110  -20.9230 C.ar   73  TRP73       0.0946
     35  CD2        7.2020   -1.4260  -23.0800 C.ar   73  TRP73       0.0152
     36  NE1        8.5340   -2.1430  -21.4380 N.ar   73  TRP73      -0.2442
     37  CE2        8.5210   -1.8000  -22.7630 C.ar   73  TRP73       0.0810
     38  CE3        6.8980   -1.0460  -24.3790 C.ar   73  TRP73       0.0012
     39  CZ2        9.5140   -1.8540  -23.7040 C.ar   73  TRP73       0.0191
     40  CZ3        7.9020   -1.1250  -25.3290 C.ar   73  TRP73       0.0001
     41  CH2        9.1850   -1.5160  -24.9890 C.ar   73  TRP73       0.0015
     42  N         -1.3750   -1.0410  -14.0200 N.3   100  HIS100     -0.1241
     43  CA        -2.4060    0.0010  -13.9050 C.3   100  HIS100      0.1621
     44  C         -2.7960    0.3630  -12.5050 C.2   100  HIS100      0.2264
     45  O         -3.3180    1.4130  -12.2730 O.2   100  HIS100     -0.2867
     46  CB        -3.6750   -0.3670  -14.6900 C.3   100  HIS100      0.0745
     47  CG        -3.4640   -0.3340  -16.1580 C.ar  100  HIS100      0.0817
     48  ND1       -3.6060    0.8250  -16.8970 N.ar  100  HIS100     -0.2268
     49  CD2       -3.0440   -1.2900  -17.0280 C.ar  100  HIS100      0.1154
     50  CE1       -3.2460    0.5910  -18.1520 C.ar  100  HIS100      0.1986
     51  NE2       -2.9230   -0.6940  -18.2680 N.ar  100  HIS100     -0.2212
     52  N         -5.4580    9.2300  -21.5150 N.3   130  HIS130     -0.1241
     53  CA        -5.5690    9.1710  -22.9540 C.3   130  HIS130      0.1621
     54  C         -6.2040   10.4330  -23.5000 C.2   130  HIS130      0.2264
     55  O         -6.5690   10.5000  -24.6880 O.2   130  HIS130     -0.2867
     56  CB        -6.3560    7.9490  -23.4350 C.3   130  HIS130      0.0745
     57  CG        -5.8630    6.6530  -22.9010 C.ar  130  HIS130      0.0817
     58  ND1       -4.6000    6.1730  -23.1750 N.ar  130  HIS130     -0.2268
     59  CD2       -6.5050    5.6660  -22.2190 C.ar  130  HIS130      0.1154
     60  CE1       -4.4450    4.9810  -22.6040 C.ar  130  HIS130      0.1986
     61  NE2       -5.5860    4.6500  -22.0290 N.ar  130  HIS130     -0.2212
     62  N          2.4620    4.4350  -31.5200 N.3   152  ARG152     -0.1245
     63  CA         2.6820    3.1310  -32.1240 C.3   152  ARG152      0.1563
     64  C          2.1670    3.1290  -33.5680 C.2   152  ARG152      0.2260
     65  O          1.2120    3.7820  -33.8760 O.2   152  ARG152     -0.2867
     66  CB         1.9480    2.1030  -31.2850 C.3   152  ARG152      0.0307
     67  CG         2.3250    0.6530  -31.5980 C.3   152  ARG152      0.0489
     68  CD         1.5760   -0.3370  -30.6820 C.3   152  ARG152      0.2205
     69  NE         1.9860   -1.7400  -30.9180 N.pl3 152  ARG152     -0.0865
     70  CZ         1.4640   -2.8300  -30.3330 C.cat 152  ARG152      0.5346
     71  NH1        0.4390   -2.7580  -29.5120 N.pl3 152  ARG152      0.1354
     72  NH2        1.9640   -4.0260  -30.6080 N.pl3 152  ARG152      0.1354
     73  N         -0.7340   -1.9910  -36.1820 N.3   156  ASP156     -0.1239
     74  CA        -0.5260   -2.7410  -34.9560 C.3   156  ASP156      0.1674
     75  C         -1.3770   -2.1960  -33.8240 C.2   156  ASP156      0.2266
     76  O         -1.8890   -2.9710  -33.0460 O.2   156  ASP156     -0.2867
     77  CB         0.9190   -2.7300  -34.5170 C.3   156  ASP156      0.1410
     78  CG         1.8280   -3.7360  -35.2840 C.2   156  ASP156      0.3668
     79  OD1        1.2950   -4.6080  -36.0040 O.co2 156  ASP156     -0.2456
     80  OD2        3.0950   -3.6620  -35.1620 O.co2 156  ASP156     -0.2456
     81  N         -4.1960   -4.3570  -31.9420 N.3   160  SER160     -0.1217
     82  CA        -4.1600   -4.4290  -30.4840 C.3   160  SER160      0.1889
     83  C         -5.4700   -4.0860  -29.8720 C.2   160  SER160      0.2288
     84  O         -5.9540   -4.7730  -28.9290 O.2   160  SER160     -0.2866
     85  CB        -3.0100   -3.5790  -29.9390 C.3   160  SER160      0.2089
     86  OG        -2.8640   -3.7390  -28.5390 O.3   160  SER160     -0.2183
     87  N          6.7550    3.0390  -29.6420 N.3   218  TYR218     -0.1241
     88  CA         6.6290    1.6910  -29.1250 C.3   218  TYR218      0.1605
     89  C          7.6730    0.8180  -29.8640 C.2   218  TYR218      0.2264
     90  O          8.4410    0.0960  -29.2360 O.2   218  TYR218     -0.2867
     91  CB         5.1930    1.1680  -29.3950 C.3   218  TYR218      0.0534
     92  CG         5.0230   -0.2810  -28.9560 C.ar  218  TYR218     -0.0201
     93  CD1        5.3510   -1.3370  -29.7980 C.ar  218  TYR218     -0.0009
     94  CD2        4.5420   -0.5900  -27.6740 C.ar  218  TYR218     -0.0009
     95  CE1        5.2630   -2.6780  -29.3550 C.ar  218  TYR218      0.0417
     96  CE2        4.4070   -1.9070  -27.2360 C.ar  218  TYR218      0.0417
     97  CZ         4.7580   -2.9680  -28.0730 C.ar  218  TYR218      0.1957
     98  OH         4.6340   -4.2930  -27.6110 O.3   218  TYR218     -0.2866
     99  N         10.9170   -1.0040  -28.2130 N.3   222  ARG222     -0.1245
    100  CA        10.8680   -2.4730  -28.3020 C.3   222  ARG222      0.1563
    101  C         12.1930   -2.9550  -28.9540 C.2   222  ARG222      0.2260
    102  O         12.8140   -3.8620  -28.4410 O.2   222  ARG222     -0.2867
    103  CB         9.5730   -2.9750  -29.0090 C.3   222  ARG222      0.0307
    104  CG         9.0990   -4.4120  -28.7280 C.3   222  ARG222      0.0489
    105  CD         8.5180   -4.6140  -27.3340 C.3   222  ARG222      0.2205
    106  NE         7.9670   -5.9740  -27.1500 N.pl3 222  ARG222     -0.0865
    107  CZ         8.5670   -6.9690  -26.4850 C.cat 222  ARG222      0.5346
    108  NH1        9.7430   -6.7790  -25.9170 N.pl3 222  ARG222      0.1354
    109  NH2        8.0050   -8.1580  -26.3870 N.pl3 222  ARG222      0.1354
    110  N          9.9640   -4.9710  -16.2100 N.3   257  CYS257     -0.1221
    111  CA         8.8210   -4.3920  -16.9040 C.3   257  CYS257      0.1808
    112  C          8.6170   -4.9870  -18.2960 C.2   257  CYS257      0.2602
    113  O          7.7300   -4.5390  -19.0290 O.2   257  CYS257     -0.2717
    114  CB         9.0340   -2.8680  -17.0520 C.3   257  CYS257      0.0970
    115  SG         9.2400   -2.0300  -15.4830 S.3   257  CYS257     -0.0800
    116  N          9.3640   -6.0270  -18.6400 N.am  258  SER258     -0.1938
    117  CA         9.2740   -6.6040  -19.9750 C.3   258  SER258      0.2055
    118  C          7.9490   -7.3070  -20.1360 C.2   258  SER258      0.2643
    119  O          7.3410   -7.7640  -19.1800 O.2   258  SER258     -0.2714
    120  CB        10.4290   -7.5960  -20.2570 C.3   258  SER258      0.2130
    121  OG        10.1770   -8.8070  -19.5590 O.3   258  SER258     -0.2179
    122  N          7.5210   -7.4250  -21.3830 N.am  259  PHE259     -0.1973
    123  CA         6.3260   -8.1590  -21.7260 C.3   259  PHE259      0.1639
    124  C          6.3260   -9.5920  -21.1740 C.2   259  PHE259      0.2290
    125  O          5.3440  -10.0610  -20.5740 O.2   259  PHE259     -0.2864
    126  CB         6.1690   -8.1690  -23.2730 C.3   259  PHE259      0.0560
    127  CG         4.9870   -8.9800  -23.7390 C.ar  259  PHE259     -0.0200
    128  CD1        3.7230   -8.4280  -23.8080 C.ar  259  PHE259     -0.0042
    129  CD2        5.1440  -10.3130  -24.0700 C.ar  259  PHE259     -0.0042
    130  CE1        2.6350   -9.1730  -24.1960 C.ar  259  PHE259     -0.0003
    131  CE2        4.0580  -11.0630  -24.4480 C.ar  259  PHE259     -0.0003
    132  CZ         2.8020  -10.5020  -24.5020 C.ar  259  PHE259     -0.0000
    133  N          5.9670   -9.6500  -17.2260 N.3   262  LEU262     -0.1245
    134  CA         4.6800   -9.2960  -16.7040 C.3   262  LEU262      0.1561
    135  C          3.5870  -10.2660  -17.1180 C.2   262  LEU262      0.2260
    136  O          2.6950  -10.5160  -16.3130 O.2   262  LEU262     -0.2867
    137  CB         4.3130   -7.8470  -17.1200 C.3   262  LEU262      0.0270
    138  CG         5.3160   -6.7930  -16.6560 C.3   262  LEU262      0.0019
    139  CD1        4.9270   -5.4440  -17.2220 C.3   262  LEU262      0.0001
    140  CD2        5.3260   -6.7580  -15.1590 C.3   262  LEU262      0.0001
    141  N         -4.2630   -7.3030  -20.9880 N.3   286  TYR286     -0.1227
    142  CA        -3.2630   -6.2980  -21.2750 C.3   286  TYR286      0.1736
    143  C         -2.0080   -6.8710  -21.8630 C.2   286  TYR286      0.2595
    144  O         -1.1870   -6.1310  -22.3200 O.2   286  TYR286     -0.2718
    145  CB        -2.9450   -5.4140  -20.0130 C.3   286  TYR286      0.0548
    146  CG        -4.1200   -4.6010  -19.5520 C.ar  286  TYR286     -0.0200
    147  CD1       -4.4380   -3.3870  -20.1370 C.ar  286  TYR286     -0.0009
    148  CD2       -4.9440   -5.0580  -18.5360 C.ar  286  TYR286     -0.0009
    149  CE1       -5.5300   -2.6340  -19.7200 C.ar  286  TYR286      0.0417
    150  CE2       -6.0270   -4.3310  -18.1300 C.ar  286  TYR286      0.0417
    151  CZ        -6.3200   -3.1180  -18.7300 C.ar  286  TYR286      0.1957
    152  OH        -7.4200   -2.4530  -18.3010 O.3   286  TYR286     -0.2866
    153  N         -1.8470   -8.2040  -21.8750 N.am  287  PHE287     -0.1962
    154  CA        -0.6790   -8.8200  -22.4160 C.3   287  PHE287      0.1771
    155  C         -1.0900   -9.8080  -23.5140 C.2   287  PHE287      0.2619
    156  O         -1.4660  -10.9070  -23.1990 O.2   287  PHE287     -0.2715
    157  CB         0.0530   -9.5390  -21.2540 C.3   287  PHE287      0.0574
    158  CG         0.3070   -8.6370  -20.1340 C.ar  287  PHE287     -0.0200
    159  CD1        1.3330   -7.6980  -20.2560 C.ar  287  PHE287     -0.0042
    160  CD2       -0.5060   -8.5990  -19.0500 C.ar  287  PHE287     -0.0042
    161  CE1        1.5580   -6.7450  -19.2890 C.ar  287  PHE287     -0.0003
    162  CE2       -0.2660   -7.6320  -18.0360 C.ar  287  PHE287     -0.0003
    163  CZ         0.7660   -6.7380  -18.1500 C.ar  287  PHE287     -0.0000
    164  N         -0.9970   -9.4420  -24.7840 N.am  288  ARG288     -0.1963
    165  CA        -1.4960  -10.2980  -25.8510 C.3   288  ARG288      0.1729
    166  C         -0.3030  -10.9590  -26.4840 C.2   288  ARG288      0.2616
    167  O         -0.0140  -12.0770  -26.1110 O.2   288  ARG288     -0.2715
    168  CB        -2.4120   -9.5460  -26.8230 C.3   288  ARG288      0.0348
    169  CG        -2.9820  -10.4120  -27.9550 C.3   288  ARG288      0.0492
    170  CD        -3.7870   -9.6160  -28.9290 C.3   288  ARG288      0.2205
    171  NE        -2.9370   -8.7920  -29.7670 N.pl3 288  ARG288     -0.0865
    172  CZ        -2.4700   -9.1850  -30.9550 C.cat 288  ARG288      0.5346
    173  NH1       -2.6950  -10.4510  -31.4480 N.pl3 288  ARG288      0.1354
    174  NH2       -1.7390   -8.3440  -31.6610 N.pl3 288  ARG288      0.1354
    175  N          0.4610  -10.2590  -27.3000 N.am  289  LYS289     -0.1963
    176  CA         1.5450  -10.8270  -28.0060 C.3   289  LYS289      0.1728
    177  C          2.7840  -10.0200  -27.8420 C.2   289  LYS289      0.2617
    178  O          3.8600  -10.5620  -27.7540 O.2   289  LYS289     -0.2715
    179  CB         1.1440  -10.9640  -29.4710 C.3   289  LYS289      0.0311
    180  CG         2.1660  -11.6250  -30.3210 C.3   289  LYS289      0.0038
    181  CD         1.5700  -11.9090  -31.6830 C.3   289  LYS289      0.0206
    182  CE         0.5690  -13.0540  -31.7290 C.3   289  LYS289      0.1093
    183  NZ         0.3320  -13.3440  -33.1720 N.3   289  LYS289     -0.1314
    184  N          2.6580   -8.6840  -27.8500 N.am  290  GLY290     -0.1940
    185  CA         3.7860   -7.8420  -27.5540 C.3   290  GLY290      0.2014
    186  C          4.8230   -7.7460  -28.6400 C.2   290  GLY290      0.2638
    187  O          5.9730   -7.4750  -28.3680 O.2   290  GLY290     -0.2714
    188  N          4.4180   -7.8860  -29.8900 N.am  291  LYS291     -0.1977
    189  CA         5.3990   -7.8850  -30.9720 C.3   291  LYS291      0.1596
    190  C          5.1480   -6.6700  -31.8570 C.2   291  LYS291      0.2287
    191  O          4.1900   -5.8890  -31.6170 O.2   291  LYS291     -0.2864
    192  CB         5.2510   -9.1750  -31.7940 C.3   291  LYS291      0.0298
    193  CG         5.8310  -10.3810  -31.0910 C.3   291  LYS291      0.0038
    194  CD         5.7790  -11.5850  -32.0060 C.3   291  LYS291      0.0206
    195  CE         6.1340  -12.8700  -31.2560 C.3   291  LYS291      0.1093
    196  NZ         7.3860  -12.7350  -30.4710 N.3   291  LYS291     -0.1314
    197  N          2.3910   -7.7000  -36.0640 N.3   294  ASP294     -0.1239
    198  CA         1.3480   -8.7170  -35.9910 C.3   294  ASP294      0.1674
    199  C          0.1370   -8.3730  -36.8750 C.2   294  ASP294      0.2266
    200  O         -0.7310   -9.2330  -37.1250 O.2   294  ASP294     -0.2867
    201  CB         0.8750   -8.9310  -34.5490 C.3   294  ASP294      0.1410
    202  CG         0.1760  -10.2600  -34.3690 C.2   294  ASP294      0.3668
    203  OD1        0.7460  -11.3000  -34.8820 O.co2 294  ASP294     -0.2456
    204  OD2       -0.8920  -10.2690  -33.7030 O.co2 294  ASP294     -0.2456
@<TRIPOS>BOND
     1   200   199    2
     2   199   198    1
     3    73    74    1
     4   197   198    1
     5    79    78   ar
     6   198   201    1
     7    78    80   ar
     8    78    77    1
     9    74    77    1
    10    74    75    1
    11   203   202   ar
    12   201   202    1
    13   202   204   ar
    14    65    64    2
    15    75    76    2
    16    64    63    1
    17   183   182    1
    18    63    62    1
    19    63    66    1
    20   194   195    1
    21   194   193    1
    22    81    82    1
    23   190   191    2
    24   190   189    1
    25   192   193    1
    26   192   189    1
    27   182   181    1
    28   181   180    1
    29   174   172    1
    30    67    66    1
    31    67    68    1
    32   173   172    1
    33   195   196    1
    34   189   188    1
    35   172   171    2
    36    69    68    1
    37    69    70    2
    38    72    70    1
    39    82    85    1
    40    82    83    1
    41    70    71    1
    42   180   179    1
    43    85    86    1
    44   188   186   am
    45    83    84    2
    46    89    90    2
    47    89    88    1
    48    93    95   ar
    49    93    92   ar
    50   171   170    1
    51    87    88    1
    52   179   176    1
    53    91    88    1
    54    91    92    1
    55    95    97   ar
    56   103   104    1
    57   103   100    1
    58    92    94   ar
    59   101   102    2
    60   101   100    1
    61   170   169    1
    62   104   105    1
    63   186   187    2
    64   186   185    1
    65     4     3    2
    66   100    99    1
    67     5     6    1
    68     5     2    1
    69    97    98    1
    70    97    96   ar
    71   176   177    1
    72   176   175    1
    73   169   168    1
    74   184   177   am
    75   184   185    1
    76   177   178    2
    77     3     2    1
    78    94    96   ar
    79     6     7    1
    80   105   106    1
    81   175   166   am
    82   106   107    2
    83     2     1    1
    84   168   165    1
    85   107   109    1
    86   107   108    1
    87   166   167    2
    88   166   165    1
    89     7     8    1
    90     8     9    1
    91   165   164    1
    92    10    11    1
    93    40    41   ar
    94    40    38   ar
    95    41    39   ar
    96    11    12    1
    97   164   155   am
    98    55    54    2
    99   132   131   ar
   100   132   130   ar
   101   131   129   ar
   102    38    35   ar
   103   130   128   ar
   104   129   127   ar
   105   128   127   ar
   106   127   126    1
   107    39    37   ar
   108   155   156    2
   109   155   154    1
   110    12    14   am
   111    12    13    2
   112    54    53    1
   113    56    53    1
   114    56    57    1
   115   126   123    1
   116    58    57   ar
   117    58    60   ar
   118    14    15    1
   119    35    37   ar
   120    35    33   ar
   121    19    18    1
   122    53    52    1
   123    57    59   ar
   124    37    36   ar
   125    60    61   ar
   126   154   153    1
   127   154   157    1
   128   144   143    2
   129    59    61   ar
   130    15    18    1
   131    15    16    1
   132    33    32    1
   133    33    34   ar
   134   153   143   am
   135   143   142    1
   136    18    20    1
   137    32    29    1
   138   123   122    1
   139   123   124    1
   140    36    34   ar
   141   122   118   am
   142   142   141    1
   143   142   145    1
   144   157   158    1
   145   124   125    2
   146    21    16   am
   147    21    22    1
   148    16    17    2
   149    28    29    1
   150    28    23   am
   151    29    30    1
   152   120   117    1
   153   120   121    1
   154   159   158   ar
   155   159   161   ar
   156    26    25    1
   157   147   149   ar
   158   147   146   ar
   159   118   117    1
   160   118   119    2
   161   158   160   ar
   162   145   146    1
   163   117   116    1
   164    25    22    1
   165    25    27    1
   166    30    31    2
   167   149   151   ar
   168    22    23    1
   169   146   148   ar
   170    23    24    2
   171   161   163   ar
   172   160   162   ar
   173   113   112    2
   174   151   152    1
   175   151   150   ar
   176   116   112   am
   177   148   150   ar
   178   112   111    1
   179    51    50   ar
   180    51    49   ar
   181    50    48   ar
   182   163   162   ar
   183   133   134    1
   184   139   138    1
   185   137   134    1
   186   137   138    1
   187   135   134    1
   188   135   136    2
   189   114   111    1
   190   114   115    1
   191    49    47   ar
   192   111   110    1
   193    48    47   ar
   194   138   140    1
   195    47    46    1
   196    46    43    1
   197    42    43    1
   198    43    44    1
   199    44    45    2
