@<TRIPOS>MOLECULE
tmp/5mexA01.pdb
 203 194 0 0 0
SMALL
GASTEIGER

@<TRIPOS>ATOM
      1  N        -19.6850   -1.0750  -30.9270 N.3    26  ARG26      -0.1245
      2  CA       -20.6470   -1.9790  -30.3320 C.3    26  ARG26       0.1563
      3  C        -22.0540   -1.4710  -30.5840 C.2    26  ARG26       0.2260
      4  O        -22.2860   -0.2680  -30.6210 O.2    26  ARG26      -0.2867
      5  CB       -20.4150   -2.1070  -28.8330 C.3    26  ARG26       0.0307
      6  CG       -19.1240   -2.8000  -28.4670 C.3    26  ARG26       0.0489
      7  CD       -19.0900   -3.1640  -26.9950 C.3    26  ARG26       0.2205
      8  NE       -17.7230   -3.3890  -26.5560 N.pl3  26  ARG26      -0.0865
      9  CZ       -17.1300   -4.5740  -26.5600 C.cat  26  ARG26       0.5346
     10  NH1      -17.7920   -5.6410  -26.9660 N.pl3  26  ARG26       0.1354
     11  NH2      -15.8790   -4.6900  -26.1530 N.pl3  26  ARG26       0.1354
     12  N        -23.2960    0.9460  -27.8180 N.3    29  GLU29      -0.1245
     13  CA       -22.2990    1.8450  -27.2700 C.3    29  GLU29       0.1567
     14  C        -21.9220    2.9030  -28.3440 C.2    29  GLU29       0.2260
     15  O        -21.0170    2.7270  -29.0910 O.2    29  GLU29      -0.2867
     16  CB       -21.0570    1.1160  -26.7440 C.3    29  GLU29       0.0388
     17  CG       -20.2180    2.0380  -25.8710 C.3    29  GLU29       0.1160
     18  CD       -19.1950    1.3500  -24.9720 C.2    29  GLU29       0.3649
     19  OE1      -18.7100    0.2530  -25.3260 O.co2  29  GLU29      -0.2457
     20  OE2      -18.8550    1.9470  -23.9120 O.co2  29  GLU29      -0.2457
     21  N        -16.0670    7.2190  -25.8720 N.3    40  LEU40      -0.1245
     22  CA       -16.9850    6.3400  -25.1840 C.3    40  LEU40       0.1561
     23  C        -17.6670    7.2180  -24.1540 C.2    40  LEU40       0.2260
     24  O        -17.0340    8.0680  -23.5470 O.2    40  LEU40      -0.2867
     25  CB       -16.2450    5.2080  -24.4810 C.3    40  LEU40       0.0270
     26  CG       -15.6440    4.1240  -25.3700 C.3    40  LEU40       0.0019
     27  CD1      -14.9170    3.0930  -24.5230 C.3    40  LEU40       0.0001
     28  CD2      -16.7290    3.4710  -26.2030 C.3    40  LEU40       0.0001
     29  N        -18.8300    6.8560  -20.9550 N.3    42  SER42      -0.1202
     30  CA       -18.2960    6.9350  -19.6100 C.3    42  SER42       0.2020
     31  C        -16.9680    7.6370  -19.5160 C.2    42  SER42       0.2618
     32  O        -16.7080    8.3640  -18.5510 O.2    42  SER42      -0.2717
     33  CB       -18.1790    5.4960  -19.0000 C.3    42  SER42       0.2103
     34  OG       -17.4760    4.6950  -19.9440 O.3    42  SER42      -0.2182
     35  N        -16.1520    7.4770  -20.5100 N.am   43  LEU43      -0.1979
     36  CA       -14.8610    8.0420  -20.5180 C.3    43  LEU43       0.1596
     37  C        -14.9730    9.6140  -20.7790 C.2    43  LEU43       0.2287
     38  O        -14.1270   10.4070  -20.3180 O.2    43  LEU43      -0.2864
     39  CB       -13.9880    7.4000  -21.5440 C.3    43  LEU43       0.0297
     40  CG       -13.7190    5.8960  -21.2340 C.3    43  LEU43       0.0022
     41  CD1      -12.9680    5.2910  -22.3410 C.3    43  LEU43       0.0001
     42  CD2      -12.9880    5.8160  -19.8830 C.3    43  LEU43       0.0001
     43  N         -5.0150    4.7350  -26.7170 N.3    67  PRO67      -0.2102
     44  CA        -5.1090    3.3780  -26.1750 C.3    67  PRO67       0.1504
     45  C         -4.4050    2.3410  -27.0520 C.2    67  PRO67       0.2575
     46  O         -4.4800    2.4200  -28.2710 O.2    67  PRO67      -0.2718
     47  CB        -6.6130    3.1210  -26.1590 C.3    67  PRO67       0.0282
     48  CG        -7.2070    4.4680  -25.9850 C.3    67  PRO67       0.0208
     49  CD        -6.3260    5.4000  -26.7610 C.3    67  PRO67       0.0893
     50  N         -3.7310    1.3880  -26.4110 N.am   68  LYS68      -0.1980
     51  CA        -3.0810    0.2610  -27.0840 C.3    68  LYS68       0.1596
     52  C         -1.7190    0.5580  -27.7170 C.2    68  LYS68       0.2287
     53  O         -1.2240   -0.2220  -28.5220 O.2    68  LYS68      -0.2864
     54  CB        -4.0120   -0.3740  -28.1180 C.3    68  LYS68       0.0298
     55  CG        -5.4250   -0.6370  -27.6270 C.3    68  LYS68       0.0038
     56  CD        -5.4600   -1.0620  -26.1690 C.3    68  LYS68       0.0206
     57  CE        -5.0800   -2.5200  -25.9900 C.3    68  LYS68       0.1093
     58  NZ        -5.0670   -2.9140  -24.5570 N.3    68  LYS68      -0.1314
     59  N          0.7060    1.7110  -23.1460 N.3    71  THR71      -0.1203
     60  CA         0.4340    2.4110  -21.9170 C.3    71  THR71       0.1994
     61  C          0.8650    1.5610  -20.6660 C.2    71  THR71       0.2618
     62  O          1.4850    2.0250  -19.7010 O.2    71  THR71      -0.2717
     63  CB        -1.0660    2.7070  -21.7950 C.3    71  THR71       0.1784
     64  OG1       -1.6100    3.2430  -23.0070 O.3    71  THR71      -0.2211
     65  CG2       -1.2750    3.7330  -20.7210 C.3    71  THR71       0.0376
     66  N          0.4810    0.3010  -20.6880 N.am   72  THR72      -0.1952
     67  CA         0.7960   -0.6290  -19.6070 C.3    72  THR72       0.1897
     68  C          2.2870   -0.7130  -19.3600 C.2    72  THR72       0.2313
     69  O          2.7320   -0.6840  -18.2160 O.2    72  THR72      -0.2863
     70  CB         0.2190   -2.0480  -19.8640 C.3    72  THR72       0.1794
     71  OG1       -1.2030   -1.9950  -20.1630 O.3    72  THR72      -0.2208
     72  CG2        0.3970   -2.8770  -18.6670 C.3    72  THR72       0.0378
     73  N         -1.3750   -1.0410  -14.0200 N.3   100  HIS100     -0.1241
     74  CA        -2.4060    0.0010  -13.9050 C.3   100  HIS100      0.1621
     75  C         -2.7960    0.3630  -12.5050 C.2   100  HIS100      0.2264
     76  O         -3.3180    1.4130  -12.2730 O.2   100  HIS100     -0.2867
     77  CB        -3.6750   -0.3670  -14.6900 C.3   100  HIS100      0.0745
     78  CG        -3.4640   -0.3340  -16.1580 C.ar  100  HIS100      0.0817
     79  ND1       -3.6060    0.8250  -16.8970 N.ar  100  HIS100     -0.2268
     80  CD2       -3.0440   -1.2900  -17.0280 C.ar  100  HIS100      0.1154
     81  CE1       -3.2460    0.5910  -18.1520 C.ar  100  HIS100      0.1986
     82  NE2       -2.9230   -0.6940  -18.2680 N.ar  100  HIS100     -0.2212
     83  N         -5.3890    6.6240  -13.8950 N.3   105  TYR105     -0.1241
     84  CA        -5.8930    7.4790  -14.9720 C.3   105  TYR105      0.1605
     85  C         -6.6340    8.6870  -14.4490 C.2   105  TYR105      0.2264
     86  O         -7.4740    8.5740  -13.5630 O.2   105  TYR105     -0.2867
     87  CB        -6.8230    6.7160  -15.8660 C.3   105  TYR105      0.0534
     88  CG        -6.2150    5.7340  -16.8470 C.ar  105  TYR105     -0.0201
     89  CD1       -5.4920    6.1740  -17.9150 C.ar  105  TYR105     -0.0009
     90  CD2       -6.4150    4.3660  -16.7160 C.ar  105  TYR105     -0.0009
     91  CE1       -4.9900    5.3190  -18.8630 C.ar  105  TYR105      0.0417
     92  CE2       -5.9810    3.4650  -17.7030 C.ar  105  TYR105      0.0417
     93  CZ        -5.2690    3.9460  -18.7750 C.ar  105  TYR105      0.1957
     94  OH        -4.7440    3.1400  -19.7480 O.3   105  TYR105     -0.2866
     95  N        -10.3720    8.0570  -15.4910 N.3   108  ILE108     -0.1245
     96  CA       -11.0280    6.7930  -15.0160 C.3   108  ILE108      0.1561
     97  C        -10.9600    6.6470  -13.5030 C.2   108  ILE108      0.2260
     98  O        -11.9600    6.6860  -12.8320 O.2   108  ILE108     -0.2867
     99  CB       -10.4410    5.5730  -15.7300 C.3   108  ILE108      0.0252
    100  CG1      -10.4500    5.7710  -17.2150 C.3   108  ILE108      0.0019
    101  CG2      -11.2440    4.3340  -15.3080 C.3   108  ILE108      0.0019
    102  CD1       -9.8710    4.6570  -18.0690 C.3   108  ILE108      0.0001
    103  N         -5.4580    9.2300  -21.5150 N.3   130  HIS130     -0.1241
    104  CA        -5.5690    9.1710  -22.9540 C.3   130  HIS130      0.1621
    105  C         -6.2040   10.4330  -23.5000 C.2   130  HIS130      0.2264
    106  O         -6.5690   10.5000  -24.6880 O.2   130  HIS130     -0.2867
    107  CB        -6.3560    7.9490  -23.4350 C.3   130  HIS130      0.0745
    108  CG        -5.8630    6.6530  -22.9010 C.ar  130  HIS130      0.0817
    109  ND1       -4.6000    6.1730  -23.1750 N.ar  130  HIS130     -0.2268
    110  CD2       -6.5050    5.6660  -22.2190 C.ar  130  HIS130      0.1154
    111  CE1       -4.4450    4.9810  -22.6040 C.ar  130  HIS130      0.1986
    112  NE2       -5.5860    4.6500  -22.0290 N.ar  130  HIS130     -0.2212
    113  N         -6.1080   -2.9960  -30.3330 N.3   161  MET161     -0.1245
    114  CA        -7.4230   -2.6500  -29.8380 C.3   161  MET161      0.1570
    115  C         -8.5460   -3.5970  -30.2080 C.2   161  MET161      0.2261
    116  O         -9.3660   -3.9340  -29.3550 O.2   161  MET161     -0.2867
    117  CB        -7.8260   -1.2010  -30.2520 C.3   161  MET161      0.0387
    118  CG        -9.2360   -0.8890  -29.7410 C.3   161  MET161      0.0595
    119  SD        -9.5670   -0.8620  -27.9030 S.3   161  MET161     -0.1393
    120  CE        -8.8660    0.7430  -27.4310 C.3   161  MET161      0.0692
    121  N         -8.2670   -6.8130  -28.2030 N.3   164  PHE164     -0.1227
    122  CA        -8.5500   -6.4290  -26.7750 C.3   164  PHE164      0.1736
    123  C        -10.0150   -6.3000  -26.4930 C.2   164  PHE164      0.2595
    124  O        -10.4930   -6.8610  -25.4870 O.2   164  PHE164     -0.2718
    125  CB        -7.7940   -5.1430  -26.4480 C.3   164  PHE164      0.0547
    126  CG        -7.9490   -4.6200  -25.0390 C.ar  164  PHE164     -0.0202
    127  CD1       -7.4000   -5.3150  -23.9510 C.ar  164  PHE164     -0.0042
    128  CD2       -8.4600   -3.3390  -24.8160 C.ar  164  PHE164     -0.0042
    129  CE1       -7.4560   -4.7920  -22.6850 C.ar  164  PHE164     -0.0003
    130  CE2       -8.4690   -2.7550  -23.5410 C.ar  164  PHE164     -0.0003
    131  CZ        -7.9660   -3.4980  -22.4570 C.ar  164  PHE164     -0.0000
    132  N        -10.7700   -5.6440  -27.3720 N.am  165  LEU165     -0.1980
    133  CA       -12.2060   -5.4580  -27.1780 C.3   165  LEU165      0.1596
    134  C        -13.0300   -6.7250  -27.0600 C.2   165  LEU165      0.2287
    135  O        -14.0990   -6.7320  -26.4870 O.2   165  LEU165     -0.2864
    136  CB       -12.7970   -4.6130  -28.2950 C.3   165  LEU165      0.0297
    137  CG       -12.3650   -3.1280  -28.1480 C.3   165  LEU165      0.0022
    138  CD1      -12.7310   -2.3670  -29.3970 C.3   165  LEU165      0.0001
    139  CD2      -12.9800   -2.5270  -26.9270 C.3   165  LEU165      0.0001
    140  N        -13.5120   -7.5800  -23.2800 N.3   168  GLU168     -0.1245
    141  CA       -14.2110   -6.6870  -22.3800 C.3   168  GLU168      0.1567
    142  C        -15.4310   -7.3140  -21.7750 C.2   168  GLU168      0.2260
    143  O        -16.2780   -7.8530  -22.4470 O.2   168  GLU168     -0.2867
    144  CB       -14.6200   -5.3970  -23.1090 C.3   168  GLU168      0.0388
    145  CG       -15.1730   -4.3720  -22.1350 C.3   168  GLU168      0.1160
    146  CD       -15.5480   -3.0290  -22.8220 C.2   168  GLU168      0.3649
    147  OE1      -15.4390   -2.8440  -24.0730 O.co2 168  GLU168     -0.2457
    148  OE2      -15.9890   -2.1830  -22.0680 O.co2 168  GLU168     -0.2457
    149  N        -22.9690   -4.3750  -23.6230 N.3   172  LEU172     -0.1245
    150  CA       -23.2950   -3.4160  -24.7250 C.3   172  LEU172      0.1561
    151  C        -23.0990   -4.0690  -26.1030 C.2   172  LEU172      0.2260
    152  O        -23.2160   -3.3850  -27.1450 O.2   172  LEU172     -0.2867
    153  CB       -22.4880   -2.0770  -24.6220 C.3   172  LEU172      0.0270
    154  CG       -22.6700   -1.3470  -23.2500 C.3   172  LEU172      0.0019
    155  CD1      -21.8410   -0.0640  -23.0620 C.3   172  LEU172      0.0001
    156  CD2      -24.1460   -1.0860  -22.8710 C.3   172  LEU172      0.0001
    157  N        -12.5440    5.3800  -29.9360 N.3   191  GLY191     -0.1210
    158  CA       -12.4320    6.0120  -28.6260 C.3   191  GLY191      0.1956
    159  C        -11.1590    6.8160  -28.5210 C.2   191  GLY191      0.2611
    160  O        -10.0390    6.3250  -28.7020 O.2   191  GLY191     -0.2717
    161  N        -11.3530    8.1180  -28.2110 N.am  192  TYR192     -0.1976
    162  CA       -10.2650    9.0910  -28.1630 C.3   192  TYR192      0.1639
    163  C         -9.6860    9.4040  -29.4950 C.2   192  TYR192      0.2290
    164  O         -8.6780   10.0610  -29.5540 O.2   192  TYR192     -0.2864
    165  CB        -9.1460    8.6850  -27.2620 C.3   192  TYR192      0.0560
    166  CG        -9.4610    8.3590  -25.8460 C.ar  192  TYR192     -0.0198
    167  CD1       -9.5950    9.3160  -24.9020 C.ar  192  TYR192     -0.0009
    168  CD2       -9.4990    7.0230  -25.4110 C.ar  192  TYR192     -0.0009
    169  CE1       -9.7600    8.9970  -23.5590 C.ar  192  TYR192      0.0417
    170  CE2       -9.6910    6.6900  -24.1060 C.ar  192  TYR192      0.0417
    171  CZ        -9.7730    7.6780  -23.1530 C.ar  192  TYR192      0.1957
    172  OH        -9.9470    7.3850  -21.8160 O.3   192  TYR192     -0.2866
    173  N        -13.1700   -3.9350  -15.9190 N.3   280  VAL280     -0.1231
    174  CA       -14.0120   -4.6300  -16.9230 C.3   280  VAL280      0.1692
    175  C        -13.1920   -5.5580  -17.8210 C.2   280  VAL280      0.2592
    176  O        -13.7380   -6.1380  -18.8040 O.2   280  VAL280     -0.2718
    177  CB       -14.8810   -3.6790  -17.7970 C.3   280  VAL280      0.0266
    178  CG1      -15.9520   -3.0000  -16.9330 C.3   280  VAL280      0.0020
    179  CG2      -14.0400   -2.7190  -18.5750 C.3   280  VAL280      0.0020
    180  N        -11.8970   -5.6230  -17.5500 N.am  281  TYR281     -0.1976
    181  CA       -10.9900   -6.5620  -18.2080 C.3   281  TYR281      0.1639
    182  C        -10.2470   -7.4100  -17.1750 C.2   281  TYR281      0.2290
    183  O         -9.8490   -6.9090  -16.0980 O.2   281  TYR281     -0.2864
    184  CB        -9.9400   -5.8030  -18.9780 C.3   281  TYR281      0.0560
    185  CG       -10.4830   -5.1230  -20.2040 C.ar  281  TYR281     -0.0198
    186  CD1      -10.5790   -5.8080  -21.3910 C.ar  281  TYR281     -0.0009
    187  CD2      -10.9310   -3.7940  -20.1470 C.ar  281  TYR281     -0.0009
    188  CE1      -11.1000   -5.2570  -22.5360 C.ar  281  TYR281      0.0417
    189  CE2      -11.4540   -3.1760  -21.2890 C.ar  281  TYR281      0.0417
    190  CZ       -11.4910   -3.8880  -22.4980 C.ar  281  TYR281      0.1957
    191  OH       -11.9730   -3.3370  -23.6380 O.3   281  TYR281     -0.2866
    192  N         -4.2630   -7.3030  -20.9880 N.3   286  TYR286     -0.1241
    193  CA        -3.2630   -6.2980  -21.2750 C.3   286  TYR286      0.1605
    194  C         -2.0080   -6.8710  -21.8630 C.2   286  TYR286      0.2264
    195  O         -1.1870   -6.1310  -22.3200 O.2   286  TYR286     -0.2867
    196  CB        -2.9450   -5.4140  -20.0130 C.3   286  TYR286      0.0534
    197  CG        -4.1200   -4.6010  -19.5520 C.ar  286  TYR286     -0.0201
    198  CD1       -4.4380   -3.3870  -20.1370 C.ar  286  TYR286     -0.0009
    199  CD2       -4.9440   -5.0580  -18.5360 C.ar  286  TYR286     -0.0009
    200  CE1       -5.5300   -2.6340  -19.7200 C.ar  286  TYR286      0.0417
    201  CE2       -6.0270   -4.3310  -18.1300 C.ar  286  TYR286      0.0417
    202  CZ        -6.3200   -3.1180  -18.7300 C.ar  286  TYR286      0.1957
    203  OH        -7.4200   -2.4530  -18.3010 O.3   286  TYR286     -0.2866
@<TRIPOS>BOND
     1     1     2    1
     2     4     3    2
     3     3     2    1
     4   113   114    1
     5     2     5    1
     6   117   114    1
     7   117   118    1
     8   115   114    1
     9   115   116    2
    10   157   158    1
    11   118   119    1
    12   164   163    2
    13   163   162    1
    14   138   137    1
    15    15    14    2
    16     5     6    1
    17   160   159    2
    18   158   159    1
    19    53    52    2
    20   159   161   am
    21     6     7    1
    22    14    13    1
    23   136   137    1
    24   136   133    1
    25    46    45    2
    26   161   162    1
    27   121   122    1
    28   162   165    1
    29   137   139    1
    30    54    55    1
    31    54    51    1
    32   119   120    1
    33    12    13    1
    34    52    51    1
    35    55    56    1
    36   132   133    1
    37   132   123   am
    38    13    16    1
    39   165   166    1
    40   133   134    1
    41   152   151    2
    42    51    50    1
    43   134   135    2
    44    45    50   am
    45    45    44    1
    46     7     8    1
    47    10     9    1
    48   122   123    1
    49   122   125    1
    50    49    43    1
    51    49    48    1
    52    16    17    1
    53    43    44    1
    54     9     8    2
    55     9    11    1
    56   123   124    2
    57   125   126    1
    58    28    26    1
    59    44    47    1
    60    56    57    1
    61    47    48    1
    62   151   150    1
    63    57    58    1
    64    21    22    1
    65    17    18    1
    66   166   168   ar
    67   166   167   ar
    68   168   170   ar
    69    26    27    1
    70    26    25    1
    71    19    18   ar
    72    22    25    1
    73    22    23    1
    74   126   128   ar
    75   126   127   ar
    76    18    20   ar
    77   167   169   ar
    78   128   130   ar
    79   150   153    1
    80   150   149    1
    81   106   105    2
    82   153   154    1
    83    23    24    2
    84   170   171   ar
    85   147   146   ar
    86   127   129   ar
    87   191   190    1
    88   169   171   ar
    89   130   131   ar
    90   105   104    1
    91   107   104    1
    92   107   108    1
    93   140   141    1
    94   154   155    1
    95   154   156    1
    96   109   108   ar
    97   109   111   ar
    98   171   172    1
    99    59    60    1
   100   144   141    1
   101   144   145    1
   102    64    63    1
   103   104   103    1
   104   108   110   ar
   105   146   145    1
   106   146   148   ar
   107   129   131   ar
   108   111   112   ar
   109   188   190   ar
   110   188   186   ar
   111   190   189   ar
   112   143   142    2
   113   141   142    1
   114    41    40    1
   115   195   194    2
   116   110   112   ar
   117    60    63    1
   118    60    61    1
   119   194   193    1
   120    63    65    1
   121    39    40    1
   122    39    36    1
   123   186   185   ar
   124   189   187   ar
   125   193   192    1
   126   193   196    1
   127    40    42    1
   128    29    30    1
   129    37    36    1
   130    37    38    2
   131    66    61   am
   132    66    67    1
   133    61    62    2
   134    36    35    1
   135    35    31   am
   136   185   187   ar
   137   185   184    1
   138    71    70    1
   139   198   200   ar
   140   198   197   ar
   141   196   197    1
   142    34    33    1
   143    70    67    1
   144    70    72    1
   145    94    93    1
   146   200   202   ar
   147    30    31    1
   148    30    33    1
   149    67    68    1
   150   197   199   ar
   151    31    32    2
   152    68    69    2
   153   184   181    1
   154    91    93   ar
   155    91    89   ar
   156   176   175    2
   157    93    92   ar
   158   202   203    1
   159   202   201   ar
   160   179   177    1
   161   199   201   ar
   162    82    81   ar
   163    82    80   ar
   164   181   180    1
   165   181   182    1
   166    81    79   ar
   167   102   100    1
   168    89    88   ar
   169   175   180   am
   170   175   174    1
   171   177   178    1
   172   177   174    1
   173    92    90   ar
   174   100    99    1
   175   182   183    2
   176    80    78   ar
   177   174   173    1
   178    79    78   ar
   179    88    90   ar
   180    88    87    1
   181    78    77    1
   182    87    84    1
   183    99   101    1
   184    99    96    1
   185    95    96    1
   186    96    97    1
   187    84    85    1
   188    84    83    1
   189    77    74    1
   190    85    86    2
   191    73    74    1
   192    74    75    1
   193    97    98    2
   194    75    76    2
