@<TRIPOS>MOLECULE
tmp/5mf4D01.pdb
 147 142 0 0 0
SMALL
GASTEIGER

@<TRIPOS>ATOM
      1  N          4.0910  -11.9660  -36.1750 N.3   210  CYS210     -0.1235
      2  CA         3.4230  -11.9440  -37.4710 C.3   210  CYS210      0.1677
      3  C          2.5000  -13.1410  -37.6250 C.2   210  CYS210      0.2270
      4  O          1.3240  -12.9870  -37.9600 O.2   210  CYS210     -0.2867
      5  CB         4.4540  -11.9050  -38.5960 C.3   210  CYS210      0.0956
      6  SG         5.2960  -10.3120  -38.7240 S.3   210  CYS210     -0.0801
      7  N         -0.6830  -11.5490  -35.4940 N.3   214  LEU214     -0.1245
      8  CA        -1.1690  -10.8010  -36.6520 C.3   214  LEU214      0.1561
      9  C         -1.9010  -11.6690  -37.6760 C.2   214  LEU214      0.2260
     10  O         -2.4180  -11.1360  -38.6680 O.2   214  LEU214     -0.2867
     11  CB         0.0020  -10.0800  -37.3350 C.3   214  LEU214      0.0270
     12  CG         0.7260   -9.0280  -36.5010 C.3   214  LEU214      0.0019
     13  CD1        1.5990   -8.1530  -37.3680 C.3   214  LEU214      0.0001
     14  CD2       -0.2680   -8.1810  -35.7310 C.3   214  LEU214      0.0001
     15  N         -0.7800  -13.5570  -39.9390 N.3   216  LEU216     -0.1245
     16  CA        -0.0980  -13.5290  -41.2290 C.3   216  LEU216      0.1561
     17  C          0.4360  -14.9300  -41.5040 C.2   216  LEU216      0.2260
     18  O          1.3930  -15.3810  -40.8590 O.2   216  LEU216     -0.2867
     19  CB         1.0220  -12.4880  -41.2560 C.3   216  LEU216      0.0270
     20  CG         0.5450  -11.0330  -41.3230 C.3   216  LEU216      0.0019
     21  CD1        1.6780  -10.0870  -41.6870 C.3   216  LEU216      0.0001
     22  CD2       -0.5940  -10.8890  -42.3170 C.3   216  LEU216      0.0001
     23  N          9.7840   -8.4360  -45.3000 N.3   222  GLY222     -0.1210
     24  CA         9.1650   -7.1230  -45.2980 C.3   222  GLY222      0.1956
     25  C          8.1920   -6.9430  -44.1490 C.2   222  GLY222      0.2611
     26  O          8.1140   -5.8600  -43.5590 O.2   222  GLY222     -0.2717
     27  N          7.4220   -7.9930  -43.8300 N.am  223  ASP223     -0.1973
     28  CA         6.6100   -7.9970  -42.6130 C.3   223  ASP223      0.1709
     29  C          7.4820   -7.7800  -41.3880 C.2   223  ASP223      0.2293
     30  O          7.3500   -6.7710  -40.6840 O.2   223  ASP223     -0.2864
     31  CB         5.8540   -9.3200  -42.4700 C.3   223  ASP223      0.1436
     32  CG         4.9420   -9.6040  -43.6360 C.2   223  ASP223      0.3671
     33  OD1        4.2010   -8.6870  -44.0300 O.co2 223  ASP223     -0.2456
     34  OD2        4.9770  -10.7410  -44.1540 O.co2 223  ASP223     -0.2456
     35  N          8.7830   -4.4300  -41.0390 N.3   226  HIS226     -0.1226
     36  CA         7.7930   -3.4170  -40.6760 C.3   226  HIS226      0.1752
     37  C          7.5930   -3.3730  -39.1640 C.2   226  HIS226      0.2595
     38  O          7.3830   -2.2910  -38.5960 O.2   226  HIS226     -0.2718
     39  CB         6.4590   -3.6710  -41.3930 C.3   226  HIS226      0.0759
     40  CG         5.9130   -2.4650  -42.0970 C.ar  226  HIS226      0.0818
     41  ND1        6.0680   -2.2610  -43.4520 N.ar  226  HIS226     -0.2268
     42  CD2        5.2240   -1.3940  -41.6310 C.ar  226  HIS226      0.1154
     43  CE1        5.4950   -1.1190  -43.7910 C.ar  226  HIS226      0.1986
     44  NE2        4.9750   -0.5740  -42.7050 N.ar  226  HIS226     -0.2212
     45  N          7.6420   -4.5360  -38.5070 N.am  227  LEU227     -0.1980
     46  CA         7.7010   -4.5510  -37.0540 C.3   227  LEU227      0.1596
     47  C          8.9230   -3.7810  -36.5630 C.2   227  LEU227      0.2287
     48  O          8.8340   -3.0070  -35.5990 O.2   227  LEU227     -0.2864
     49  CB         7.7110   -5.9930  -36.5400 C.3   227  LEU227      0.0297
     50  CG         6.3520   -6.7110  -36.4830 C.3   227  LEU227      0.0022
     51  CD1        6.4790   -8.1820  -36.0550 C.3   227  LEU227      0.0001
     52  CD2        5.3950   -5.9690  -35.5570 C.3   227  LEU227      0.0001
     53  N          8.5040    0.1810  -37.0750 N.3   230  ALA230     -0.1245
     54  CA         7.6020    0.6970  -36.0450 C.3   230  ALA230      0.1562
     55  C          8.3160    0.8380  -34.7090 C.2   230  ALA230      0.2260
     56  O          8.2150    1.8790  -34.0480 O.2   230  ALA230     -0.2867
     57  CB         6.3900   -0.2190  -35.8930 C.3   230  ALA230      0.0290
     58  N          6.0960   -3.1590  -28.5790 N.3   269  PHE269     -0.1241
     59  CA         5.2630   -2.2370  -29.3190 C.3   269  PHE269      0.1605
     60  C          3.8060   -2.6150  -29.1090 C.2   269  PHE269      0.2264
     61  O          3.4770   -3.7940  -28.9530 O.2   269  PHE269     -0.2867
     62  CB         5.6290   -2.2690  -30.8110 C.3   269  PHE269      0.0534
     63  CG         4.8050   -1.3480  -31.6560 C.ar  269  PHE269     -0.0203
     64  CD1        5.1700   -0.0210  -31.8090 C.ar  269  PHE269     -0.0042
     65  CD2        3.6610   -1.8060  -32.2880 C.ar  269  PHE269     -0.0042
     66  CE1        4.4120    0.8290  -32.5690 C.ar  269  PHE269     -0.0003
     67  CE2        2.8950   -0.9650  -33.0440 C.ar  269  PHE269     -0.0003
     68  CZ         3.2710    0.3570  -33.1850 C.ar  269  PHE269     -0.0000
     69  N         -0.3070   -0.7770  -30.4700 N.3   271  PRO271     -0.2102
     70  CA        -1.0510   -2.0330  -30.5560 C.3   271  PRO271      0.1504
     71  C         -0.5540   -3.0130  -31.6150 C.2   271  PRO271      0.2576
     72  O         -0.0630   -2.6220  -32.6800 O.2   271  PRO271     -0.2718
     73  CB        -2.4620   -1.5580  -30.9130 C.3   271  PRO271      0.0282
     74  CG        -2.2350   -0.3530  -31.7550 C.3   271  PRO271      0.0208
     75  CD        -1.0110    0.3190  -31.1690 C.3   271  PRO271      0.0893
     76  N         -0.6970   -4.2950  -31.2990 N.am  272  LEU272     -0.1966
     77  CA        -0.4520   -5.3940  -32.2220 C.3   272  LEU272      0.1728
     78  C         -1.7290   -6.2210  -32.2860 C.2   272  LEU272      0.2617
     79  O         -2.0360   -6.9690  -31.3530 O.2   272  LEU272     -0.2715
     80  CB         0.7340   -6.2470  -31.7690 C.3   272  LEU272      0.0311
     81  CG         2.1380   -5.6780  -31.9710 C.3   272  LEU272      0.0022
     82  CD1        3.1050   -6.4490  -31.1060 C.3   272  LEU272      0.0001
     83  CD2        2.5370   -5.7650  -33.4440 C.3   272  LEU272      0.0001
     84  N         -2.4720   -6.0880  -33.3800 N.am  273  THR273     -0.1937
     85  CA        -3.7440   -6.7770  -33.5080 C.3   273  THR273      0.2028
     86  C         -3.9570   -7.1420  -34.9690 C.2   273  THR273      0.2643
     87  O         -3.4210   -6.4990  -35.8750 O.2   273  THR273     -0.2714
     88  CB        -4.9080   -5.9160  -32.9990 C.3   273  THR273      0.1808
     89  OG1       -6.1540   -6.5910  -33.2560 O.3   273  THR273     -0.2208
     90  CG2       -4.9140   -4.5680  -33.7200 C.3   273  THR273      0.0379
     91  N         -4.7510   -8.1850  -35.1880 N.am  274  SER274     -0.1935
     92  CA        -5.0790   -8.6270  -36.5330 C.3   274  SER274      0.2055
     93  C         -6.2890   -7.8670  -37.0620 C.2   274  SER274      0.2643
     94  O         -7.1900   -7.4870  -36.3090 O.2   274  SER274     -0.2714
     95  CB        -5.3560  -10.1320  -36.5570 C.3   274  SER274      0.2130
     96  OG        -6.6110  -10.4320  -35.9710 O.3   274  SER274     -0.2179
     97  N         -6.2960   -7.6400  -38.3710 N.am  275  ARG275     -0.1963
     98  CA        -7.4260   -6.9930  -39.0330 C.3   275  ARG275      0.1729
     99  C         -8.7330   -7.7060  -38.6960 C.2   275  ARG275      0.2617
    100  O         -8.8890   -8.9000  -38.9770 O.2   275  ARG275     -0.2715
    101  CB        -7.2090   -6.9720  -40.5490 C.3   275  ARG275      0.0348
    102  CG        -5.8810   -6.3560  -40.9880 C.3   275  ARG275      0.0492
    103  CD        -5.8830   -6.1470  -42.4920 C.3   275  ARG275      0.2205
    104  NE        -4.5890   -5.7030  -42.9950 N.pl3 275  ARG275     -0.0865
    105  CZ        -4.0860   -4.4910  -42.7890 C.cat 275  ARG275      0.5346
    106  NH1       -2.9070   -4.1660  -43.2980 N.pl3 275  ARG275      0.1354
    107  NH2       -4.7600   -3.6050  -42.0670 N.pl3 275  ARG275      0.1354
    108  N         -9.6740   -6.9740  -38.1050 N.am  276  GLY276     -0.1940
    109  CA        -9.5000   -5.5600  -37.8140 C.3   276  GLY276      0.2014
    110  C        -10.4010   -5.1250  -36.6710 C.2   276  GLY276      0.2639
    111  O        -11.5280   -5.6090  -36.5490 O.2   276  GLY276     -0.2714
    112  N         -9.9190   -4.2070  -35.8380 N.am  277  SER277     -0.1949
    113  CA       -10.6340   -3.8530  -34.6150 C.3   277  SER277      0.1924
    114  C        -10.6450   -2.3480  -34.3460 C.2   277  SER277      0.2314
    115  O        -11.7030   -1.7560  -34.1130 O.2   277  SER277     -0.2863
    116  CB       -10.0190   -4.5950  -33.4250 C.3   277  SER277      0.2116
    117  OG        -9.9520   -5.9910  -33.6790 O.3   277  SER277     -0.2180
    118  N          2.2850    7.6710  -34.7260 N.3   352  PRO352     -0.2102
    119  CA         2.8850    7.0730  -35.9240 C.3   352  PRO352      0.1504
    120  C          1.9110    7.1420  -37.0870 C.2   352  PRO352      0.2576
    121  O          0.7070    7.3300  -36.9140 O.2   352  PRO352     -0.2718
    122  CB         3.1610    5.6200  -35.5190 C.3   352  PRO352      0.0282
    123  CG         2.8420    5.5230  -34.0510 C.3   352  PRO352      0.0208
    124  CD         1.9510    6.6690  -33.7000 C.3   352  PRO352      0.0893
    125  N          2.4500    6.9790  -38.2910 N.am  353  ARG353     -0.1966
    126  CA         1.6460    7.1240  -39.4990 C.3   353  ARG353      0.1729
    127  C          0.4310    6.2030  -39.4730 C.2   353  ARG353      0.2617
    128  O          0.5690    4.9810  -39.3760 O.2   353  ARG353     -0.2715
    129  CB         2.5170    6.8350  -40.7240 C.3   353  ARG353      0.0348
    130  CG         1.8000    6.9320  -42.0610 C.3   353  ARG353      0.0492
    131  CD         1.0840    8.2670  -42.2330 C.3   353  ARG353      0.2205
    132  NE         1.9350    9.3220  -42.7820 N.pl3 353  ARG353     -0.0865
    133  CZ         1.4690   10.4090  -43.3960 C.cat 353  ARG353      0.5346
    134  NH1        2.3060   11.3220  -43.8700 N.pl3 353  ARG353      0.1354
    135  NH2        0.1610   10.5760  -43.5490 N.pl3 353  ARG353      0.1354
    136  N         -0.7650    6.7980  -39.5470 N.am  354  GLY354     -0.1940
    137  CA        -2.0020    6.0480  -39.6610 C.3   354  GLY354      0.2014
    138  C         -2.5990    5.5350  -38.3650 C.2   354  GLY354      0.2638
    139  O         -3.6960    4.9650  -38.3890 O.2   354  GLY354     -0.2714
    140  N         -1.9320    5.7120  -37.2350 N.am  355  LEU355     -0.1977
    141  CA        -2.4540    5.2820  -35.9470 C.3   355  LEU355      0.1596
    142  C         -2.8560    6.5020  -35.1300 C.2   355  LEU355      0.2287
    143  O         -2.1330    7.5000  -35.0960 O.2   355  LEU355     -0.2864
    144  CB        -1.4180    4.4600  -35.1760 C.3   355  LEU355      0.0297
    145  CG        -1.2930    2.9520  -35.4130 C.3   355  LEU355      0.0022
    146  CD1       -0.1220    2.3880  -34.6120 C.3   355  LEU355      0.0001
    147  CD2       -2.5570    2.2690  -35.0080 C.3   355  LEU355      0.0001
@<TRIPOS>BOND
     1    23    24    1
     2    24    25    1
     3    34    32   ar
     4    25    27   am
     5    25    26    2
     6    33    32   ar
     7   134   133    1
     8    27    28    1
     9    43    41   ar
    10    43    44   ar
    11    32    31    1
    12   135   133    1
    13    41    40   ar
    14   133   132    2
    15   106   105    1
    16   104   105    2
    17   104   103    1
    18   105   107    1
    19   132   131    1
    20    44    42   ar
    21    28    31    1
    22    28    29    1
    23   103   102    1
    24    22    20    1
    25   131   130    1
    26    40    42   ar
    27    40    39    1
    28   130   129    1
    29    21    20    1
    30    17    16    1
    31    17    18    2
    32    39    36    1
    33    29    30    2
    34    20    19    1
    35    19    16    1
    36    16    15    1
    37    35    36    1
    38   102   101    1
    39   129   126    1
    40    36    37    1
    41   101    98    1
    42   137   136    1
    43   137   138    1
    44   136   127   am
    45   126   127    1
    46   126   125    1
    47   127   128    2
    48    37    38    2
    49    37    45   am
    50    98    99    1
    51    98    97    1
    52   100    99    2
    53     6     5    1
    54    99   108   am
    55    10     9    2
    56     5     2    1
    57    45    46    1
    58   139   138    2
    59    97    93   am
    60   138   140   am
    61   125   120   am
    62   108   109    1
    63     4     3    2
    64   109   110    1
    65     9     8    1
    66     3     2    1
    67     2     1    1
    68    13    12    1
    69    11     8    1
    70    11    12    1
    71   140   141    1
    72   120   121    2
    73   120   119    1
    74    53    54    1
    75    93    92    1
    76    93    94    2
    77    46    47    1
    78    46    49    1
    79   110   111    2
    80   110   112   am
    81     8     7    1
    82    47    48    2
    83    95    92    1
    84    95    96    1
    85    49    50    1
    86    92    91    1
    87    12    14    1
    88    50    51    1
    89    50    52    1
    90    54    57    1
    91    54    55    1
    92   141   144    1
    93   141   142    1
    94   119   122    1
    95   119   118    1
    96    87    86    2
    97   112   113    1
    98   122   123    1
    99   145   144    1
   100   145   147    1
   101   145   146    1
   102    91    86   am
   103   142   143    2
   104    86    85    1
   105   118   124    1
   106    55    56    2
   107   113   114    1
   108   113   116    1
   109   114   115    2
   110   123   124    1
   111    90    88    1
   112   117   116    1
   113    85    84    1
   114    85    88    1
   115    83    81    1
   116    84    78   am
   117    89    88    1
   118    68    67   ar
   119    68    66   ar
   120    67    65   ar
   121    72    71    2
   122    66    64   ar
   123    65    63   ar
   124    78    77    1
   125    78    79    2
   126    77    80    1
   127    77    76    1
   128    81    80    1
   129    81    82    1
   130    64    63   ar
   131    74    75    1
   132    74    73    1
   133    63    62    1
   134    71    76   am
   135    71    70    1
   136    75    69    1
   137    73    70    1
   138    62    59    1
   139    70    69    1
   140    59    60    1
   141    59    58    1
   142    60    61    2
