@<TRIPOS>MOLECULE
tmp/5mf5A00.pdb
 238 227 0 0 0
SMALL
GASTEIGER

@<TRIPOS>ATOM
      1  N         -5.8940   32.7940   30.0310 N.3    21  GLN21      -0.1245
      2  CA        -5.0050   32.0410   30.9300 C.3    21  GLN21       0.1566
      3  C         -3.7240   31.7740   30.1800 C.2    21  GLN21       0.2260
      4  O         -3.7820   31.1790   29.1160 O.2    21  GLN21      -0.2867
      5  CB        -5.6310   30.7210   31.3790 C.3    21  GLN21       0.0367
      6  CG        -4.7340   30.0300   32.3920 C.3    21  GLN21       0.0905
      7  CD        -5.3570   28.9190   33.1850 C.2    21  GLN21       0.2608
      8  OE1       -6.1270   28.0890   32.6680 O.2    21  GLN21      -0.2717
      9  NE2       -4.9090   28.7960   34.4490 N.am   21  GLN21      -0.0878
     10  N         -4.9000   30.6630   26.5890 N.3    35  GLU35      -0.1231
     11  CA        -6.1690   30.0380   26.3360 C.3    35  GLU35       0.1699
     12  C         -7.2480   31.0530   26.6880 C.2    35  GLU35       0.2592
     13  O         -7.2160   31.6280   27.7940 O.2    35  GLU35      -0.2718
     14  CB        -6.3930   28.7570   27.1710 C.3    35  GLU35       0.0402
     15  CG        -7.7980   28.1480   26.8470 C.3    35  GLU35       0.1161
     16  CD        -8.1120   26.7860   27.4820 C.2    35  GLU35       0.3649
     17  OE1       -7.3510   26.3380   28.3340 O.co2  35  GLU35      -0.2457
     18  OE2       -9.1880   26.1910   27.1700 O.co2  35  GLU35      -0.2457
     19  N         -8.1580   31.2800   25.7520 N.am   36  VAL36      -0.1966
     20  CA        -9.2940   32.1400   25.9470 C.3    36  VAL36       0.1727
     21  C        -10.4220   31.3230   26.5700 C.2    36  VAL36       0.2616
     22  O        -10.9130   30.2650   26.0140 O.2    36  VAL36      -0.2715
     23  CB        -9.7940   32.7730   24.6280 C.3    36  VAL36       0.0290
     24  CG1      -10.9840   33.7020   24.8740 C.3    36  VAL36       0.0023
     25  CG2       -8.6880   33.5470   23.9260 C.3    36  VAL36       0.0023
     26  N        -10.9040   31.8760   27.6820 N.am   37  LEU37      -0.1963
     27  CA       -11.9550   31.2460   28.4900 C.3    37  LEU37       0.1728
     28  C        -13.1230   32.2260   28.6440 C.2    37  LEU37       0.2616
     29  O        -12.9340   33.3350   29.0530 O.2    37  LEU37      -0.2715
     30  CB       -11.3900   30.8920   29.8390 C.3    37  LEU37       0.0311
     31  CG       -10.3300   29.7910   29.7060 C.3    37  LEU37       0.0022
     32  CD1       -9.4770   29.7700   30.9490 C.3    37  LEU37       0.0001
     33  CD2      -10.9520   28.4400   29.5100 C.3    37  LEU37       0.0001
     34  N        -14.3110   31.7940   28.2920 N.am   38  MET38      -0.1963
     35  CA       -15.4780   32.6680   28.3390 C.3    38  MET38       0.1736
     36  C        -15.9090   32.9010   29.7830 C.2    38  MET38       0.2616
     37  O        -15.8130   32.0300   30.6250 O.2    38  MET38      -0.2715
     38  CB       -16.5960   32.0360   27.5210 C.3    38  MET38       0.0427
     39  CG       -17.7120   33.0090   27.1590 C.3    38  MET38       0.0599
     40  SD       -19.0530   32.2330   26.2840 S.3    38  MET38      -0.1393
     41  CE       -18.4020   31.6790   24.7240 C.3    38  MET38       0.0692
     42  N        -16.3850   34.1060   30.0420 N.am   39  ARG39      -0.1977
     43  CA       -17.0060   34.4980   31.3020 C.3    39  ARG39       0.1597
     44  C        -18.2550   35.2370   30.9290 C.2    39  ARG39       0.2287
     45  O        -18.3270   35.7920   29.8390 O.2    39  ARG39      -0.2864
     46  CB       -16.0770   35.3980   32.1130 C.3    39  ARG39       0.0334
     47  CG       -14.7540   34.7840   32.5670 C.3    39  ARG39       0.0492
     48  CD       -14.9720   33.7880   33.6540 C.3    39  ARG39       0.2205
     49  NE       -13.7790   33.1540   34.2000 N.pl3  39  ARG39      -0.0865
     50  CZ       -13.2460   32.0230   33.7670 C.cat  39  ARG39       0.5346
     51  NH1      -13.7080   31.4230   32.6600 N.pl3  39  ARG39       0.1354
     52  NH2      -12.2270   31.5020   34.4160 N.pl3  39  ARG39       0.1354
     53  N        -18.8390   31.8200   35.8430 N.3    49  ARG49      -0.1231
     54  CA       -17.8840   30.9630   35.1690 C.3    49  ARG49       0.1679
     55  C        -18.6160   29.9980   34.2390 C.2    49  ARG49       0.2434
     56  O        -19.8120   29.7040   34.4390 O.2    49  ARG49      -0.2733
     57  CB       -17.0160   30.2380   36.1980 C.3    49  ARG49       0.0321
     58  CG       -15.8600   31.0640   36.7390 C.3    49  ARG49       0.0489
     59  CD       -14.5860   30.2370   36.8750 C.3    49  ARG49       0.2205
     60  NE       -14.5830   29.3600   38.0230 N.pl3  49  ARG49      -0.0865
     61  CZ       -13.9460   28.1880   38.1330 C.cat  49  ARG49       0.5346
     62  NH1      -13.2470   27.6490   37.1430 N.pl3  49  ARG49       0.1354
     63  NH2      -14.0290   27.5240   39.2770 N.pl3  49  ARG49       0.1354
     64  N        -17.9220   29.5280   33.1810 N.am   50  PRO50      -0.2718
     65  CA       -18.5820   28.8420   32.0870 C.3    50  PRO50       0.1535
     66  C        -19.1890   27.4870   32.3850 C.2    50  PRO50       0.2598
     67  O        -20.1130   27.1010   31.6880 O.2    50  PRO50      -0.2715
     68  CB       -17.4870   28.7200   31.0090 C.3    50  PRO50       0.0310
     69  CG       -16.1960   28.9500   31.7090 C.3    50  PRO50       0.0237
     70  CD       -16.4820   29.7680   32.9180 C.3    50  PRO50       0.0939
     71  N        -18.7260   26.7640   33.4000 N.am   51  ASP51      -0.1972
     72  CA       -19.4240   25.5110   33.7460 C.3    51  ASP51       0.1709
     73  C        -20.8420   25.7700   34.1730 C.2    51  ASP51       0.2293
     74  O        -21.6780   24.8480   34.1280 O.2    51  ASP51      -0.2864
     75  CB       -18.6850   24.7000   34.8220 C.3    51  ASP51       0.1436
     76  CG       -17.4000   24.0390   34.3000 C.2    51  ASP51       0.3671
     77  OD1      -17.2560   23.8290   33.0760 O.co2  51  ASP51      -0.2456
     78  OD2      -16.5220   23.7350   35.1380 O.co2  51  ASP51      -0.2456
     79  N        -22.3740   27.3050   29.8860 N.3    54  ILE54      -0.1245
     80  CA       -22.0670   26.7610   28.5440 C.3    54  ILE54       0.1561
     81  C        -22.9560   25.5440   28.2170 C.2    54  ILE54       0.2260
     82  O        -23.4520   25.4180   27.0840 O.2    54  ILE54      -0.2867
     83  CB       -20.5690   26.3790   28.4110 C.3    54  ILE54       0.0252
     84  CG1      -19.7010   27.6560   28.4500 C.3    54  ILE54       0.0019
     85  CG2      -20.3430   25.5180   27.1700 C.3    54  ILE54       0.0019
     86  CD1      -19.6890   28.5090   27.2180 C.3    54  ILE54       0.0001
     87  N        -25.1360   25.3870   24.7930 N.3    58  GLU58      -0.1245
     88  CA       -25.0560   24.3290   23.8040 C.3    58  GLU58       0.1567
     89  C        -26.4280   23.7450   23.4260 C.2    58  GLU58       0.2260
     90  O        -26.7020   23.4880   22.2510 O.2    58  GLU58      -0.2867
     91  CB       -24.1200   23.2410   24.2920 C.3    58  GLU58       0.0388
     92  CG       -22.6800   23.6940   24.2160 C.3    58  GLU58       0.1160
     93  CD       -21.6890   22.6500   24.6760 C.2    58  GLU58       0.3649
     94  OE1      -22.0560   21.8760   25.5750 O.co2  58  GLU58      -0.2457
     95  OE2      -20.5390   22.6420   24.1680 O.co2  58  GLU58      -0.2457
     96  N        -24.3430   28.5630   21.2520 N.3    63  ILE63      -0.1245
     97  CA       -22.9120   28.4650   21.4930 C.3    63  ILE63       0.1561
     98  C        -22.0720   28.9830   20.3110 C.2    63  ILE63       0.2260
     99  O        -21.0700   29.6240   20.5460 O.2    63  ILE63      -0.2867
    100  CB       -22.4800   27.0560   21.9200 C.3    63  ILE63       0.0252
    101  CG1      -21.0250   27.0660   22.4530 C.3    63  ILE63       0.0019
    102  CG2      -22.6030   26.0840   20.7570 C.3    63  ILE63       0.0019
    103  CD1      -20.7570   27.9670   23.6130 C.3    63  ILE63       0.0001
    104  N        -19.4300   31.9810   20.6010 N.3    67  THR67      -0.1218
    105  CA       -18.0360   31.7740   20.2810 C.3    67  THR67       0.1862
    106  C        -17.5370   32.8150   19.2810 C.2    67  THR67       0.2287
    107  O        -16.4390   33.3460   19.4150 O.2    67  THR67      -0.2866
    108  CB       -17.8050   30.3570   19.7160 C.3    67  THR67       0.1770
    109  OG1      -18.3300   29.3830   20.6460 O.3    67  THR67      -0.2211
    110  CG2      -16.3160   30.1220   19.4850 C.3    67  THR67       0.0375
    111  N        -16.9470   36.0130   21.0420 N.3    70  LEU70      -0.1245
    112  CA       -15.7110   35.9220   21.8000 C.3    70  LEU70       0.1561
    113  C        -14.4810   36.1090   20.9030 C.2    70  LEU70       0.2260
    114  O        -13.5660   36.8490   21.2460 O.2    70  LEU70      -0.2867
    115  CB       -15.6660   34.5680   22.5100 C.3    70  LEU70       0.0270
    116  CG       -14.6700   34.4850   23.6350 C.3    70  LEU70       0.0019
    117  CD1      -15.0180   35.3870   24.8110 C.3    70  LEU70       0.0001
    118  CD2      -14.6620   33.0230   24.0690 C.3    70  LEU70       0.0001
    119  N         -8.9300   28.7310   21.5740 N.3    93  PHE93      -0.1227
    120  CA       -10.3380   28.7960   21.8790 C.3    93  PHE93       0.1736
    121  C        -10.8980   27.3820   22.0110 C.2    93  PHE93       0.2595
    122  O        -10.5690   26.4940   21.2470 O.2    93  PHE93      -0.2718
    123  CB       -11.1010   29.4680   20.7600 C.3    93  PHE93       0.0547
    124  CG       -10.7630   30.9240   20.5960 C.ar   93  PHE93      -0.0202
    125  CD1       -9.6710   31.2950   19.8260 C.ar   93  PHE93      -0.0042
    126  CD2      -11.5540   31.9220   21.1790 C.ar   93  PHE93      -0.0042
    127  CE1       -9.3240   32.6310   19.6730 C.ar   93  PHE93      -0.0003
    128  CE2      -11.2120   33.2620   21.0340 C.ar   93  PHE93      -0.0003
    129  CZ       -10.0870   33.6250   20.2900 C.ar   93  PHE93      -0.0000
    130  N        -11.8080   27.2140   22.9430 N.am   94  ASN94      -0.1960
    131  CA       -12.5730   26.0110   23.0600 C.3    94  ASN94       0.1819
    132  C        -13.7050   26.0720   22.0330 C.2    94  ASN94       0.2621
    133  O        -14.5320   27.0060   22.0490 O.2    94  ASN94      -0.2715
    134  CB       -13.1250   25.9020   24.4800 C.3    94  ASN94       0.1195
    135  CG       -12.0170   25.7490   25.5030 C.2    94  ASN94       0.2630
    136  OD1      -11.4580   24.6750   25.6310 O.2    94  ASN94      -0.2716
    137  ND2      -11.6780   26.8130   26.1960 N.am   94  ASN94      -0.0877
    138  N        -13.7960   25.0260   21.2120 N.am   95  ILE95      -0.1963
    139  CA       -14.8000   24.9670   20.1570 C.3    95  ILE95       0.1727
    140  C        -15.7780   23.8700   20.4760 C.2    95  ILE95       0.2616
    141  O        -15.3740   22.7410   20.7630 O.2    95  ILE95      -0.2715
    142  CB       -14.1360   24.7540   18.7980 C.3    95  ILE95       0.0290
    143  CG1      -13.1620   25.9010   18.4940 C.3    95  ILE95       0.0022
    144  CG2      -15.1730   24.6280   17.7000 C.3    95  ILE95       0.0023
    145  CD1      -13.7720   27.2990   18.4500 C.3    95  ILE95       0.0001
    146  N        -17.0710   24.1770   20.3880 N.am   96  SER96      -0.1950
    147  CA       -18.0900   23.1480   20.6150 C.3    96  SER96       0.1924
    148  C        -18.2880   22.2760   19.3870 C.2    96  SER96       0.2314
    149  O        -18.0170   22.6710   18.2690 O.2    96  SER96      -0.2863
    150  CB       -19.4340   23.7610   21.0060 C.3    96  SER96       0.2116
    151  OG       -19.9270   24.5420   19.9320 O.3    96  SER96      -0.2180
    152  N         -8.1580   18.7840   24.0570 N.3   156  ASP156     -0.1225
    153  CA        -8.0570   19.0740   25.5110 C.3   156  ASP156      0.1805
    154  C         -8.8370   18.0780   26.3310 C.2   156  ASP156      0.2597
    155  O         -9.3610   17.1140   25.7700 O.2   156  ASP156     -0.2718
    156  CB        -8.3290   20.5540   25.8920 C.3   156  ASP156      0.1424
    157  CG        -9.7810   20.9700   25.7570 C.2   156  ASP156      0.3668
    158  OD1      -10.5530   20.2750   25.0470 O.co2 156  ASP156     -0.2456
    159  OD2      -10.1440   22.0150   26.3510 O.co2 156  ASP156     -0.2456
    160  N         -8.7840   18.2440   27.6580 N.am  157  ASP157     -0.1974
    161  CA        -9.2580   17.2130   28.6010 C.3   157  ASP157      0.1709
    162  C         -8.6350   15.8210   28.3330 C.2   157  ASP157      0.2293
    163  O         -9.2610   14.7920   28.5770 O.2   157  ASP157     -0.2864
    164  CB       -10.7900   17.1230   28.6140 C.3   157  ASP157      0.1436
    165  CG       -11.4820   18.4630   28.8320 C.2   157  ASP157      0.3671
    166  OD1      -11.0650   19.2830   29.7150 O.co2 157  ASP157     -0.2456
    167  OD2      -12.4730   18.6620   28.0830 O.co2 157  ASP157     -0.2456
    168  N         -5.4250   16.6200   30.8470 N.3   179  ASP179     -0.1225
    169  CA        -6.4070   17.1540   31.8100 C.3   179  ASP179      0.1805
    170  C         -5.8040   17.3990   33.1930 C.2   179  ASP179      0.2597
    171  O         -4.9040   16.6640   33.6600 O.2   179  ASP179     -0.2718
    172  CB        -7.6190   16.2370   31.9470 C.3   179  ASP179      0.1424
    173  CG        -8.7830   16.9470   32.6350 C.2   179  ASP179      0.3668
    174  OD1       -9.3750   17.9490   32.0540 O.co2 179  ASP179     -0.2456
    175  OD2       -8.9700   16.5730   33.8400 O.co2 179  ASP179     -0.2456
    176  N         -6.3190   18.4190   33.8720 N.am  180  GLN180     -0.1979
    177  CA        -5.7990   18.7720   35.1750 C.3   180  GLN180      0.1601
    178  C         -5.9190   17.6570   36.2090 C.2   180  GLN180      0.2287
    179  O         -5.1130   17.6090   37.1140 O.2   180  GLN180     -0.2864
    180  CB        -6.4390   20.0640   35.6880 C.3   180  GLN180      0.0394
    181  CG        -7.9210   20.0040   35.9980 C.3   180  GLN180      0.0908
    182  CD        -8.4110   21.3640   36.4800 C.2   180  GLN180      0.2608
    183  OE1       -8.1300   21.7590   37.6070 O.2   180  GLN180     -0.2717
    184  NE2       -9.1350   22.0730   35.6400 N.am  180  GLN180     -0.0878
    185  N         -2.2000   20.8620   31.8490 N.3   213  GLU213     -0.1231
    186  CA        -3.0510   21.8410   32.5170 C.3   213  GLU213      0.1699
    187  C         -3.1510   21.5440   34.0170 C.2   213  GLU213      0.2592
    188  O         -2.8900   20.4150   34.4750 O.2   213  GLU213     -0.2718
    189  CB        -4.4410   21.7790   31.9300 C.3   213  GLU213      0.0402
    190  CG        -4.4830   22.2020   30.4890 C.3   213  GLU213      0.1161
    191  CD        -5.8730   22.0580   29.9000 C.2   213  GLU213      0.3649
    192  OE1       -6.8620   21.7770   30.6490 O.co2 213  GLU213     -0.2457
    193  OE2       -5.9820   22.2480   28.6680 O.co2 213  GLU213     -0.2457
    194  N         -3.6320   22.5460   34.7540 N.am  214  GLY214     -0.1957
    195  CA        -3.7380   22.4660   36.1990 C.3   214  GLY214      0.1869
    196  C         -2.4550   22.4540   36.9940 C.2   214  GLY214      0.2309
    197  O         -2.4130   21.8680   38.0830 O.2   214  GLY214     -0.2863
    198  N         -0.2760   23.6260   39.5060 N.3   216  GLU216     -0.1245
    199  CA        -0.4750   24.4490   40.7250 C.3   216  GLU216      0.1567
    200  C          0.7640   24.4970   41.5940 C.2   216  GLU216      0.2260
    201  O          0.9550   25.4670   42.3260 O.2   216  GLU216     -0.2867
    202  CB        -1.6530   23.8920   41.5140 C.3   216  GLU216      0.0388
    203  CG        -2.9620   24.0580   40.8090 C.3   216  GLU216      0.1160
    204  CD        -4.1540   23.7650   41.6960 C.2   216  GLU216      0.3649
    205  OE1       -3.9790   23.0480   42.6800 O.co2 216  GLU216     -0.2457
    206  OE2       -5.2630   24.2640   41.4220 O.co2 216  GLU216     -0.2457
    207  N          0.2220   25.1500   31.8580 N.3   233  GLN233     -0.1231
    208  CA        -0.8860   26.0210   32.1270 C.3   233  GLN233      0.1698
    209  C         -1.4010   25.6540   33.5220 C.2   233  GLN233      0.2593
    210  O         -1.6180   24.4740   33.8530 O.2   233  GLN233     -0.2718
    211  CB        -1.9680   25.7040   31.1030 C.3   233  GLN233      0.0381
    212  CG        -3.1710   26.6190   31.1300 C.3   233  GLN233      0.0905
    213  CD        -4.1230   26.3860   29.9740 C.2   233  GLN233      0.2608
    214  OE1       -3.7390   25.7860   28.9540 O.2   233  GLN233     -0.2717
    215  NE2       -5.3740   26.8530   30.1200 N.am  233  GLN233     -0.0878
    216  N         -1.6890   26.6540   34.3300 N.am  234  GLY234     -0.1942
    217  CA        -2.2020   26.4030   35.6260 C.3   234  GLY234      0.2014
    218  C         -2.0500   27.5960   36.5300 C.2   234  GLY234      0.2638
    219  O         -1.4110   28.5940   36.1720 O.2   234  GLY234     -0.2714
    220  N         -2.6330   27.4830   37.7140 N.am  235  TYR235     -0.1973
    221  CA        -2.5350   28.6020   38.6430 C.3   235  TYR235      0.1639
    222  C         -1.1180   28.9850   39.0380 C.2   235  TYR235      0.2290
    223  O         -0.8400   30.1550   39.3430 O.2   235  TYR235     -0.2864
    224  CB        -3.3980   28.3430   39.8550 C.3   235  TYR235      0.0560
    225  CG        -4.8980   28.3250   39.6090 C.ar  235  TYR235     -0.0198
    226  CD1       -5.4700   28.5320   38.3510 C.ar  235  TYR235     -0.0009
    227  CD2       -5.7630   28.1290   40.6840 C.ar  235  TYR235     -0.0009
    228  CE1       -6.8490   28.5370   38.1830 C.ar  235  TYR235      0.0417
    229  CE2       -7.1260   28.1530   40.5370 C.ar  235  TYR235      0.0417
    230  CZ        -7.6790   28.3680   39.3020 C.ar  235  TYR235      0.1957
    231  OH        -9.0420   28.3380   39.1680 O.3   235  TYR235     -0.2866
    232  N         -6.7830   32.3890   35.0370 N.3   240  PRO240     -0.2116
    233  CA        -7.4150   33.1530   33.9390 C.3   240  PRO240      0.1372
    234  C         -7.5940   34.5940   34.4160 C.2   240  PRO240      0.2244
    235  O         -7.9080   34.8230   35.5790 O.2   240  PRO240     -0.2868
    236  CB        -8.7640   32.4800   33.7490 C.3   240  PRO240      0.0268
    237  CG        -8.5940   31.1370   34.3250 C.3   240  PRO240      0.0207
    238  CD        -7.5870   31.2240   35.4290 C.3   240  PRO240      0.0892
@<TRIPOS>BOND
     1   144   142    1
     2   149   148    2
     3   145   143    1
     4   143   142    1
     5   142   139    1
     6   106   107    2
     7   106   105    1
     8   148   147    1
     9   110   108    1
    10   127   125   ar
    11   127   129   ar
    12   108   105    1
    13   108   109    1
    14   125   124   ar
    15   151   150    1
    16   139   140    1
    17   139   138    1
    18   105   104    1
    19   129   128   ar
    20    98    99    2
    21    98    97    1
    22   146   140   am
    23   146   147    1
    24   140   141    2
    25   124   123    1
    26   124   126   ar
    27   147   150    1
    28   102   100    1
    29   123   120    1
    30   113   114    2
    31   113   112    1
    32   128   126   ar
    33   111   112    1
    34   138   132   am
    35   122   121    2
    36    96    97    1
    37    97   100    1
    38   119   120    1
    39   112   115    1
    40   120   121    1
    41   100   101    1
    42   121   130   am
    43   132   133    2
    44   132   131    1
    45    90    89    2
    46   101   103    1
    47   115   116    1
    48   130   131    1
    49   131   134    1
    50    89    88    1
    51   116   118    1
    52   116   117    1
    53    88    91    1
    54    88    87    1
    55    25    23    1
    56   152   153    1
    57    95    93   ar
    58    92    91    1
    59    92    93    1
    60   134   135    1
    61    23    24    1
    62    23    20    1
    63    93    94   ar
    64    41    40    1
    65   158   157   ar
    66   135   136    2
    67   135   137   am
    68   153   156    1
    69   153   154    1
    70    19    20    1
    71    19    12   am
    72   157   156    1
    73   157   159   ar
    74   155   154    2
    75    20    21    1
    76    22    21    2
    77    40    39    1
    78   154   160   am
    79    11    10    1
    80    11    12    1
    81    11    14    1
    82    21    26   am
    83    12    13    2
    84    15    14    1
    85    15    16    1
    86    82    81    2
    87    39    38    1
    88    85    83    1
    89    18    16   ar
    90    86    84    1
    91    16    17   ar
    92    38    35    1
    93   160   161    1
    94    26    27    1
    95   167   165   ar
    96    81    80    1
    97    34    35    1
    98    34    28   am
    99   162   163    2
   100   162   161    1
   101    35    36    1
   102    83    84    1
   103    83    80    1
   104    27    28    1
   105    27    30    1
   106    80    79    1
   107   161   164    1
   108   164   165    1
   109    28    29    2
   110   193   191   ar
   111   165   166   ar
   112   214   213    2
   113     4     3    2
   114    33    31    1
   115    31    30    1
   116    31    32    1
   117    36    42   am
   118    36    37    2
   119    45    44    2
   120   191   190    1
   121   191   192   ar
   122   213   215   am
   123   213   212    1
   124     1     2    1
   125    42    43    1
   126     3     2    1
   127   190   189    1
   128   168   169    1
   129    44    43    1
   130     2     5    1
   131    68    69    1
   132    68    65    1
   133   211   212    1
   134   211   208    1
   135    43    46    1
   136     5     6    1
   137    67    66    2
   138    69    70    1
   139   169   172    1
   140   169   170    1
   141   185   186    1
   142   207   208    1
   143   189   186    1
   144   172   173    1
   145   174   173   ar
   146    65    66    1
   147    65    64    1
   148    46    47    1
   149   208   209    1
   150    66    71   am
   151     6     7    1
   152   186   187    1
   153    47    48    1
   154   173   175   ar
   155    51    50    1
   156     8     7    2
   157    70    64    1
   158    77    76   ar
   159    64    55   am
   160     7     9   am
   161   170   171    2
   162   170   176   am
   163    71    72    1
   164   209   210    2
   165   209   216   am
   166    48    49    1
   167    72    73    1
   168    72    75    1
   169   236   233    1
   170   236   237    1
   171    50    49    2
   172    50    52    1
   173   176   177    1
   174   233   234    1
   175   233   232    1
   176   187   188    2
   177   187   194   am
   178    74    73    2
   179    55    56    2
   180    55    54    1
   181    76    75    1
   182    76    78   ar
   183   237   238    1
   184   216   217    1
   185   234   235    2
   186   194   195    1
   187   232   238    1
   188    54    53    1
   189    54    57    1
   190   177   180    1
   191   177   178    1
   192   217   218    1
   193   184   182   am
   194   180   181    1
   195   181   182    1
   196   219   218    2
   197    57    58    1
   198   195   196    1
   199   178   179    2
   200   182   183    2
   201   218   220   am
   202    58    59    1
   203    59    60    1
   204   196   197    2
   205    62    61    1
   206   220   221    1
   207    60    61    2
   208    61    63    1
   209   228   226   ar
   210   228   230   ar
   211   226   225   ar
   212   221   222    1
   213   221   224    1
   214   222   223    2
   215   231   230    1
   216   230   229   ar
   217   198   199    1
   218   225   224    1
   219   225   227   ar
   220   229   227   ar
   221   199   202    1
   222   199   200    1
   223   203   202    1
   224   203   204    1
   225   206   204   ar
   226   200   201    2
   227   204   205   ar
