@<TRIPOS>MOLECULE
tmp/5mf6A01.pdb
 129 129 0 0 0
SMALL
GASTEIGER

@<TRIPOS>ATOM
      1  N        122.0910   20.3790  -23.4920 N.3    55  PHE55      -0.1241
      2  CA       122.8340   21.3770  -22.7530 C.3    55  PHE55       0.1605
      3  C        124.3450   21.2710  -23.0310 C.2    55  PHE55       0.2264
      4  O        124.9890   22.2860  -23.2040 O.2    55  PHE55      -0.2867
      5  CB       122.5600   21.3660  -21.2990 C.3    55  PHE55       0.0534
      6  CG       121.1170   21.7910  -20.9880 C.ar   55  PHE55      -0.0203
      7  CD1      120.7860   23.1690  -20.9240 C.ar   55  PHE55      -0.0042
      8  CD2      120.1160   20.8290  -20.8640 C.ar   55  PHE55      -0.0042
      9  CE1      119.4810   23.5730  -20.6790 C.ar   55  PHE55      -0.0003
     10  CE2      118.7810   21.2510  -20.6230 C.ar   55  PHE55      -0.0003
     11  CZ       118.4840   22.6200  -20.5940 C.ar   55  PHE55      -0.0000
     12  N        124.7690   25.1070  -23.4320 N.3    62  TRP62      -0.1241
     13  CA       125.9530   25.5820  -22.7600 C.3    62  TRP62       0.1605
     14  C        127.2130   25.4360  -23.6190 C.2    62  TRP62       0.2264
     15  O        128.0750   26.3790  -23.6860 O.2    62  TRP62      -0.2867
     16  CB       126.1120   24.9630  -21.3690 C.3    62  TRP62       0.0550
     17  CG       124.9490   24.9500  -20.4200 C.ar   62  TRP62       0.0003
     18  CD1      124.7050   23.9540  -19.5320 C.ar   62  TRP62       0.0946
     19  CD2      123.9520   25.9400  -20.1960 C.ar   62  TRP62       0.0152
     20  NE1      123.6060   24.2260  -18.7830 N.ar   62  TRP62      -0.2442
     21  CE2      123.1090   25.4430  -19.1660 C.ar   62  TRP62       0.0810
     22  CE3      123.6560   27.1970  -20.7890 C.ar   62  TRP62       0.0012
     23  CZ2      122.0190   26.1430  -18.6870 C.ar   62  TRP62       0.0191
     24  CZ3      122.5450   27.8980  -20.3470 C.ar   62  TRP62       0.0001
     25  CH2      121.6960   27.3580  -19.3430 C.ar   62  TRP62       0.0015
     26  N        113.3720   19.1760  -12.4420 N.3   124  HIS124     -0.1241
     27  CA       113.8200   20.5570  -12.7540 C.3   124  HIS124      0.1621
     28  C        112.6410   21.4170  -13.1550 C.2   124  HIS124      0.2264
     29  O        112.8230   22.6020  -13.4330 O.2   124  HIS124     -0.2867
     30  CB       114.9070   20.5040  -13.7980 C.3   124  HIS124      0.0745
     31  CG       116.1410   19.8080  -13.2990 C.ar  124  HIS124      0.0817
     32  ND1      117.1750   19.4300  -14.1260 N.ar  124  HIS124     -0.2268
     33  CD2      116.4530   19.3610  -12.0690 C.ar  124  HIS124      0.1154
     34  CE1      118.0840   18.7910  -13.4220 C.ar  124  HIS124      0.1986
     35  NE2      117.6870   18.7460  -12.1670 N.ar  124  HIS124     -0.2212
     36  N        110.3140   31.8770  -15.8820 N.3   148  MET148     -0.1245
     37  CA       111.1320   30.8540  -15.2150 C.3   148  MET148      0.1570
     38  C        111.6490   31.3830  -13.8940 C.2   148  MET148      0.2261
     39  O        111.6350   32.5790  -13.6990 O.2   148  MET148     -0.2867
     40  CB       112.2020   30.3800  -16.1710 C.3   148  MET148      0.0387
     41  CG       113.2190   31.4290  -16.5880 C.3   148  MET148      0.0595
     42  SD       114.7670   30.6530  -17.1270 S.3   148  MET148     -0.1393
     43  CE       115.4920   30.1660  -15.5300 C.3   148  MET148      0.0692
     44  N        109.7760   26.1600  -13.1700 N.3   169  ILE169     -0.1231
     45  CA       111.1550   26.0660  -13.6810 C.3   169  ILE169      0.1692
     46  C        112.1190   26.5750  -12.6230 C.2   169  ILE169      0.2592
     47  O        112.1630   27.7850  -12.3540 O.2   169  ILE169     -0.2718
     48  CB       111.3690   26.8020  -14.9890 C.3   169  ILE169      0.0266
     49  CG1      110.3400   26.3400  -16.0310 C.3   169  ILE169      0.0019
     50  CG2      112.7850   26.5960  -15.5360 C.3   169  ILE169      0.0020
     51  CD1      110.5920   24.9130  -16.5200 C.3   169  ILE169      0.0001
     52  N        112.8800   25.6360  -12.0540 N.am  170  LEU170     -0.1966
     53  CA       113.8990   25.9230  -11.0750 C.3   170  LEU170      0.1728
     54  C        115.0210   26.7710  -11.7240 C.2   170  LEU170      0.2616
     55  O        115.4640   26.5280  -12.8860 O.2   170  LEU170     -0.2715
     56  CB       114.5720   24.6690  -10.5370 C.3   170  LEU170      0.0311
     57  CG       113.6790   23.6350   -9.8780 C.3   170  LEU170      0.0022
     58  CD1      114.5940   22.5350   -9.4370 C.3   170  LEU170      0.0001
     59  CD2      112.8770   24.1550   -8.6880 C.3   170  LEU170      0.0001
     60  N        115.4750   27.7570  -10.9540 N.am  171  ASP171     -0.1957
     61  CA       116.7060   28.5240  -11.3130 C.3   171  ASP171      0.1840
     62  C        117.8610   27.8150  -10.6090 C.2   171  ASP171      0.2622
     63  O        117.6500   26.9400   -9.7750 O.2   171  ASP171     -0.2715
     64  CB       116.5400   29.9860  -10.8320 C.3   171  ASP171      0.1450
     65  CG       117.3740   30.9770  -11.6480 C.2   171  ASP171      0.3671
     66  OD1      118.1500   30.5920  -12.5780 O.co2 171  ASP171     -0.2456
     67  OD2      117.2620   32.1660  -11.3240 O.co2 171  ASP171     -0.2456
     68  N        119.0950   28.2170  -10.9110 N.am  172  TRP172     -0.1974
     69  CA       120.2800   27.6650  -10.2310 C.3   172  TRP172      0.1640
     70  C        120.2020   27.5410   -8.6860 C.2   172  TRP172      0.2290
     71  O        120.5240   26.4860   -8.1720 O.2   172  TRP172     -0.2864
     72  CB       121.5360   28.4730  -10.6430 C.3   172  TRP172      0.0576
     73  CG       121.8650   28.2400  -12.0800 C.ar  172  TRP172      0.0006
     74  CD1      121.6220   29.0890  -13.1240 C.ar  172  TRP172      0.0946
     75  CD2      122.4540   27.0550  -12.6530 C.ar  172  TRP172      0.0152
     76  NE1      122.0400   28.5160  -14.3130 N.ar  172  TRP172     -0.2442
     77  CE2      122.5400   27.2650  -14.0540 C.ar  172  TRP172      0.0810
     78  CE3      122.9100   25.8320  -12.1190 C.ar  172  TRP172      0.0012
     79  CZ2      123.0550   26.2920  -14.9400 C.ar  172  TRP172      0.0191
     80  CZ3      123.4510   24.8730  -13.0000 C.ar  172  TRP172      0.0001
     81  CH2      123.5100   25.1090  -14.3900 C.ar  172  TRP172      0.0015
     82  N        117.5360   27.4050   -6.7390 N.3   174  ASP174     -0.1225
     83  CA       116.2820   26.7990   -6.2380 C.3   174  ASP174      0.1805
     84  C        116.4720   25.3580   -5.9030 C.2   174  ASP174      0.2598
     85  O        117.0300   24.6090   -6.7130 O.2   174  ASP174     -0.2718
     86  CB       115.1880   26.9460   -7.2930 C.3   174  ASP174      0.1424
     87  CG       114.7320   28.3520   -7.4530 C.2   174  ASP174      0.3668
     88  OD1      114.4950   28.9680   -6.4260 O.co2 174  ASP174     -0.2456
     89  OD2      114.6660   28.8830   -8.5780 O.co2 174  ASP174     -0.2456
     90  N        115.9990   24.9270   -4.7460 N.am  175  SER175     -0.1938
     91  CA       116.1060   23.5110   -4.4080 C.3   175  SER175      0.2055
     92  C        115.0120   22.7820   -5.1710 C.2   175  SER175      0.2642
     93  O        114.0670   23.3900   -5.7000 O.2   175  SER175     -0.2714
     94  CB       116.0930   23.2160   -2.9030 C.3   175  SER175      0.2130
     95  OG       115.1790   24.0490   -2.2300 O.3   175  SER175     -0.2179
     96  N        115.2450   21.4900   -5.2990 N.am  176  LEU176     -0.1977
     97  CA       114.4130   20.6110   -6.0870 C.3   176  LEU176      0.1596
     98  C        113.0620   20.4430   -5.3850 C.2   176  LEU176      0.2287
     99  O        112.9970   20.6070   -4.1530 O.2   176  LEU176     -0.2864
    100  CB       115.1260   19.2630   -6.2380 C.3   176  LEU176      0.0297
    101  CG       115.9350   19.0900   -7.5280 C.3   176  LEU176      0.0022
    102  CD1      116.9920   20.1730   -7.7500 C.3   176  LEU176      0.0001
    103  CD2      116.5610   17.7190   -7.4790 C.3   176  LEU176      0.0001
    104  N        124.5620   16.9920  -12.7770 N.3   203  ILE203     -0.1231
    105  CA       123.8310   17.8280  -11.8150 C.3   203  ILE203      0.1692
    106  C        123.5210   16.9930  -10.6350 C.2   203  ILE203      0.2592
    107  O        123.1660   15.8360  -10.7640 O.2   203  ILE203     -0.2718
    108  CB       122.4820   18.3380  -12.3960 C.3   203  ILE203      0.0266
    109  CG1      122.7650   19.3590  -13.4770 C.3   203  ILE203      0.0019
    110  CG2      121.5600   18.9280  -11.3090 C.3   203  ILE203      0.0020
    111  CD1      123.3890   20.6490  -12.9820 C.3   203  ILE203      0.0001
    112  N        123.7480   17.5280   -9.4610 N.am  204  ARG204     -0.1966
    113  CA       123.3510   16.8550   -8.2770 C.3   204  ARG204      0.1714
    114  C        122.1910   17.5940   -7.6380 C.2   204  ARG204      0.2458
    115  O        122.0420   18.8240   -7.8030 O.2   204  ARG204     -0.2730
    116  CB       124.5260   16.6290   -7.3360 C.3   204  ARG204      0.0347
    117  CG       124.9460   17.7260   -6.3910 C.3   204  ARG204      0.0492
    118  CD       126.2000   17.2060   -5.6590 C.3   204  ARG204      0.2205
    119  NE       126.1720   17.4970   -4.2290 N.pl3 204  ARG204     -0.0865
    120  CZ       126.8280   16.8210   -3.2860 C.cat 204  ARG204      0.5346
    121  NH1      127.5850   15.7680   -3.5810 N.pl3 204  ARG204      0.1354
    122  NH2      126.7110   17.2040   -2.0130 N.pl3 204  ARG204      0.1354
    123  N        121.3320   16.8750   -6.9400 N.am  205  PRO205     -0.2727
    124  CA       121.3990   15.4350   -6.7290 C.3   205  PRO205      0.1402
    125  C        120.8560   14.6130   -7.8960 C.2   205  PRO205      0.2269
    126  O        121.0870   13.4270   -7.9040 O.2   205  PRO205     -0.2865
    127  CB       120.4400   15.2250   -5.5660 C.3   205  PRO205      0.0296
    128  CG       119.4290   16.2490   -5.7920 C.3   205  PRO205      0.0237
    129  CD       120.1670   17.4680   -6.2740 C.3   205  PRO205      0.0939
@<TRIPOS>BOND
     1    15    14    2
     2    14    13    1
     3     1     2    1
     4    12    13    1
     5     4     3    2
     6     3     2    1
     7    13    16    1
     8     2     5    1
     9    16    17    1
    10     5     6    1
    11     6     7   ar
    12     6     8   ar
    13     7     9   ar
    14     8    10   ar
    15    22    24   ar
    16    22    19   ar
    17     9    11   ar
    18    10    11   ar
    19    17    19   ar
    20    17    18   ar
    21    24    25   ar
    22    19    21   ar
    23    18    20   ar
    24    25    23   ar
    25    21    20   ar
    26    21    23   ar
    27    42    41    1
    28    42    43    1
    29    41    40    1
    30    51    49    1
    31    40    37    1
    32    49    48    1
    33    36    37    1
    34    50    48    1
    35    37    38    1
    36    48    45    1
    37    79    81   ar
    38    79    77   ar
    39    81    80   ar
    40    76    77   ar
    41    76    74   ar
    42    32    34   ar
    43    32    31   ar
    44    77    75   ar
    45    38    39    2
    46    30    31    1
    47    30    27    1
    48    45    44    1
    49    45    46    1
    50   109   111    1
    51   109   108    1
    52    29    28    2
    53    34    35   ar
    54    31    33   ar
    55    28    27    1
    56    74    73   ar
    57    80    78   ar
    58    55    54    2
    59   104   105    1
    60    27    26    1
    61    75    78   ar
    62    75    73   ar
    63    46    47    2
    64    46    52   am
    65    66    65   ar
    66   108   105    1
    67   108   110    1
    68    35    33   ar
    69    73    72    1
    70    52    53    1
    71   105   106    1
    72    54    53    1
    73    54    60   am
    74    65    67   ar
    75    65    64    1
    76    61    60    1
    77    61    64    1
    78    61    62    1
    79    53    56    1
    80    68    62   am
    81    68    69    1
    82   107   106    2
    83    72    69    1
    84   106   112   am
    85    62    63    2
    86    56    57    1
    87    69    70    1
    88    57    58    1
    89    57    59    1
    90   112   113    1
    91    70    71    2
    92    89    87   ar
    93   113   114    1
    94   113   116    1
    95   126   125    2
    96   125   124    1
    97   115   114    2
    98   102   101    1
    99   114   123   am
   100   101   103    1
   101   101   100    1
   102    87    86    1
   103    87    88   ar
   104   116   117    1
   105    86    83    1
   106   123   124    1
   107   123   129    1
   108    82    83    1
   109   124   127    1
   110    85    84    2
   111   117   118    1
   112   129   128    1
   113    83    84    1
   114   100    97    1
   115    97    98    1
   116    97    96    1
   117    84    90   am
   118   128   127    1
   119    93    92    2
   120   118   119    1
   121    98    99    2
   122    96    92   am
   123    92    91    1
   124    90    91    1
   125    91    94    1
   126   119   120    2
   127   121   120    1
   128   120   122    1
   129    94    95    1
