@<TRIPOS>MOLECULE
tmp/5mf6A02.pdb
 121 117 0 0 0
SMALL
GASTEIGER

@<TRIPOS>ATOM
      1  N        118.3520   15.4690  -21.4280 N.3    44  ALA44      -0.1245
      2  CA       118.0380   16.2940  -22.5700 C.3    44  ALA44       0.1562
      3  C        118.2690   15.6130  -23.8450 C.2    44  ALA44       0.2260
      4  O        117.7140   15.8810  -24.9410 O.2    44  ALA44      -0.2867
      5  CB       118.7960   17.6280  -22.4260 C.3    44  ALA44       0.0290
      6  N        114.9490   19.6130  -30.1850 N.3    52  ILE52      -0.1231
      7  CA       115.3030   20.3370  -29.0320 C.3    52  ILE52       0.1678
      8  C        116.7120   20.1160  -28.6680 C.2    52  ILE52       0.2434
      9  O        117.0660   19.0090  -28.4110 O.2    52  ILE52      -0.2733
     10  CB       114.4550   19.9650  -27.8790 C.3    52  ILE52       0.0265
     11  CG1      112.9660   20.1210  -28.3070 C.3    52  ILE52       0.0019
     12  CG2      114.8320   20.7940  -26.6840 C.3    52  ILE52       0.0020
     13  CD1      112.0790   19.8000  -27.1720 C.3    52  ILE52       0.0001
     14  N        117.5530   21.2030  -28.7200 N.am   53  PRO53      -0.2729
     15  CA       118.9490   20.8820  -28.3620 C.3    53  PRO53       0.1401
     16  C        119.1690   20.4720  -26.9060 C.2    53  PRO53       0.2269
     17  O        118.3830   20.8010  -25.9630 O.2    53  PRO53      -0.2865
     18  CB       119.6610   22.1960  -28.6030 C.3    53  PRO53       0.0296
     19  CG       118.5840   23.2740  -28.2280 C.3    53  PRO53       0.0237
     20  CD       117.2300   22.6240  -28.6540 C.3    53  PRO53       0.0939
     21  N        122.0910   20.3790  -23.4920 N.3    55  PHE55      -0.1241
     22  CA       122.8340   21.3770  -22.7530 C.3    55  PHE55       0.1605
     23  C        124.3450   21.2710  -23.0310 C.2    55  PHE55       0.2264
     24  O        124.9890   22.2860  -23.2040 O.2    55  PHE55      -0.2867
     25  CB       122.5600   21.3660  -21.2990 C.3    55  PHE55       0.0534
     26  CG       121.1170   21.7910  -20.9880 C.ar   55  PHE55      -0.0203
     27  CD1      120.7860   23.1690  -20.9240 C.ar   55  PHE55      -0.0042
     28  CD2      120.1160   20.8290  -20.8640 C.ar   55  PHE55      -0.0042
     29  CE1      119.4810   23.5730  -20.6790 C.ar   55  PHE55      -0.0003
     30  CE2      118.7810   21.2510  -20.6230 C.ar   55  PHE55      -0.0003
     31  CZ       118.4840   22.6200  -20.5940 C.ar   55  PHE55      -0.0000
     32  N        123.1880   23.7700  -25.6480 N.3    61  VAL61      -0.1231
     33  CA       123.0170   25.1630  -25.1240 C.3    61  VAL61       0.1692
     34  C        124.3090   25.7380  -24.4850 C.2    61  VAL61       0.2592
     35  O        124.8750   26.7730  -24.9460 O.2    61  VAL61      -0.2718
     36  CB       121.8210   25.1930  -24.1400 C.3    61  VAL61       0.0266
     37  CG1      121.6970   26.5950  -23.5220 C.3    61  VAL61       0.0020
     38  CG2      120.5660   24.8400  -24.9500 C.3    61  VAL61       0.0020
     39  N        124.7690   25.1070  -23.4320 N.am   62  TRP62      -0.1976
     40  CA       125.9530   25.5820  -22.7600 C.3    62  TRP62       0.1640
     41  C        127.2130   25.4360  -23.6190 C.2    62  TRP62       0.2290
     42  O        128.0750   26.3790  -23.6860 O.2    62  TRP62      -0.2864
     43  CB       126.1120   24.9630  -21.3690 C.3    62  TRP62       0.0576
     44  CG       124.9490   24.9500  -20.4200 C.ar   62  TRP62       0.0006
     45  CD1      124.7050   23.9540  -19.5320 C.ar   62  TRP62       0.0946
     46  CD2      123.9520   25.9400  -20.1960 C.ar   62  TRP62       0.0152
     47  NE1      123.6060   24.2260  -18.7830 N.ar   62  TRP62      -0.2442
     48  CE2      123.1090   25.4430  -19.1660 C.ar   62  TRP62       0.0810
     49  CE3      123.6560   27.1970  -20.7890 C.ar   62  TRP62       0.0012
     50  CZ2      122.0190   26.1430  -18.6870 C.ar   62  TRP62       0.0191
     51  CZ3      122.5450   27.8980  -20.3470 C.ar   62  TRP62       0.0001
     52  CH2      121.6960   27.3580  -19.3430 C.ar   62  TRP62       0.0015
     53  N        117.0680   25.4940  -32.3080 N.3    73  PHE73      -0.1241
     54  CA       115.7890   24.6770  -32.1950 C.3    73  PHE73       0.1605
     55  C        115.2520   24.3720  -33.5380 C.2    73  PHE73       0.2264
     56  O        115.2010   25.2790  -34.3720 O.2    73  PHE73      -0.2867
     57  CB       114.7630   25.4830  -31.4390 C.3    73  PHE73       0.0534
     58  CG       115.0620   25.5760  -29.9990 C.ar   73  PHE73      -0.0203
     59  CD1      116.0670   26.4340  -29.5640 C.ar   73  PHE73      -0.0042
     60  CD2      114.4000   24.7980  -29.0810 C.ar   73  PHE73      -0.0042
     61  CE1      116.3690   26.5370  -28.2360 C.ar   73  PHE73      -0.0003
     62  CE2      114.7640   24.8510  -27.7390 C.ar   73  PHE73      -0.0003
     63  CZ       115.7620   25.7200  -27.3340 C.ar   73  PHE73      -0.0000
     64  N        108.4780   24.4090  -28.4120 N.3    77  PHE77      -0.1241
     65  CA       108.1720   23.4480  -27.4000 C.3    77  PHE77       0.1605
     66  C        106.7550   22.9490  -27.6510 C.2    77  PHE77       0.2264
     67  O        106.4570   21.7610  -27.4710 O.2    77  PHE77      -0.2867
     68  CB       108.3380   24.0340  -26.0080 C.3    77  PHE77       0.0534
     69  CG       109.7730   24.1570  -25.5700 C.ar   77  PHE77      -0.0203
     70  CD1      110.5490   22.9740  -25.3800 C.ar   77  PHE77      -0.0042
     71  CD2      110.4050   25.3910  -25.4990 C.ar   77  PHE77      -0.0042
     72  CE1      111.8590   23.0520  -24.9350 C.ar   77  PHE77      -0.0003
     73  CE2      111.7120   25.4720  -25.0940 C.ar   77  PHE77      -0.0003
     74  CZ       112.4500   24.2960  -24.8540 C.ar   77  PHE77      -0.0000
     75  N        114.2420   16.8200  -17.6280 N.3   105  ASN105     -0.1225
     76  CA       113.8360   17.6450  -18.6620 C.3   105  ASN105      0.1785
     77  C        112.6690   18.5450  -18.2500 C.2   105  ASN105      0.2597
     78  O        111.6730   18.1040  -17.5510 O.2   105  ASN105     -0.2718
     79  CB       113.4440   16.8790  -19.8840 C.3   105  ASN105      0.1169
     80  CG       114.5680   16.0110  -20.3640 C.2   105  ASN105      0.2627
     81  OD1      115.7240   16.2520  -19.9660 O.2   105  ASN105     -0.2716
     82  ND2      114.2490   14.9880  -21.1240 N.am  105  ASN105     -0.0877
     83  N        112.7480   19.7820  -18.7420 N.am  106  VAL106     -0.1966
     84  CA       111.6020   20.7360  -18.5620 C.3   106  VAL106      0.1727
     85  C        110.7330   20.8920  -19.7830 C.2   106  VAL106      0.2616
     86  O        109.8160   21.7080  -19.8030 O.2   106  VAL106     -0.2715
     87  CB       112.1230   22.1570  -18.1560 C.3   106  VAL106      0.0290
     88  CG1      112.7210   22.1260  -16.7800 C.3   106  VAL106      0.0023
     89  CG2      112.9680   22.7300  -19.2100 C.3   106  VAL106      0.0023
     90  N        111.0770   20.2230  -20.8680 N.am  107  ASP107     -0.1971
     91  CA       110.4410   20.2340  -22.1230 C.3   107  ASP107      0.1709
     92  C        108.9480   19.7510  -22.1230 C.2   107  ASP107      0.2293
     93  O        108.3200   20.0220  -23.0980 O.2   107  ASP107     -0.2864
     94  CB       111.2380   19.5420  -23.2650 C.3   107  ASP107      0.1436
     95  CG       111.4840   17.9950  -23.0510 C.2   107  ASP107      0.3671
     96  OD1      110.5790   17.2950  -22.5410 O.co2 107  ASP107     -0.2456
     97  OD2      112.6150   17.4790  -23.2800 O.co2 107  ASP107     -0.2456
     98  N        107.8900   23.1750  -18.3630 N.3   127  MET127     -0.1245
     99  CA       107.6020   24.5150  -18.8300 C.3   127  MET127      0.1570
    100  C        106.1410   24.7500  -19.1410 C.2   127  MET127      0.2261
    101  O        105.7870   25.8530  -19.4000 O.2   127  MET127     -0.2867
    102  CB       108.4970   24.9740  -19.9660 C.3   127  MET127      0.0387
    103  CG       108.7980   24.4600  -21.3610 C.3   127  MET127      0.0595
    104  SD       110.5950   24.9450  -21.5510 S.3   127  MET127     -0.1393
    105  CE       110.7450   26.4740  -20.6250 C.3   127  MET127      0.0692
    106  N        110.3140   31.8770  -15.8820 N.3   148  MET148     -0.1245
    107  CA       111.1320   30.8540  -15.2150 C.3   148  MET148      0.1570
    108  C        111.6490   31.3830  -13.8940 C.2   148  MET148      0.2261
    109  O        111.6350   32.5790  -13.6990 O.2   148  MET148     -0.2867
    110  CB       112.2020   30.3800  -16.1710 C.3   148  MET148      0.0387
    111  CG       113.2190   31.4290  -16.5880 C.3   148  MET148      0.0595
    112  SD       114.7670   30.6530  -17.1270 S.3   148  MET148     -0.1393
    113  CE       115.4920   30.1660  -15.5300 C.3   148  MET148      0.0692
    114  N        109.7760   26.1600  -13.1700 N.3   169  ILE169     -0.1245
    115  CA       111.1550   26.0660  -13.6810 C.3   169  ILE169      0.1561
    116  C        112.1190   26.5750  -12.6230 C.2   169  ILE169      0.2260
    117  O        112.1630   27.7850  -12.3540 O.2   169  ILE169     -0.2867
    118  CB       111.3690   26.8020  -14.9890 C.3   169  ILE169      0.0252
    119  CG1      110.3400   26.3400  -16.0310 C.3   169  ILE169      0.0019
    120  CG2      112.7850   26.5960  -15.5360 C.3   169  ILE169      0.0019
    121  CD1      110.5920   24.9130  -16.5200 C.3   169  ILE169      0.0001
@<TRIPOS>BOND
     1    56    55    2
     2    55    54    1
     3    53    54    1
     4    54    57    1
     5    57    58    1
     6     6     7    1
     7    58    59   ar
     8    58    60   ar
     9    59    61   ar
    10    60    62   ar
    11     7     8    1
    12     7    10    1
    13    14     8   am
    14    14    20    1
    15    14    15    1
    16     8     9    2
    17    20    19    1
    18    18    15    1
    19    18    19    1
    20    64    65    1
    21    15    16    1
    22    11    10    1
    23    11    13    1
    24    61    63   ar
    25    10    12    1
    26    62    63   ar
    27    66    67    2
    28    66    65    1
    29    65    68    1
    30    16    17    2
    31    68    69    1
    32    32    33    1
    33    69    71   ar
    34    69    70   ar
    35    71    73   ar
    36    70    72   ar
    37    33    34    1
    38    33    36    1
    39    73    74   ar
    40    38    36    1
    41    35    34    2
    42     4     3    2
    43    72    74   ar
    44    34    39   am
    45    36    37    1
    46     3     2    1
    47    42    41    2
    48    41    40    1
    49    21    22    1
    50    39    40    1
    51    97    95   ar
    52    94    95    1
    53    94    91    1
    54    24    23    2
    55    93    92    2
    56    95    96   ar
    57    23    22    1
    58    40    43    1
    59    22    25    1
    60     2     5    1
    61     2     1    1
    62    92    91    1
    63    91    90    1
    64   104   103    1
    65   104   105    1
    66    43    44    1
    67   103   102    1
    68    25    26    1
    69    82    80   am
    70    26    27   ar
    71    26    28   ar
    72    27    29   ar
    73    90    85   am
    74    28    30   ar
    75    49    51   ar
    76    49    46   ar
    77    29    31   ar
    78    30    31   ar
    79    44    46   ar
    80    44    45   ar
    81    80    81    2
    82    80    79    1
    83    51    52   ar
    84    46    48   ar
    85   102    99    1
    86    79    76    1
    87    86    85    2
    88    85    84    1
    89    45    47   ar
    90   101   100    2
    91    52    50   ar
    92    89    87    1
    93    48    47   ar
    94    48    50   ar
    95   100    99    1
    96    99    98    1
    97    83    84    1
    98    83    77   am
    99    76    77    1
   100    76    75    1
   101    84    87    1
   102    77    78    2
   103    87    88    1
   104   112   111    1
   105   112   113    1
   106   111   110    1
   107   121   119    1
   108   110   107    1
   109   119   118    1
   110   106   107    1
   111   120   118    1
   112   107   108    1
   113   118   115    1
   114   108   109    2
   115   115   114    1
   116   115   116    1
   117   116   117    2
