@<TRIPOS>MOLECULE
tmp/5mfaA09.pdb
 89 84 0 0 0
SMALL
GASTEIGER

@<TRIPOS>ATOM
      1  N        -14.5120   10.4370    4.1370 N.3   112  GLU112     -0.1245
      2  CA       -13.4070   10.5310    5.0690 C.3   112  GLU112      0.1567
      3  C        -12.1810   10.9440    4.2740 C.2   112  GLU112      0.2260
      4  O        -12.1630   10.8270    3.0430 O.2   112  GLU112     -0.2867
      5  CB       -13.1590    9.2030    5.7930 C.3   112  GLU112      0.0388
      6  CG       -13.0280    8.0460    4.9100 C.3   112  GLU112      0.1160
      7  CD       -13.2480    6.7710    5.6760 C.2   112  GLU112      0.3649
      8  OE1      -14.3910    6.4690    6.1220 O.co2 112  GLU112     -0.2457
      9  OE2      -12.2610    6.0800    5.8390 O.co2 112  GLU112     -0.2457
     10  N         -3.8220    4.3020    7.3780 N.3   126  GLU126     -0.1245
     11  CA        -3.8130    2.9300    6.8770 C.3   126  GLU126      0.1567
     12  C         -2.6440    2.1170    7.4090 C.2   126  GLU126      0.2260
     13  O         -2.7420    0.8870    7.4740 O.2   126  GLU126     -0.2867
     14  CB        -3.8200    2.9130    5.3460 C.3   126  GLU126      0.0388
     15  CG        -5.1390    3.4530    4.8040 C.3   126  GLU126      0.1160
     16  CD        -5.3500    3.2310    3.3220 C.2   126  GLU126      0.3649
     17  OE1       -4.3620    3.0030    2.5880 O.co2 126  GLU126     -0.2457
     18  OE2       -6.5290    3.2940    2.9020 O.co2 126  GLU126     -0.2457
     19  N        -10.0970    6.0450    9.7610 N.3   157  PHE157     -0.1241
     20  CA       -10.0620    7.4830    9.5140 C.3   157  PHE157      0.1605
     21  C        -11.3730    8.0750   10.0110 C.2   157  PHE157      0.2264
     22  O        -12.4410    7.5990    9.6260 O.2   157  PHE157     -0.2867
     23  CB       -10.0230    7.7920    8.0150 C.3   157  PHE157      0.0534
     24  CG        -8.7570    7.3780    7.2910 C.ar  157  PHE157     -0.0203
     25  CD1       -8.5640    6.0640    6.8890 C.ar  157  PHE157     -0.0042
     26  CD2       -7.8040    8.3270    6.9210 C.ar  157  PHE157     -0.0042
     27  CE1       -7.4360    5.6990    6.1860 C.ar  157  PHE157     -0.0003
     28  CE2       -6.6670    7.9560    6.2180 C.ar  157  PHE157     -0.0003
     29  CZ        -6.4920    6.6550    5.8470 C.ar  157  PHE157     -0.0000
     30  N         -4.8240    5.1410   -6.4780 N.3   227  ASP227     -0.1239
     31  CA        -4.7980    4.0160   -5.5360 C.3   227  ASP227      0.1674
     32  C         -6.0700    3.1690   -5.6430 C.2   227  ASP227      0.2266
     33  O         -6.7660    2.9050   -4.6640 O.2   227  ASP227     -0.2867
     34  CB        -4.5870    4.5160   -4.1050 C.3   227  ASP227      0.1410
     35  CG        -3.3360    5.3620   -3.9680 C.2   227  ASP227      0.3668
     36  OD1       -2.3030    5.0140   -4.5850 O.co2 227  ASP227     -0.2456
     37  OD2       -3.3900    6.3850   -3.2560 O.co2 227  ASP227     -0.2456
     38  N         -8.3320    0.2390   -5.5190 N.3   229  PRO229     -0.2116
     39  CA        -8.1980   -1.0160   -4.7620 C.3   229  PRO229      0.1372
     40  C         -8.4800   -2.2480   -5.5950 C.2   229  PRO229      0.2244
     41  O         -7.9890   -3.3370   -5.2670 O.2   229  PRO229     -0.2868
     42  CB        -9.2350   -0.8580   -3.6390 C.3   229  PRO229      0.0268
     43  CG       -10.2710    0.0490   -4.2330 C.3   229  PRO229      0.0207
     44  CD        -9.5160    1.0130   -5.1100 C.3   229  PRO229      0.0892
     45  N        -13.8930   -5.6900   -3.9800 N.3   375  PHE375     -0.1241
     46  CA       -13.2040   -4.9060   -5.0060 C.3   375  PHE375      0.1605
     47  C        -12.7820   -5.7390   -6.2060 C.2   375  PHE375      0.2264
     48  O        -11.9930   -5.2810   -7.0240 O.2   375  PHE375     -0.2867
     49  CB       -12.0410   -4.0920   -4.4280 C.3   375  PHE375      0.0534
     50  CG       -12.4830   -3.1550   -3.3480 C.ar  375  PHE375     -0.0203
     51  CD1      -13.2570   -2.0520   -3.6570 C.ar  375  PHE375     -0.0042
     52  CD2      -12.1940   -3.4040   -2.0180 C.ar  375  PHE375     -0.0042
     53  CE1      -13.6940   -1.1910   -2.6760 C.ar  375  PHE375     -0.0003
     54  CE2      -12.6320   -2.5470   -1.0290 C.ar  375  PHE375     -0.0003
     55  CZ       -13.3900   -1.4420   -1.3580 C.ar  375  PHE375     -0.0000
     56  N        -11.9080   -6.7790    3.4830 N.3   416  PHE416     -0.1241
     57  CA       -10.9610   -6.0800    2.6170 C.3   416  PHE416      0.1605
     58  C         -9.5350   -6.5990    2.7740 C.2   416  PHE416      0.2264
     59  O         -8.5780   -5.8820    2.4750 O.2   416  PHE416     -0.2867
     60  CB       -11.0100   -4.5650    2.8310 C.3   416  PHE416      0.0534
     61  CG       -12.3570   -3.9230    2.5310 C.ar  416  PHE416     -0.0203
     62  CD1      -13.3520   -4.5900    1.8360 C.ar  416  PHE416     -0.0042
     63  CD2      -12.6140   -2.6230    2.9470 C.ar  416  PHE416     -0.0042
     64  CE1      -14.5570   -3.9790    1.5730 C.ar  416  PHE416     -0.0003
     65  CE2      -13.8250   -2.0180    2.6830 C.ar  416  PHE416     -0.0003
     66  CZ       -14.7910   -2.6920    1.9960 C.ar  416  PHE416     -0.0000
     67  N         -6.7550   -6.0410    0.0680 N.3   419  VAL419     -0.1231
     68  CA        -6.4320   -4.6960   -0.3900 C.3   419  VAL419      0.1692
     69  C         -5.9310   -3.7920    0.7270 C.2   419  VAL419      0.2591
     70  O         -5.6120   -2.6330    0.4620 O.2   419  VAL419     -0.2718
     71  CB        -7.6100   -4.0390   -1.1470 C.3   419  VAL419      0.0266
     72  CG1       -8.1120   -4.9470   -2.2600 C.3   419  VAL419      0.0020
     73  CG2       -8.7350   -3.6700   -0.2070 C.3   419  VAL419      0.0020
     74  N         -5.8430   -4.2900    1.9640 N.am  420  MET420     -0.1979
     75  CA        -5.3820   -3.5620    3.1470 C.3   420  MET420      0.1605
     76  C         -4.1950   -4.3320    3.7450 C.2   420  MET420      0.2287
     77  O         -3.9810   -5.5150    3.4570 O.2   420  MET420     -0.2864
     78  CB        -6.5040   -3.4900    4.2220 C.3   420  MET420      0.0413
     79  CG        -7.8630   -2.8360    3.8830 C.3   420  MET420      0.0598
     80  SD        -7.7390   -1.0830    3.5710 S.3   420  MET420     -0.1393
     81  CE        -7.3940   -0.5270    5.2300 C.3   420  MET420      0.0692
     82  N        -10.0410   -6.0910    8.1840 N.3   424  LEU424     -0.1245
     83  CA       -10.8140   -5.2400    9.0670 C.3   424  LEU424      0.1561
     84  C        -11.9530   -6.0290    9.7000 C.2   424  LEU424      0.2260
     85  O        -12.2100   -7.1870    9.3660 O.2   424  LEU424     -0.2867
     86  CB       -11.3240   -4.0060    8.3160 C.3   424  LEU424      0.0270
     87  CG       -10.3110   -3.2760    7.4360 C.3   424  LEU424      0.0019
     88  CD1      -10.9800   -2.1180    6.7080 C.3   424  LEU424      0.0001
     89  CD2       -9.1040   -2.7880    8.2250 C.3   424  LEU424      0.0001
@<TRIPOS>BOND
     1    48    47    2
     2    30    31    1
     3    47    46    1
     4    32    31    1
     5    32    33    2
     6    40    41    2
     7    40    39    1
     8    31    34    1
     9    38    44    1
    10    38    39    1
    11    44    43    1
    12    46    49    1
    13    46    45    1
    14    39    42    1
    15    36    35   ar
    16    49    50    1
    17    43    42    1
    18    34    35    1
    19    35    37   ar
    20    51    50   ar
    21    51    53   ar
    22    50    52   ar
    23    53    55   ar
    24    72    71    1
    25    52    54   ar
    26    55    54   ar
    27    71    68    1
    28    71    73    1
    29    68    67    1
    30    68    69    1
    31    70    69    2
    32    69    74   am
    33    64    62   ar
    34    64    66   ar
    35    62    61   ar
    36    74    75    1
    37    66    65   ar
    38    59    58    2
    39    61    60    1
    40    61    63   ar
    41    17    16   ar
    42    57    58    1
    43    57    60    1
    44    57    56    1
    45    65    63   ar
    46    18    16   ar
    47     4     3    2
    48    75    76    1
    49    75    78    1
    50    16    15    1
    51    77    76    2
    52    80    79    1
    53    80    81    1
    54    79    78    1
    55     1     2    1
    56     3     2    1
    57    15    14    1
    58     6     7    1
    59     6     5    1
    60     2     5    1
    61    14    11    1
    62     7     9   ar
    63     7     8   ar
    64    29    27   ar
    65    29    28   ar
    66    27    25   ar
    67    28    26   ar
    68    88    87    1
    69    11    10    1
    70    11    12    1
    71    25    24   ar
    72    26    24   ar
    73    24    23    1
    74    12    13    2
    75    87    89    1
    76    87    86    1
    77    23    20    1
    78    82    83    1
    79    86    83    1
    80    83    84    1
    81    85    84    2
    82    20    19    1
    83    20    21    1
    84    22    21    2
