@<TRIPOS>MOLECULE
tmp/5mfaA00.pdb
 88 86 0 0 0
SMALL
GASTEIGER

@<TRIPOS>ATOM
      1  N         -6.5910   -6.7900   -6.1890 N.3   233  THR233     -0.1203
      2  CA        -7.2370   -8.0690   -5.9420 C.3   233  THR233      0.1994
      3  C         -6.5360   -9.0910   -6.8270 C.2   233  THR233      0.2618
      4  O         -5.6220   -9.7770   -6.3570 O.2   233  THR233     -0.2717
      5  CB        -8.7700   -7.9670   -6.0760 C.3   233  THR233      0.1784
      6  OG1       -9.1470   -7.5810   -7.3980 O.3   233  THR233     -0.2211
      7  CG2       -9.3090   -6.9410   -5.0840 C.3   233  THR233      0.0376
      8  N         -6.8410   -9.1310   -8.1100 N.am  234  ASN234     -0.1960
      9  CA        -6.1190   -9.9960   -9.0390 C.3   234  ASN234      0.1819
     10  C         -5.0580   -9.1270   -9.6970 C.2   234  ASN234      0.2621
     11  O         -5.3490   -8.3360  -10.5980 O.2   234  ASN234     -0.2715
     12  CB        -7.0650  -10.5990  -10.0640 C.3   234  ASN234      0.1195
     13  CG        -6.3720  -11.5850  -10.9640 C.2   234  ASN234      0.2630
     14  OD1       -5.2110  -11.4040  -11.3080 O.2   234  ASN234     -0.2716
     15  ND2       -7.0740  -12.6450  -11.3420 N.am  234  ASN234     -0.0877
     16  N         -3.8220   -9.2580   -9.2340 N.am  235  ARG235     -0.1963
     17  CA        -2.8130   -8.3040   -9.6510 C.3   235  ARG235      0.1729
     18  C         -2.3100   -8.5580  -11.0500 C.2   235  ARG235      0.2617
     19  O         -1.7980   -7.6280  -11.6850 O.2   235  ARG235     -0.2715
     20  CB        -1.6840   -8.2860   -8.6480 C.3   235  ARG235      0.0348
     21  CG        -2.2310   -7.8380   -7.3420 C.3   235  ARG235      0.0492
     22  CD        -1.1630   -7.6070   -6.4010 C.3   235  ARG235      0.2205
     23  NE        -1.6620   -7.5060   -5.0550 N.pl3 235  ARG235     -0.0865
     24  CZ        -0.8760   -7.2970   -4.0160 C.cat 235  ARG235      0.5346
     25  NH1        0.4320   -7.1520   -4.2050 N.pl3 235  ARG235      0.1354
     26  NH2       -1.3960   -7.2320   -2.8050 N.pl3 235  ARG235      0.1354
     27  N         -2.4400   -9.7770  -11.5650 N.am  236  SER236     -0.1936
     28  CA        -2.0340   -9.9770  -12.9480 C.3   236  SER236      0.2055
     29  C         -3.0740   -9.4360  -13.9150 C.2   236  SER236      0.2642
     30  O         -2.7140   -8.8970  -14.9650 O.2   236  SER236     -0.2714
     31  CB        -1.7180  -11.4470  -13.2220 C.3   236  SER236      0.2130
     32  OG        -2.8890  -12.2310  -13.1900 O.3   236  SER236     -0.2179
     33  N         -4.3610   -9.5330  -13.5630 N.am  237  ALA237     -0.1977
     34  CA        -5.4000   -9.0360  -14.4530 C.3   237  ALA237      0.1597
     35  C         -5.4390   -7.5120  -14.5020 C.2   237  ALA237      0.2287
     36  O         -5.7560   -6.9470  -15.5510 O.2   237  ALA237     -0.2864
     37  CB        -6.7590   -9.5920  -14.0300 C.3   237  ALA237      0.0319
     38  N        -12.5300   -7.7150  -11.5330 N.3   378  TRP378     -0.1227
     39  CA       -12.0920   -8.6870  -12.5210 C.3   378  TRP378      0.1737
     40  C        -13.0110   -9.9000  -12.6000 C.2   378  TRP378      0.2595
     41  O        -13.0920  -10.5410  -13.6540 O.2   378  TRP378     -0.2718
     42  CB       -10.6620   -9.1400  -12.2000 C.3   378  TRP378      0.0564
     43  CG       -10.5130  -10.0230  -10.9770 C.ar  378  TRP378      0.0003
     44  CD1      -10.3720   -9.6280   -9.6760 C.ar  378  TRP378      0.0946
     45  CD2      -10.4760  -11.4520  -10.9640 C.ar  378  TRP378      0.0152
     46  NE1      -10.2510  -10.7240   -8.8600 N.ar  378  TRP378     -0.2442
     47  CE2      -10.3070  -11.8570   -9.6260 C.ar  378  TRP378      0.0810
     48  CE3      -10.5680  -12.4280  -11.9570 C.ar  378  TRP378      0.0012
     49  CZ2      -10.1970  -13.2010   -9.2600 C.ar  378  TRP378      0.0191
     50  CZ3      -10.4770  -13.7620  -11.5930 C.ar  378  TRP378      0.0001
     51  CH2      -10.3000  -14.1340  -10.2550 C.ar  378  TRP378      0.0015
     52  N        -13.6960  -10.2470  -11.5070 N.am  379  ARG379     -0.1980
     53  CA       -14.5590  -11.4220  -11.5360 C.3   379  ARG379      0.1597
     54  C        -15.7800  -11.2010  -12.4160 C.2   379  ARG379      0.2287
     55  O        -16.2650  -12.1440  -13.0480 O.2   379  ARG379     -0.2864
     56  CB       -14.9730  -11.8250  -10.1260 C.3   379  ARG379      0.0334
     57  CG       -13.8020  -12.2300   -9.2510 C.3   379  ARG379      0.0492
     58  CD       -14.2800  -12.8240   -7.9380 C.3   379  ARG379      0.2205
     59  NE       -13.1900  -13.1780   -7.0380 N.pl3 379  ARG379     -0.0865
     60  CZ       -12.5290  -14.3300   -7.0650 C.cat 379  ARG379      0.5346
     61  NH1      -12.8200  -15.2700   -7.9570 N.pl3 379  ARG379      0.1354
     62  NH2      -11.5650  -14.5320   -6.1840 N.pl3 379  ARG379      0.1354
     63  N        -14.1130  -11.2530  -16.1120 N.3   382  LEU382     -0.1231
     64  CA       -13.3900  -12.4330  -16.5660 C.3   382  LEU382      0.1693
     65  C        -13.9990  -13.7570  -16.1090 C.2   382  LEU382      0.2591
     66  O        -13.6030  -14.8050  -16.6350 O.2   382  LEU382     -0.2718
     67  CB       -11.9160  -12.3520  -16.1270 C.3   382  LEU382      0.0284
     68  CG       -11.1080  -11.1340  -16.6010 C.3   382  LEU382      0.0019
     69  CD1       -9.6880  -11.1340  -16.0280 C.3   382  LEU382      0.0001
     70  CD2      -11.0660  -11.0490  -18.1230 C.3   382  LEU382      0.0001
     71  N        -14.9610  -13.7500  -15.1830 N.am  383  GLU383     -0.1979
     72  CA       -15.5310  -14.9890  -14.6550 C.3   383  GLU383      0.1602
     73  C        -17.0400  -15.0730  -14.8950 C.2   383  GLU383      0.2287
     74  O        -17.7920  -15.6140  -14.0810 O.2   383  GLU383     -0.2864
     75  CB       -15.1810  -15.1880  -13.1800 C.3   383  GLU383      0.0415
     76  CG       -13.6940  -15.3840  -12.9050 C.3   383  GLU383      0.1163
     77  CD       -13.3900  -15.7640  -11.4600 C.2   383  GLU383      0.3649
     78  OE1      -14.0470  -15.2260  -10.5450 O.co2 383  GLU383     -0.2457
     79  OE2      -12.4850  -16.6050  -11.2440 O.co2 383  GLU383     -0.2457
     80  N         -7.6430   -8.4660    1.0480 N.3   418  GLN418     -0.1245
     81  CA        -6.7400   -8.4880   -0.1010 C.3   418  GLN418      0.1566
     82  C         -6.1690   -7.1250   -0.4400 C.2   418  GLN418      0.2260
     83  O         -5.2020   -7.0570   -1.2000 O.2   418  GLN418     -0.2867
     84  CB        -7.4390   -8.9770   -1.3660 C.3   418  GLN418      0.0367
     85  CG        -7.7800  -10.4430   -1.4010 C.3   418  GLN418      0.0905
     86  CD        -8.0400  -10.9200   -2.8230 C.2   418  GLN418      0.2608
     87  OE1       -8.9710  -10.4850   -3.4640 O.2   418  GLN418     -0.2717
     88  NE2       -7.2020  -11.8120   -3.3190 N.am  418  GLN418     -0.0878
@<TRIPOS>BOND
     1    70    68    1
     2    66    65    2
     3    68    67    1
     4    68    69    1
     5    64    67    1
     6    64    63    1
     7    64    65    1
     8    65    71   am
     9    36    35    2
    10    71    72    1
    11    30    29    2
    12    73    72    1
    13    73    74    2
    14    72    75    1
    15    35    34    1
    16    34    37    1
    17    34    33    1
    18    29    33   am
    19    29    28    1
    20    41    40    2
    21    31    32    1
    22    31    28    1
    23    75    76    1
    24    55    54    2
    25    28    27    1
    26    76    77    1
    27    40    39    1
    28    40    52   am
    29    39    42    1
    30    39    38    1
    31    54    53    1
    32    42    43    1
    33    48    50   ar
    34    48    45   ar
    35    19    18    2
    36    50    51   ar
    37    27    18   am
    38    53    52    1
    39    53    56    1
    40    77    79   ar
    41    77    78   ar
    42    15    13   am
    43    14    13    2
    44    18    17    1
    45    43    45   ar
    46    43    44   ar
    47    45    47   ar
    48    13    12    1
    49    11    10    2
    50    51    49   ar
    51    56    57    1
    52    12     9    1
    53    10    16   am
    54    10     9    1
    55    44    46   ar
    56    17    16    1
    57    17    20    1
    58    47    49   ar
    59    47    46   ar
    60    57    58    1
    61     9     8    1
    62    20    21    1
    63     8     3   am
    64    61    60    1
    65    58    59    1
    66     6     5    1
    67    21    22    1
    68    60    59    2
    69    60    62    1
    70     3     4    2
    71     3     2    1
    72    22    23    1
    73     1     2    1
    74     5     2    1
    75     5     7    1
    76    23    24    2
    77    25    24    1
    78    24    26    1
    79    87    86    2
    80    88    86   am
    81    86    85    1
    82    85    84    1
    83    84    81    1
    84    83    82    2
    85    82    81    1
    86    81    80    1
