@<TRIPOS>MOLECULE
tmp/5mfhA00.pdb
 70 66 0 0 0
SMALL
GASTEIGER

@<TRIPOS>ATOM
      1  N         -1.0220  -29.4690   36.2030 N.3   116  GLY116     -0.1210
      2  CA         0.3350  -29.5090   36.7380 C.3   116  GLY116      0.1956
      3  C          0.3510  -29.7510   38.2350 C.2   116  GLY116      0.2612
      4  O         -0.6160  -30.2820   38.7860 O.2   116  GLY116     -0.2717
      5  N          1.4440  -29.3600   38.8880 N.am  117  GLY117     -0.1942
      6  CA         1.6270  -29.5140   40.3330 C.3   117  GLY117      0.2014
      7  C          0.6700  -28.6870   41.1740 C.2   117  GLY117      0.2638
      8  O          0.0140  -27.7810   40.6540 O.2   117  GLY117     -0.2714
      9  N          0.5890  -28.9870   42.4870 N.am  118  ASN118     -0.1972
     10  CA        -0.2970  -28.3080   43.4440 C.3   118  ASN118      0.1688
     11  C         -0.1290  -26.7910   43.4830 C.2   118  ASN118      0.2292
     12  O         -1.1340  -26.0780   43.5040 O.2   118  ASN118     -0.2864
     13  CB        -0.1540  -28.9040   44.8520 C.3   118  ASN118      0.1181
     14  CG        -0.8110  -30.2510   45.0530 C.2   118  ASN118      0.2629
     15  OD1       -1.5590  -30.7470   44.2100 O.2   118  ASN118     -0.2716
     16  ND2       -0.5660  -30.8650   46.2030 N.am  118  ASN118     -0.0877
     17  N         -1.6440  -25.2530   40.3350 N.3   121  ILE121     -0.1245
     18  CA        -3.1070  -25.2910   40.4610 C.3   121  ILE121      0.1561
     19  C         -3.5340  -24.0990   41.3380 C.2   121  ILE121      0.2260
     20  O         -4.4950  -23.4050   41.0020 O.2   121  ILE121     -0.2867
     21  CB        -3.5910  -26.6510   41.0480 C.3   121  ILE121      0.0252
     22  CG1       -3.3220  -27.8120   40.0580 C.3   121  ILE121      0.0019
     23  CG2       -5.0700  -26.5890   41.4430 C.3   121  ILE121      0.0019
     24  CD1       -3.4340  -29.2200   40.6380 C.3   121  ILE121      0.0001
     25  N        -12.2310  -30.2420   37.5560 N.3   153  SER153     -0.1202
     26  CA       -11.7530  -31.5710   37.9620 C.3   153  SER153      0.2020
     27  C        -10.2410  -31.5390   38.1730 C.2   153  SER153      0.2618
     28  O         -9.7490  -32.1300   39.1340 O.2   153  SER153     -0.2717
     29  CB       -12.0950  -32.6180   36.9070 C.3   153  SER153      0.2103
     30  OG       -13.4820  -32.6580   36.6180 O.3   153  SER153     -0.2182
     31  N         -9.5120  -30.8320   37.2770 N.am  154  ASN154     -0.1974
     32  CA        -8.0630  -30.6530   37.3320 C.3   154  ASN154      0.1688
     33  C         -7.6450  -29.8370   38.5570 C.2   154  ASN154      0.2292
     34  O         -6.6140  -30.1360   39.1550 O.2   154  ASN154     -0.2864
     35  CB        -7.5400  -30.0290   36.0340 C.3   154  ASN154      0.1181
     36  CG        -7.5180  -30.9690   34.8440 C.2   154  ASN154      0.2629
     37  OD1       -7.8380  -32.1610   34.9270 O.2   154  ASN154     -0.2716
     38  ND2       -7.1240  -30.4520   33.6990 N.am  154  ASN154     -0.0877
     39  N         -8.2220  -32.0190   41.6920 N.3   157  SER157     -0.1202
     40  CA        -7.2740  -33.1250   41.8130 C.3   157  SER157      0.2020
     41  C         -6.0260  -32.7240   42.6200 C.2   157  SER157      0.2619
     42  O         -5.1560  -33.5630   42.8620 O.2   157  SER157     -0.2717
     43  CB        -6.9070  -33.6930   40.4470 C.3   157  SER157      0.2103
     44  OG        -6.2420  -32.7150   39.6720 O.3   157  SER157     -0.2182
     45  N         -5.9870  -31.4680   43.0750 N.am  158  GLY158     -0.1956
     46  CA        -4.9120  -30.9330   43.9010 C.3   158  GLY158      0.1869
     47  C         -4.9890  -31.4040   45.3440 C.2   158  GLY158      0.2309
     48  O         -5.7080  -32.3580   45.6610 O.2   158  GLY158     -0.2863
     49  N        -16.2500  -37.3000   37.8920 N.3   192  TRP192     -0.1241
     50  CA       -14.7880  -37.1760   37.9120 C.3   192  TRP192      0.1605
     51  C        -14.3770  -36.0710   38.9110 C.2   192  TRP192      0.2264
     52  O        -13.5230  -36.3170   39.7650 O.2   192  TRP192     -0.2867
     53  CB       -14.2770  -36.9020   36.4790 C.3   192  TRP192      0.0550
     54  CG       -12.8000  -36.6730   36.3000 C.ar  192  TRP192      0.0003
     55  CD1      -11.7800  -37.2600   36.9930 C.ar  192  TRP192      0.0946
     56  CD2      -12.1820  -35.8900   35.2680 C.ar  192  TRP192      0.0152
     57  NE1      -10.5670  -36.8380   36.5000 N.ar  192  TRP192     -0.2442
     58  CE2      -10.7840  -36.0020   35.4340 C.ar  192  TRP192      0.0810
     59  CE3      -12.6780  -35.0870   34.2220 C.ar  192  TRP192      0.0012
     60  CZ2       -9.8740  -35.3290   34.6060 C.ar  192  TRP192      0.0191
     61  CZ3      -11.7760  -34.4250   33.4000 C.ar  192  TRP192      0.0001
     62  CH2      -10.3930  -34.5480   33.5950 C.ar  192  TRP192      0.0015
     63  N        -12.6470  -36.4170   42.8480 N.3   196  ASN196     -0.1240
     64  CA       -11.4470  -35.6550   43.1990 C.3   196  ASN196      0.1653
     65  C        -11.6280  -34.8690   44.4990 C.2   196  ASN196      0.2266
     66  O        -10.6800  -34.7720   45.2800 O.2   196  ASN196     -0.2867
     67  CB       -11.0180  -34.7460   42.0460 C.3   196  ASN196      0.1155
     68  CG       -10.4220  -35.4750   40.8620 C.2   196  ASN196      0.2627
     69  OD1      -10.0050  -36.6330   40.9460 O.2   196  ASN196     -0.2716
     70  ND2      -10.3520  -34.8020   39.7280 N.am  196  ASN196     -0.0877
@<TRIPOS>BOND
     1    61    62   ar
     2    61    59   ar
     3    62    60   ar
     4    38    36   am
     5    59    56   ar
     6    60    58   ar
     7    36    37    2
     8    36    35    1
     9    56    58   ar
    10    56    54   ar
    11    58    57   ar
    12    35    32    1
    13     1     2    1
    14    54    53    1
    15    54    55   ar
    16    53    50    1
    17    57    55   ar
    18    30    29    1
    19     2     3    1
    20    29    26    1
    21    31    32    1
    22    31    27   am
    23    32    33    1
    24    25    26    1
    25    49    50    1
    26    50    51    1
    27    26    27    1
    28    27    28    2
    29     3     4    2
    30     3     5   am
    31    33    34    2
    32     5     6    1
    33    51    52    2
    34    44    43    1
    35    70    68   am
    36    22    24    1
    37    22    21    1
    38     6     7    1
    39    17    18    1
    40    43    40    1
    41    18    21    1
    42    18    19    1
    43     8     7    2
    44    68    69    2
    45    68    67    1
    46    20    19    2
    47    21    23    1
    48     7     9   am
    49    39    40    1
    50    40    41    1
    51    67    64    1
    52     9    10    1
    53    41    42    2
    54    41    45   am
    55    63    64    1
    56    45    46    1
    57    64    65    1
    58    10    11    1
    59    10    13    1
    60    11    12    2
    61    46    47    1
    62    15    14    2
    63    65    66    2
    64    13    14    1
    65    14    16   am
    66    47    48    2
