@<TRIPOS>MOLECULE
tmp/5mflC00.pdb
 82 78 0 0 0
SMALL
GASTEIGER

@<TRIPOS>ATOM
      1  N         -4.7790   24.4310    2.9260 N.3   108  SER108     -0.1203
      2  CA        -4.2480   24.1610    4.2680 C.3   108  SER108      0.2005
      3  C         -2.7410   24.4130    4.4650 C.2   108  SER108      0.2460
      4  O         -1.9160   23.8460    3.7370 O.2   108  SER108     -0.2732
      5  CB        -4.5870   22.7390    4.7100 C.3   108  SER108      0.2103
      6  OG        -3.9520   22.3780    5.9260 O.3   108  SER108     -0.2182
      7  N         -2.3720   25.1860    5.5180 N.am  109  PRO109     -0.2728
      8  CA        -0.9410   25.3700    5.8250 C.3   109  PRO109      0.1401
      9  C         -0.3520   24.1440    6.5480 C.2   109  PRO109      0.2269
     10  O          0.8700   24.0320    6.6790 O.2   109  PRO109     -0.2865
     11  CB        -0.9270   26.6210    6.7030 C.3   109  PRO109      0.0296
     12  CG        -2.2680   26.6610    7.3480 C.3   109  PRO109      0.0237
     13  CD        -3.2340   25.8840    6.5010 C.3   109  PRO109      0.0939
     14  N          0.8070   20.5230    6.6190 N.3   111  GLU111     -0.1245
     15  CA         1.3380   19.5640    5.6480 C.3   111  GLU111      0.1567
     16  C          0.7530   18.1520    5.7910 C.2   111  GLU111      0.2260
     17  O          0.5950   17.4860    4.7650 O.2   111  GLU111     -0.2867
     18  CB         2.8710   19.5360    5.6600 C.3   111  GLU111      0.0388
     19  CG         3.5060   20.7400    4.9780 C.3   111  GLU111      0.1160
     20  CD         3.7350   21.9810    5.8220 C.2   111  GLU111      0.3649
     21  OE1        3.1320   22.0960    6.9130 O.co2 111  GLU111     -0.2457
     22  OE2        4.5220   22.8500    5.3820 O.co2 111  GLU111     -0.2457
     23  N         -2.7610   18.6650    4.0320 N.3   114  LEU114     -0.1245
     24  CA        -2.5350   18.9170    2.6020 C.3   114  LEU114      0.1561
     25  C         -2.1250   17.6410    1.8530 C.2   114  LEU114      0.2260
     26  O         -2.7040   17.3400    0.8110 O.2   114  LEU114     -0.2867
     27  CB        -1.4950   20.0420    2.4240 C.3   114  LEU114      0.0270
     28  CG        -1.0260   20.4100    1.0130 C.3   114  LEU114      0.0019
     29  CD1       -2.1810   20.8710    0.1390 C.3   114  LEU114      0.0001
     30  CD2        0.0350   21.4930    1.0720 C.3   114  LEU114      0.0001
     31  N         -0.7850   25.2940   -8.9700 N.3   146  GLN146     -0.1231
     32  CA        -0.0580   26.1910   -8.0620 C.3   146  GLN146      0.1698
     33  C          0.9350   25.4010   -7.1800 C.2   146  GLN146      0.2592
     34  O          2.0470   25.8730   -6.9380 O.2   146  GLN146     -0.2718
     35  CB        -1.0330   27.0020   -7.2040 C.3   146  GLN146      0.0381
     36  CG        -0.3860   28.1930   -6.5140 C.3   146  GLN146      0.0905
     37  CD        -1.2460   28.7340   -5.4070 C.2   146  GLN146      0.2608
     38  OE1       -1.5710   28.0400   -4.4380 O.2   146  GLN146     -0.2717
     39  NE2       -1.6000   30.0030   -5.5130 N.am  146  GLN146     -0.0878
     40  N          0.5440   24.1780   -6.7620 N.am  147  LEU147     -0.1980
     41  CA         1.3620   23.2630   -5.9610 C.3   147  LEU147      0.1596
     42  C          2.5710   22.7000   -6.7480 C.2   147  LEU147      0.2287
     43  O          3.5030   22.1630   -6.1390 O.2   147  LEU147     -0.2864
     44  CB         0.5040   22.1240   -5.3620 C.3   147  LEU147      0.0297
     45  CG        -0.5750   22.4950   -4.3170 C.3   147  LEU147      0.0022
     46  CD1       -1.3930   21.2700   -3.9160 C.3   147  LEU147      0.0001
     47  CD2        0.0270   23.1470   -3.0700 C.3   147  LEU147      0.0001
     48  N          4.7610   24.4520   -8.0190 N.3   149  SER149     -0.1202
     49  CA         5.7990   25.4400   -7.7530 C.3   149  SER149      0.2020
     50  C          6.2140   25.4440   -6.2780 C.2   149  SER149      0.2619
     51  O          6.9650   26.3230   -5.8480 O.2   149  SER149     -0.2717
     52  CB         5.3400   26.8220   -8.2160 C.3   149  SER149      0.2103
     53  OG         4.3060   27.3390   -7.3950 O.3   149  SER149     -0.2182
     54  N          5.7460   24.4360   -5.5130 N.am  150  SER150     -0.1938
     55  CA         6.0490   24.2640   -4.0920 C.3   150  SER150      0.2040
     56  C          7.4890   23.8040   -3.8520 C.2   150  SER150      0.2485
     57  O          7.9530   22.8900   -4.5370 O.2   150  SER150     -0.2729
     58  CB         5.0870   23.2620   -3.4570 C.3   150  SER150      0.2129
     59  OG         5.4760   22.8930   -2.1420 O.3   150  SER150     -0.2179
     60  N          8.1750   24.3620   -2.8230 N.am  151  PRO151     -0.2715
     61  CA         9.5290   23.8800   -2.4850 C.3   151  PRO151      0.1536
     62  C          9.4950   22.5790   -1.6700 C.2   151  PRO151      0.2598
     63  O         10.5520   22.0160   -1.3700 O.2   151  PRO151     -0.2715
     64  CB        10.1300   25.0350   -1.6640 C.3   151  PRO151      0.0310
     65  CG         9.0620   26.0990   -1.5970 C.3   151  PRO151      0.0237
     66  CD         7.7650   25.4420   -1.9070 C.3   151  PRO151      0.0939
     67  N          8.2900   22.1230   -1.2790 N.am  152  ASN152     -0.1973
     68  CA         8.0960   20.8770   -0.5390 C.3   152  ASN152      0.1688
     69  C          7.9920   19.7830   -1.5810 C.2   152  ASN152      0.2292
     70  O          6.9760   19.6750   -2.2760 O.2   152  ASN152     -0.2864
     71  CB         6.8290   20.9290    0.3230 C.3   152  ASN152      0.1181
     72  CG         6.6680   19.7760    1.2840 C.2   152  ASN152      0.2629
     73  OD1        6.7660   18.6030    0.9280 O.2   152  ASN152     -0.2716
     74  ND2        6.3210   20.0890    2.5130 N.am  152  ASN152     -0.0877
     75  N          4.8990   17.4920   -1.3940 N.3   155  ILE155     -0.1245
     76  CA         3.6730   18.1470   -1.8550 C.3   155  ILE155      0.1561
     77  C          3.6420   18.1770   -3.3780 C.2   155  ILE155      0.2260
     78  O          2.7170   17.6260   -3.9720 O.2   155  ILE155     -0.2867
     79  CB         3.4650   19.5400   -1.1760 C.3   155  ILE155      0.0252
     80  CG1        3.3010   19.4270    0.3780 C.3   155  ILE155      0.0019
     81  CG2        2.3260   20.3540   -1.8110 C.3   155  ILE155      0.0019
     82  CD1        2.2450   18.4030    0.9540 C.3   155  ILE155      0.0001
@<TRIPOS>BOND
     1    31    32    1
     2    52    49    1
     3    52    53    1
     4    32    35    1
     5    32    33    1
     6    48    49    1
     7    49    50    1
     8    35    36    1
     9    33    34    2
    10    33    40   am
    11    40    41    1
    12    42    43    2
    13    42    41    1
    14    36    37    1
    15    50    51    2
    16    50    54   am
    17    41    44    1
    18    39    37   am
    19    54    55    1
    20    37    38    2
    21    44    45    1
    22    57    56    2
    23    45    46    1
    24    45    47    1
    25    55    56    1
    26    55    58    1
    27    78    77    2
    28    56    60   am
    29    58    59    1
    30    77    76    1
    31    60    61    1
    32    60    66    1
    33    61    62    1
    34    61    64    1
    35    70    69    2
    36    66    65    1
    37    76    75    1
    38    76    79    1
    39    81    79    1
    40    62    63    2
    41    62    67   am
    42    64    65    1
    43    69    68    1
    44    67    68    1
    45    79    80    1
    46    68    71    1
    47    29    28    1
    48    71    72    1
    49    80    82    1
    50    26    25    2
    51    73    72    2
    52    28    30    1
    53    28    27    1
    54    72    74   am
    55    25    24    1
    56    27    24    1
    57    24    23    1
    58     1     2    1
    59     4     3    2
    60     2     3    1
    61     2     5    1
    62     3     7   am
    63     5     6    1
    64    17    16    2
    65    19    18    1
    66    19    20    1
    67    22    20   ar
    68     7     8    1
    69     7    13    1
    70    15    18    1
    71    15    16    1
    72    15    14    1
    73    20    21   ar
    74     8     9    1
    75     8    11    1
    76    13    12    1
    77     9    10    2
    78    11    12    1
