@<TRIPOS>MOLECULE
tmp/5mfrA04.pdb
 94 90 0 0 0
SMALL
GASTEIGER

@<TRIPOS>ATOM
      1  N        -70.0700   18.9590   -4.5950 N.3   259  GLY259     -0.1210
      2  CA       -69.6880   19.1220   -3.2130 C.3   259  GLY259      0.1956
      3  C        -68.9660   20.4290   -2.9600 C.2   259  GLY259      0.2611
      4  O        -69.2090   21.0960   -1.9530 O.2   259  GLY259     -0.2717
      5  N        -68.0470   20.7970   -3.8490 N.am  260  ALA260     -0.1979
      6  CA       -67.2470   22.0070   -3.6940 C.3   260  ALA260      0.1597
      7  C        -66.5010   22.2460   -4.9910 C.2   260  ALA260      0.2287
      8  O        -66.5490   21.4180   -5.9080 O.2   260  ALA260     -0.2864
      9  CB       -66.3140   21.9300   -2.4760 C.3   260  ALA260      0.0319
     10  N        -70.3010   20.7070    3.2440 N.3   273  TYR273     -0.1241
     11  CA       -68.8730   20.5060    3.4390 C.3   273  TYR273      0.1605
     12  C        -68.1970   21.6920    4.1010 C.2   273  TYR273      0.2264
     13  O        -66.9710   21.8140    4.0430 O.2   273  TYR273     -0.2867
     14  CB       -68.1910   20.1300    2.1230 C.3   273  TYR273      0.0534
     15  CG       -68.7000   18.8030    1.6080 C.ar  273  TYR273     -0.0201
     16  CD1      -68.6070   17.6630    2.3840 C.ar  273  TYR273     -0.0009
     17  CD2      -69.2900   18.6950    0.3660 C.ar  273  TYR273     -0.0009
     18  CE1      -69.0880   16.4470    1.9470 C.ar  273  TYR273      0.0417
     19  CE2      -69.7590   17.4720   -0.0910 C.ar  273  TYR273      0.0417
     20  CZ       -69.6540   16.3550    0.7040 C.ar  273  TYR273      0.1957
     21  OH       -70.1250   15.1440    0.2610 O.3   273  TYR273     -0.2866
     22  N        -61.8060   16.4210    4.6300 N.3   291  ARG291     -0.1231
     23  CA       -61.2700   15.9290    3.3760 C.3   291  ARG291      0.1694
     24  C        -61.6590   16.7990    2.1920 C.2   291  ARG291      0.2591
     25  O        -60.8570   16.9010    1.2670 O.2   291  ARG291     -0.2718
     26  CB       -61.6060   14.4570    3.1550 C.3   291  ARG291      0.0321
     27  CG       -62.9870   14.1880    2.6230 C.3   291  ARG291      0.0489
     28  CD       -63.2780   12.6970    2.5360 C.3   291  ARG291      0.2205
     29  NE       -63.7200   12.1640    3.8290 N.pl3 291  ARG291     -0.0865
     30  CZ       -62.9990   11.3910    4.6210 C.cat 291  ARG291      0.5346
     31  NH1      -61.7870   10.9940    4.2680 N.pl3 291  ARG291      0.1354
     32  NH2      -63.5300   10.9520    5.7400 N.pl3 291  ARG291      0.1354
     33  N        -62.8420   17.4200    2.1950 N.am  292  VAL292     -0.1980
     34  CA       -63.2450   18.2520    1.0670 C.3   292  VAL292      0.1595
     35  C        -62.5490   19.6030    1.0980 C.2   292  VAL292      0.2287
     36  O        -62.1130   20.1070    0.0540 O.2   292  VAL292     -0.2864
     37  CB       -64.7820   18.3530    0.9700 C.3   292  VAL292      0.0276
     38  CG1      -65.2040   19.3060   -0.1510 C.3   292  VAL292      0.0022
     39  CG2      -65.3630   16.9730    0.6970 C.3   292  VAL292      0.0022
     40  N        -59.2230   18.6350   -0.1990 N.3   295  HIS295     -0.1226
     41  CA       -59.2790   18.3970   -1.6340 C.3   295  HIS295      0.1752
     42  C        -59.2300   19.7050   -2.4110 C.2   295  HIS295      0.2595
     43  O        -58.4470   19.8510   -3.3540 O.2   295  HIS295     -0.2718
     44  CB       -60.5760   17.6270   -1.9400 C.3   295  HIS295      0.0759
     45  CG       -60.7270   17.2220   -3.3740 C.ar  295  HIS295      0.0818
     46  ND1      -60.3870   15.9770   -3.8430 N.ar  295  HIS295     -0.2268
     47  CD2      -61.1980   17.9080   -4.4400 C.ar  295  HIS295      0.1154
     48  CE1      -60.6410   15.9080   -5.1510 C.ar  295  HIS295      0.1986
     49  NE2      -61.1230   17.0790   -5.5440 N.ar  295  HIS295     -0.2212
     50  N        -60.1020   20.6490   -2.0670 N.am  296  GLU296     -0.1979
     51  CA       -60.1580   21.8900   -2.8360 C.3   296  GLU296      0.1602
     52  C        -58.8740   22.6920   -2.6750 C.2   296  GLU296      0.2287
     53  O        -58.3920   23.2870   -3.6430 O.2   296  GLU296     -0.2864
     54  CB       -61.3840   22.7120   -2.4750 C.3   296  GLU296      0.0415
     55  CG       -62.7050   21.9700   -2.6130 C.3   296  GLU296      0.1163
     56  CD       -62.9320   21.3390   -3.9470 C.2   296  GLU296      0.3649
     57  OE1      -62.3460   21.8270   -4.9320 O.co2 296  GLU296     -0.2457
     58  OE2      -63.7190   20.3480   -4.0150 O.co2 296  GLU296     -0.2457
     59  N        -57.5710   13.5750   -5.4160 N.3   322  VAL322     -0.1245
     60  CA       -58.1740   12.5920   -4.5170 C.3   322  VAL322      0.1561
     61  C        -57.0850   11.8490   -3.7580 C.2   322  VAL322      0.2260
     62  O        -57.1770   11.6600   -2.5420 O.2   322  VAL322     -0.2867
     63  CB       -59.0950   11.6100   -5.2680 C.3   322  VAL322      0.0252
     64  CG1      -59.5350   10.4640   -4.3340 C.3   322  VAL322      0.0019
     65  CG2      -60.3180   12.3150   -5.8040 C.3   322  VAL322      0.0019
     66  N        -56.0050   14.1160   -1.0610 N.3   325  ASP325     -0.1239
     67  CA       -56.9510   14.2140    0.0570 C.3   325  ASP325      0.1674
     68  C        -56.9480   12.9510    0.8960 C.2   325  ASP325      0.2266
     69  O        -57.0840   13.0250    2.1260 O.2   325  ASP325     -0.2867
     70  CB       -58.3410   14.7430   -0.3690 C.3   325  ASP325      0.1410
     71  CG       -59.3370   13.7200   -0.8850 C.2   325  ASP325      0.3668
     72  OD1      -59.6110   12.6910   -0.2330 O.co2 325  ASP325     -0.2456
     73  OD2      -59.9430   14.0020   -1.9760 O.co2 325  ASP325     -0.2456
     74  N        -62.2480    9.7310  -10.4630 N.3   379  TYR379     -0.1227
     75  CA       -61.8100   10.1770   -9.1390 C.3   379  TYR379      0.1736
     76  C        -61.1670    9.0530   -8.3400 C.2   379  TYR379      0.2595
     77  O        -59.9790    9.1180   -8.0020 O.2   379  TYR379     -0.2718
     78  CB       -63.0180   10.7310   -8.3750 C.3   379  TYR379      0.0548
     79  CG       -63.3670   12.1660   -8.7070 C.ar  379  TYR379     -0.0200
     80  CD1      -63.8510   12.5220   -9.9630 C.ar  379  TYR379     -0.0009
     81  CD2      -63.2000   13.1720   -7.7790 C.ar  379  TYR379     -0.0009
     82  CE1      -64.1490   13.8220  -10.2670 C.ar  379  TYR379      0.0417
     83  CE2      -63.4900   14.4950   -8.0890 C.ar  379  TYR379      0.0417
     84  CZ       -63.9520   14.8110   -9.3330 C.ar  379  TYR379      0.1957
     85  OH       -64.2050   16.1170   -9.6530 O.3   379  TYR379     -0.2866
     86  N        -61.9680    8.0430   -7.9810 N.am  380  GLU380     -0.1979
     87  CA       -61.5080    7.0240   -7.0500 C.3   380  GLU380      0.1602
     88  C        -60.5810    6.0090   -7.7180 C.2   380  GLU380      0.2287
     89  O        -59.5150    5.6950   -7.1830 O.2   380  GLU380     -0.2864
     90  CB       -62.7070    6.3750   -6.3500 C.3   380  GLU380      0.0415
     91  CG       -63.2560    7.1820   -5.1800 C.3   380  GLU380      0.1163
     92  CD       -63.8560    8.5090   -5.5600 C.2   380  GLU380      0.3649
     93  OE1      -63.5370    9.5310   -4.9030 O.co2 380  GLU380     -0.2457
     94  OE2      -64.6290    8.5470   -6.5280 O.co2 380  GLU380     -0.2457
@<TRIPOS>BOND
     1    74    75    1
     2    82    80   ar
     3    82    84   ar
     4    80    79   ar
     5    85    84    1
     6    84    83   ar
     7    75    78    1
     8    75    76    1
     9    79    78    1
    10    79    81   ar
    11    76    77    2
    12    76    86   am
    13    83    81   ar
    14    86    87    1
    15    88    89    2
    16    88    87    1
    17    87    90    1
    18    94    92   ar
    19    90    91    1
    20     8     7    2
    21    65    63    1
    22    92    91    1
    23    92    93   ar
    24    49    48   ar
    25    49    47   ar
    26    59    60    1
    27    63    60    1
    28    63    64    1
    29    48    46   ar
    30     7     6    1
    31    57    56   ar
    32     1     2    1
    33    60    61    1
    34    47    45   ar
    35    58    56   ar
    36    56    55    1
    37     5     6    1
    38     5     3   am
    39    46    45   ar
    40    61    62    2
    41     6     9    1
    42    53    52    2
    43    45    44    1
    44    43    42    2
    45     2     3    1
    46     3     4    2
    47    51    52    1
    48    51    54    1
    49    51    50    1
    50    55    54    1
    51    42    50   am
    52    42    41    1
    53    73    71   ar
    54    44    41    1
    55    41    40    1
    56    66    67    1
    57    71    70    1
    58    71    72   ar
    59    70    67    1
    60    38    37    1
    61    19    17   ar
    62    19    20   ar
    63    36    35    2
    64    67    68    1
    65    21    20    1
    66    17    15   ar
    67    39    37    1
    68    20    18   ar
    69    68    69    2
    70    37    34    1
    71    34    35    1
    72    34    33    1
    73    25    24    2
    74    15    14    1
    75    15    16   ar
    76    18    16   ar
    77    14    11    1
    78    24    33   am
    79    24    23    1
    80    28    27    1
    81    28    29    1
    82    27    26    1
    83    26    23    1
    84    10    11    1
    85    23    22    1
    86    11    12    1
    87    29    30    2
    88    13    12    2
    89    31    30    1
    90    30    32    1
