@<TRIPOS>MOLECULE
tmp/5mfrA03.pdb
 125 120 0 0 0
SMALL
GASTEIGER

@<TRIPOS>ATOM
      1  N        -71.0340   28.4680  -10.9230 N.3   117  GLN117     -0.1245
      2  CA       -70.3260   27.2110  -11.1090 C.3   117  GLN117      0.1566
      3  C        -69.9580   27.1240  -12.5800 C.2   117  GLN117      0.2260
      4  O        -70.8440   27.0890  -13.4480 O.2   117  GLN117     -0.2867
      5  CB       -71.1720   26.0080  -10.7080 C.3   117  GLN117      0.0367
      6  CG       -70.5080   24.6630  -11.0270 C.3   117  GLN117      0.0905
      7  CD       -69.1860   24.4670  -10.3340 C.2   117  GLN117      0.2608
      8  OE1      -68.9370   25.0090   -9.2640 O.2   117  GLN117     -0.2717
      9  NE2      -68.3190   23.6770  -10.9410 N.am  117  GLN117     -0.0878
     10  N        -67.1620   24.8800  -13.7980 N.3   119  GLU119     -0.1245
     11  CA       -66.6240   23.6060  -14.2720 C.3   119  GLU119      0.1567
     12  C        -67.7960   22.6590  -14.5550 C.2   119  GLU119      0.2260
     13  O        -68.7240   22.5690  -13.7430 O.2   119  GLU119     -0.2867
     14  CB       -65.6880   22.9700  -13.2250 C.3   119  GLU119      0.0388
     15  CG       -64.9640   21.7800  -13.8280 C.3   119  GLU119      0.1160
     16  CD       -64.0190   21.0740  -12.8940 C.2   119  GLU119      0.3649
     17  OE1      -63.9790   21.4510  -11.7040 O.co2 119  GLU119     -0.2457
     18  OE2      -63.3190   20.1420  -13.3570 O.co2 119  GLU119     -0.2457
     19  N        -72.4820   20.2640   -6.9890 N.3   258  MET258     -0.1230
     20  CA       -71.3180   19.4920   -6.5990 C.3   258  MET258      0.1702
     21  C        -71.0630   19.6710   -5.0940 C.2   258  MET258      0.2593
     22  O        -71.7360   20.4240   -4.3890 O.2   258  MET258     -0.2718
     23  CB       -70.0940   19.9450   -7.4030 C.3   258  MET258      0.0401
     24  CG       -70.3120   20.3830   -8.8750 C.3   258  MET258      0.0596
     25  SD       -70.9020   19.0840   -9.9860 S.3   258  MET258     -0.1393
     26  CE       -71.0650   20.0020  -11.5350 C.3   258  MET258      0.0692
     27  N        -70.0700   18.9590   -4.5950 N.am  259  GLY259     -0.1942
     28  CA       -69.6880   19.1220   -3.2130 C.3   259  GLY259      0.2014
     29  C        -68.9660   20.4290   -2.9600 C.2   259  GLY259      0.2639
     30  O        -69.2090   21.0960   -1.9530 O.2   259  GLY259     -0.2714
     31  N        -68.0470   20.7970   -3.8490 N.am  260  ALA260     -0.1963
     32  CA       -67.2470   22.0070   -3.6940 C.3   260  ALA260      0.1728
     33  C        -66.5010   22.2460   -4.9910 C.2   260  ALA260      0.2616
     34  O        -66.5490   21.4180   -5.9080 O.2   260  ALA260     -0.2715
     35  CB       -66.3140   21.9300   -2.4760 C.3   260  ALA260      0.0334
     36  N        -65.7860   23.3760   -5.0580 N.am  261  MET261     -0.1963
     37  CA       -65.1370   23.7740   -6.3030 C.3   261  MET261      0.1736
     38  C        -63.9430   24.6750   -6.0360 C.2   261  MET261      0.2616
     39  O        -64.0440   25.6690   -5.3030 O.2   261  MET261     -0.2715
     40  CB       -66.1390   24.4930   -7.2000 C.3   261  MET261      0.0427
     41  CG       -65.5790   24.9480   -8.5290 C.3   261  MET261      0.0599
     42  SD       -65.0260   23.5580   -9.5340 S.3   261  MET261     -0.1393
     43  CE       -63.6300   24.3380  -10.3880 C.3   261  MET261      0.0692
     44  N        -62.8270   24.3240   -6.6780 N.am  262  GLU262     -0.1977
     45  CA       -61.5150   24.9160   -6.4090 C.3   262  GLU262      0.1602
     46  C        -61.2190   26.2460   -7.1170 C.2   262  GLU262      0.2287
     47  O        -60.0590   26.5270   -7.4310 O.2   262  GLU262     -0.2864
     48  CB       -60.4280   23.8880   -6.7630 C.3   262  GLU262      0.0415
     49  CG       -60.2680   23.5910   -8.2780 C.3   262  GLU262      0.1163
     50  CD       -61.0560   22.4090   -8.7800 C.2   262  GLU262      0.3649
     51  OE1      -62.0750   22.0250   -8.1500 O.co2 262  GLU262     -0.2457
     52  OE2      -60.6790   21.8630   -9.8630 O.co2 262  GLU262     -0.2457
     53  N        -59.2230   18.6350   -0.1990 N.3   295  HIS295     -0.1226
     54  CA       -59.2790   18.3970   -1.6340 C.3   295  HIS295      0.1752
     55  C        -59.2300   19.7050   -2.4110 C.2   295  HIS295      0.2595
     56  O        -58.4470   19.8510   -3.3540 O.2   295  HIS295     -0.2718
     57  CB       -60.5760   17.6270   -1.9400 C.3   295  HIS295      0.0759
     58  CG       -60.7270   17.2220   -3.3740 C.ar  295  HIS295      0.0818
     59  ND1      -60.3870   15.9770   -3.8430 N.ar  295  HIS295     -0.2268
     60  CD2      -61.1980   17.9080   -4.4400 C.ar  295  HIS295      0.1154
     61  CE1      -60.6410   15.9080   -5.1510 C.ar  295  HIS295      0.1986
     62  NE2      -61.1230   17.0790   -5.5440 N.ar  295  HIS295     -0.2212
     63  N        -60.1020   20.6490   -2.0670 N.am  296  GLU296     -0.1979
     64  CA       -60.1580   21.8900   -2.8360 C.3   296  GLU296      0.1602
     65  C        -58.8740   22.6920   -2.6750 C.2   296  GLU296      0.2287
     66  O        -58.3920   23.2870   -3.6430 O.2   296  GLU296     -0.2864
     67  CB       -61.3840   22.7120   -2.4750 C.3   296  GLU296      0.0415
     68  CG       -62.7050   21.9700   -2.6130 C.3   296  GLU296      0.1163
     69  CD       -62.9320   21.3390   -3.9470 C.2   296  GLU296      0.3649
     70  OE1      -62.3460   21.8270   -4.9320 O.co2 296  GLU296     -0.2457
     71  OE2      -63.7190   20.3480   -4.0150 O.co2 296  GLU296     -0.2457
     72  N        -56.1190   21.2170   -4.8720 N.3   299  HIS299     -0.1241
     73  CA       -56.2460   21.5770   -6.2790 C.3   299  HIS299      0.1621
     74  C        -55.4980   22.8510   -6.6140 C.2   299  HIS299      0.2264
     75  O        -55.2300   23.0930   -7.7920 O.2   299  HIS299     -0.2867
     76  CB       -57.7010   21.8260   -6.6530 C.3   299  HIS299      0.0745
     77  CG       -58.4550   20.6250   -7.1220 C.ar  299  HIS299      0.0817
     78  ND1      -58.0080   19.8240   -8.1560 N.ar  299  HIS299     -0.2268
     79  CD2      -59.6970   20.1680   -6.8020 C.ar  299  HIS299      0.1154
     80  CE1      -58.9250   18.9030   -8.4230 C.ar  299  HIS299      0.1986
     81  NE2      -59.9540   19.0830   -7.6120 N.ar  299  HIS299     -0.2212
     82  N        -58.0030   15.1390  -10.9570 N.3   318  GLU318     -0.1245
     83  CA       -58.8870   14.5360   -9.9610 C.3   318  GLU318      0.1567
     84  C        -58.2910   13.2970   -9.3150 C.2   318  GLU318      0.2260
     85  O        -58.3940   13.1330   -8.0970 O.2   318  GLU318     -0.2867
     86  CB       -60.2690   14.2590  -10.5180 C.3   318  GLU318      0.0388
     87  CG       -61.0030   15.5010  -10.9960 C.3   318  GLU318      0.1160
     88  CD       -61.1170   16.5890   -9.9250 C.2   318  GLU318      0.3649
     89  OE1      -60.9720   16.2640   -8.7110 O.co2 318  GLU318     -0.2457
     90  OE2      -61.3370   17.7520  -10.3140 O.co2 318  GLU318     -0.2457
     91  N        -67.6120   13.0760  -14.2110 N.3   374  TYR374     -0.1241
     92  CA       -67.1080   13.3680  -12.8650 C.3   374  TYR374      0.1605
     93  C        -67.4450   12.1630  -11.9880 C.2   374  TYR374      0.2264
     94  O        -68.3160   12.2090  -11.1340 O.2   374  TYR374     -0.2867
     95  CB       -67.6820   14.6960  -12.3570 C.3   374  TYR374      0.0534
     96  CG       -66.9930   15.8530  -13.0470 C.ar  374  TYR374     -0.0201
     97  CD1      -67.2650   16.1470  -14.3850 C.ar  374  TYR374     -0.0009
     98  CD2      -66.0100   16.5860  -12.4210 C.ar  374  TYR374     -0.0009
     99  CE1      -66.5850   17.1380  -15.0520 C.ar  374  TYR374      0.0417
    100  CE2      -65.3340   17.5960  -13.0730 C.ar  374  TYR374      0.0417
    101  CZ       -65.6090   17.8540  -14.4100 C.ar  374  TYR374      0.1957
    102  OH       -64.9080   18.8000  -15.1250 O.3   374  TYR374     -0.2866
    103  N        -62.2480    9.7310  -10.4630 N.3   379  TYR379     -0.1241
    104  CA       -61.8100   10.1770   -9.1390 C.3   379  TYR379      0.1605
    105  C        -61.1670    9.0530   -8.3400 C.2   379  TYR379      0.2264
    106  O        -59.9790    9.1180   -8.0020 O.2   379  TYR379     -0.2867
    107  CB       -63.0180   10.7310   -8.3750 C.3   379  TYR379      0.0534
    108  CG       -63.3670   12.1660   -8.7070 C.ar  379  TYR379     -0.0201
    109  CD1      -63.8510   12.5220   -9.9630 C.ar  379  TYR379     -0.0009
    110  CD2      -63.2000   13.1720   -7.7790 C.ar  379  TYR379     -0.0009
    111  CE1      -64.1490   13.8220  -10.2670 C.ar  379  TYR379      0.0417
    112  CE2      -63.4900   14.4950   -8.0890 C.ar  379  TYR379      0.0417
    113  CZ       -63.9520   14.8110   -9.3330 C.ar  379  TYR379      0.1957
    114  OH       -64.2050   16.1170   -9.6530 O.3   379  TYR379     -0.2866
    115  N        -77.2090   12.0730  -12.2200 N.3   823  ARG823     -0.1245
    116  CA       -76.7570   11.2790  -11.0790 C.3   823  ARG823      0.1563
    117  C        -77.8350   10.2900  -10.6490 C.2   823  ARG823      0.2260
    118  O        -77.5360    9.1410  -10.2960 O.2   823  ARG823     -0.2867
    119  CB       -76.3840   12.2090   -9.9310 C.3   823  ARG823      0.0307
    120  CG       -75.2020   13.0910  -10.2430 C.3   823  ARG823      0.0489
    121  CD       -73.8480   12.3980  -10.1810 C.3   823  ARG823      0.2205
    122  NE       -72.7490   13.3830  -10.2410 N.pl3 823  ARG823     -0.0865
    123  CZ       -71.4510   13.0650  -10.2920 C.cat 823  ARG823      0.5346
    124  NH1      -71.0790   11.7950  -10.2720 N.pl3 823  ARG823      0.1354
    125  NH2      -70.5220   14.0090  -10.3640 N.pl3 823  ARG823      0.1354
@<TRIPOS>BOND
     1   102   101    1
     2    99   101   ar
     3    99    97   ar
     4    12    11    1
     5    12    13    2
     6   101   100   ar
     7    97    96   ar
     8    11    10    1
     9    11    14    1
    10    91    92    1
    11    15    14    1
    12    15    16    1
    13     4     3    2
    14    18    16   ar
    15   100    98   ar
    16    96    98   ar
    17    96    95    1
    18    16    17   ar
    19    92    95    1
    20    92    93    1
    21     3     2    1
    22   115   116    1
    23    93    94    2
    24    26    25    1
    25     2     1    1
    26     2     5    1
    27   116   117    1
    28   116   119    1
    29     6     5    1
    30     6     7    1
    31    87    86    1
    32    87    88    1
    33    82    83    1
    34     9     7   am
    35   117   118    2
    36    86    83    1
    37   103   104    1
    38    43    42    1
    39   125   123    1
    40     7     8    2
    41    90    88   ar
    42   123   124    1
    43   123   122    2
    44   111   109   ar
    45   111   113   ar
    46   120   121    1
    47   120   119    1
    48   122   121    1
    49    25    24    1
    50   109   108   ar
    51    83    84    1
    52    88    89   ar
    53    52    50   ar
    54   114   113    1
    55    42    41    1
    56   113   112   ar
    57    84    85    2
    58   104   107    1
    59   104   105    1
    60    24    23    1
    61    50    49    1
    62    50    51   ar
    63   108   107    1
    64   108   110   ar
    65    41    40    1
    66    80    78   ar
    67    80    81   ar
    68   105   106    2
    69    49    48    1
    70    78    77   ar
    71   112   110   ar
    72    75    74    2
    73    81    79   ar
    74    47    46    2
    75    23    20    1
    76    40    37    1
    77    77    79   ar
    78    77    76    1
    79    46    45    1
    80    19    20    1
    81    48    45    1
    82    44    45    1
    83    44    38   am
    84    76    73    1
    85    74    73    1
    86    20    21    1
    87    37    38    1
    88    37    36    1
    89    73    72    1
    90    38    39    2
    91    34    33    2
    92    62    61   ar
    93    62    60   ar
    94    61    59   ar
    95    21    27   am
    96    21    22    2
    97    36    33   am
    98    33    32    1
    99    70    69   ar
   100    27    28    1
   101    60    58   ar
   102    71    69   ar
   103    69    68    1
   104    31    32    1
   105    31    29   am
   106    59    58   ar
   107    32    35    1
   108    66    65    2
   109    58    57    1
   110    56    55    2
   111    28    29    1
   112    29    30    2
   113    64    65    1
   114    64    67    1
   115    64    63    1
   116    68    67    1
   117    55    63   am
   118    55    54    1
   119    57    54    1
   120    54    53    1
