@<TRIPOS>MOLECULE
tmp/5mftA03.pdb
 188 180 0 0 0
SMALL
GASTEIGER

@<TRIPOS>ATOM
      1  N        -70.9630   28.4940  -10.8950 N.3   117  GLN117     -0.1245
      2  CA       -70.2880   27.2220  -11.0800 C.3   117  GLN117      0.1566
      3  C        -69.9110   27.1330  -12.5500 C.2   117  GLN117      0.2260
      4  O        -70.7860   27.1430  -13.4240 O.2   117  GLN117     -0.2867
      5  CB       -71.1380   26.0350  -10.6700 C.3   117  GLN117      0.0367
      6  CG       -70.4570   24.7070  -11.0300 C.3   117  GLN117      0.0905
      7  CD       -69.1200   24.5060  -10.3450 C.2   117  GLN117      0.2608
      8  OE1      -68.8780   25.0460   -9.2770 O.2   117  GLN117     -0.2717
      9  NE2      -68.2520   23.6990  -10.9500 N.am  117  GLN117     -0.0878
     10  N        -67.1600   24.8500  -13.7970 N.3   119  GLU119     -0.1245
     11  CA       -66.6310   23.5630  -14.2660 C.3   119  GLU119      0.1567
     12  C        -67.8020   22.6240  -14.5530 C.2   119  GLU119      0.2260
     13  O        -68.7210   22.5380  -13.7380 O.2   119  GLU119     -0.2867
     14  CB       -65.6780   22.9240  -13.2380 C.3   119  GLU119      0.0388
     15  CG       -64.9160   21.7390  -13.8490 C.3   119  GLU119      0.1160
     16  CD       -63.9900   21.0230  -12.8950 C.2   119  GLU119      0.3649
     17  OE1      -63.9430   21.4240  -11.6950 O.co2 119  GLU119     -0.2457
     18  OE2      -63.2630   20.0990  -13.3470 O.co2 119  GLU119     -0.2457
     19  N        -72.4840   20.1390   -6.7270 N.3   258  MET258     -0.1230
     20  CA       -71.3740   19.2830   -6.3200 C.3   258  MET258      0.1702
     21  C        -71.0130   19.5440   -4.8470 C.2   258  MET258      0.2593
     22  O        -71.6800   20.2990   -4.1330 O.2   258  MET258     -0.2718
     23  CB       -70.1530   19.4660   -7.2540 C.3   258  MET258      0.0401
     24  CG       -70.1100   20.6680   -8.2850 C.3   258  MET258      0.0596
     25  SD       -71.1570   20.6460   -9.7740 S.3   258  MET258     -0.1393
     26  CE       -71.0270   18.9400  -10.3780 C.3   258  MET258      0.0692
     27  N        -69.9580   18.8770   -4.3720 N.am  259  GLY259     -0.1942
     28  CA       -69.5140   19.0980   -3.0050 C.3   259  GLY259      0.2014
     29  C        -68.7830   20.4170   -2.8070 C.2   259  GLY259      0.2639
     30  O        -68.9420   21.0770   -1.7750 O.2   259  GLY259     -0.2714
     31  N        -67.9520   20.8040   -3.7650 N.am  260  ALA260     -0.1963
     32  CA       -67.1790   22.0390   -3.6550 C.3   260  ALA260      0.1728
     33  C        -66.5270   22.3090   -5.0050 C.2   260  ALA260      0.2616
     34  O        -66.7280   21.5670   -5.9730 O.2   260  ALA260     -0.2715
     35  CB       -66.1370   21.9570   -2.5320 C.3   260  ALA260      0.0334
     36  N        -65.7430   23.3900   -5.0660 N.am  261  MET261     -0.1963
     37  CA       -65.0960   23.7890   -6.3120 C.3   261  MET261      0.1736
     38  C        -63.8970   24.6770   -6.0350 C.2   261  MET261      0.2616
     39  O        -63.9870   25.6490   -5.2650 O.2   261  MET261     -0.2715
     40  CB       -66.1100   24.4960   -7.2120 C.3   261  MET261      0.0427
     41  CG       -65.5250   24.9730   -8.5200 C.3   261  MET261      0.0599
     42  SD       -64.9940   23.5670   -9.5200 S.3   261  MET261     -0.1393
     43  CE       -63.5850   24.2930  -10.3940 C.3   261  MET261      0.0692
     44  N        -62.7760   24.3490   -6.7020 N.am  262  GLU262     -0.1977
     45  CA       -61.4570   24.9300   -6.4060 C.3   262  GLU262      0.1602
     46  C        -61.1660   26.2540   -7.1250 C.2   262  GLU262      0.2287
     47  O        -60.0010   26.5340   -7.4470 O.2   262  GLU262     -0.2864
     48  CB       -60.3820   23.8980   -6.7350 C.3   262  GLU262      0.0415
     49  CG       -60.2710   23.5780   -8.2670 C.3   262  GLU262      0.1163
     50  CD       -61.0370   22.3690   -8.7380 C.2   262  GLU262      0.3649
     51  OE1      -62.0360   21.9800   -8.0990 O.co2 262  GLU262     -0.2457
     52  OE2      -60.6480   21.8150   -9.8210 O.co2 262  GLU262     -0.2457
     53  N        -70.2970   20.7590    3.3320 N.3   273  TYR273     -0.1241
     54  CA       -68.8740   20.5460    3.5340 C.3   273  TYR273      0.1605
     55  C        -68.1860   21.7350    4.1980 C.2   273  TYR273      0.2264
     56  O        -66.9510   21.8570    4.1330 O.2   273  TYR273     -0.2867
     57  CB       -68.2000   20.1870    2.2110 C.3   273  TYR273      0.0534
     58  CG       -68.7400   18.8880    1.6630 C.ar  273  TYR273     -0.0201
     59  CD1      -68.7040   17.7220    2.4250 C.ar  273  TYR273     -0.0009
     60  CD2      -69.2900   18.8240    0.3980 C.ar  273  TYR273     -0.0009
     61  CE1      -69.1960   16.5440    1.9500 C.ar  273  TYR273      0.0417
     62  CE2      -69.7850   17.6360   -0.0930 C.ar  273  TYR273      0.0417
     63  CZ       -69.7220   16.4970    0.6950 C.ar  273  TYR273      0.1957
     64  OH       -70.2040   15.3050    0.2490 O.3   273  TYR273     -0.2866
     65  N        -61.7990   16.4510    4.6910 N.3   291  ARG291     -0.1231
     66  CA       -61.2640   15.9570    3.4350 C.3   291  ARG291      0.1694
     67  C        -61.6800   16.8270    2.2490 C.2   291  ARG291      0.2591
     68  O        -60.8840   16.9420    1.3160 O.2   291  ARG291     -0.2718
     69  CB       -61.6290   14.4960    3.2120 C.3   291  ARG291      0.0321
     70  CG       -62.9570   14.2080    2.5650 C.3   291  ARG291      0.0489
     71  CD       -63.2110   12.7000    2.4560 C.3   291  ARG291      0.2205
     72  NE       -63.7290   12.1580    3.7200 N.pl3 291  ARG291     -0.0865
     73  CZ       -63.0610   11.3580    4.5420 C.cat 291  ARG291      0.5346
     74  NH1      -61.8290   10.9700    4.2730 N.pl3 291  ARG291      0.1354
     75  NH2      -63.6330   10.9450    5.6590 N.pl3 291  ARG291      0.1354
     76  N        -62.8540   17.4600    2.2650 N.am  292  VAL292     -0.1980
     77  CA       -63.2640   18.2840    1.1430 C.3   292  VAL292      0.1595
     78  C        -62.5550   19.6250    1.1680 C.2   292  VAL292      0.2287
     79  O        -62.0930   20.1080    0.1370 O.2   292  VAL292     -0.2864
     80  CB       -64.7990   18.4240    1.1100 C.3   292  VAL292      0.0276
     81  CG1      -65.2270   19.4140    0.0130 C.3   292  VAL292      0.0022
     82  CG2      -65.4360   17.0370    0.8730 C.3   292  VAL292      0.0022
     83  N        -59.1760   18.6090   -0.1250 N.3   295  HIS295     -0.1226
     84  CA       -59.2540   18.3710   -1.5630 C.3   295  HIS295      0.1752
     85  C        -59.2010   19.6760   -2.3470 C.2   295  HIS295      0.2595
     86  O        -58.4080   19.8250   -3.2860 O.2   295  HIS295     -0.2718
     87  CB       -60.5500   17.5930   -1.8790 C.3   295  HIS295      0.0759
     88  CG       -60.6880   17.2050   -3.3200 C.ar  295  HIS295      0.0818
     89  ND1      -60.3200   15.9640   -3.7850 N.ar  295  HIS295     -0.2268
     90  CD2      -61.1400   17.8980   -4.3990 C.ar  295  HIS295      0.1154
     91  CE1      -60.5750   15.8920   -5.0850 C.ar  295  HIS295      0.1986
     92  NE2      -61.0480   17.0600   -5.4830 N.ar  295  HIS295     -0.2212
     93  N        -60.0650   20.6190   -2.0000 N.am  296  GLU296     -0.1979
     94  CA       -60.1360   21.8760   -2.7490 C.3   296  GLU296      0.1602
     95  C        -58.8560   22.6860   -2.5970 C.2   296  GLU296      0.2287
     96  O        -58.3670   23.2700   -3.5690 O.2   296  GLU296     -0.2864
     97  CB       -61.3520   22.6820   -2.3140 C.3   296  GLU296      0.0415
     98  CG       -62.6800   21.9640   -2.5100 C.3   296  GLU296      0.1163
     99  CD       -62.8780   21.4540   -3.9140 C.2   296  GLU296      0.3649
    100  OE1      -62.3280   22.0900   -4.8370 O.co2 296  GLU296     -0.2457
    101  OE2      -63.5740   20.4250   -4.0940 O.co2 296  GLU296     -0.2457
    102  N        -56.0680   21.2070   -4.8220 N.3   299  HIS299     -0.1241
    103  CA       -56.2190   21.5800   -6.2280 C.3   299  HIS299      0.1621
    104  C        -55.4650   22.8490   -6.5850 C.2   299  HIS299      0.2264
    105  O        -55.1920   23.0710   -7.7660 O.2   299  HIS299     -0.2867
    106  CB       -57.6750   21.8150   -6.5880 C.3   299  HIS299      0.0745
    107  CG       -58.4240   20.6280   -7.0820 C.ar  299  HIS299      0.0817
    108  ND1      -57.9700   19.8260   -8.0920 N.ar  299  HIS299     -0.2268
    109  CD2      -59.6510   20.1530   -6.7460 C.ar  299  HIS299      0.1154
    110  CE1      -58.8720   18.9000   -8.3490 C.ar  299  HIS299      0.1986
    111  NE2      -59.9110   19.0900   -7.5620 N.ar  299  HIS299     -0.2212
    112  N        -55.9500   15.9450  -12.7460 N.3   317  LYS317     -0.1231
    113  CA       -56.1370   16.6850  -11.5080 C.3   317  LYS317      0.1693
    114  C        -56.9860   15.9350  -10.5080 C.2   317  LYS317      0.2591
    115  O        -56.7300   16.0510   -9.3250 O.2   317  LYS317     -0.2718
    116  CB       -56.7160   18.0910  -11.7680 C.3   317  LYS317      0.0285
    117  CG       -58.1730   18.2070  -12.2570 C.3   317  LYS317      0.0035
    118  CD       -58.4850   19.6680  -12.5300 C.3   317  LYS317      0.0206
    119  CE       -59.8820   19.9380  -13.0640 C.3   317  LYS317      0.1093
    120  NZ       -60.9250   19.8830  -12.0310 N.3   317  LYS317     -0.1314
    121  N        -57.9540   15.1260  -10.9300 N.am  318  GLU318     -0.1979
    122  CA       -58.8340   14.5430   -9.9320 C.3   318  GLU318      0.1602
    123  C        -58.2570   13.2900   -9.2890 C.2   318  GLU318      0.2287
    124  O        -58.4120   13.0960   -8.0820 O.2   318  GLU318     -0.2864
    125  CB       -60.2020   14.2600  -10.5240 C.3   318  GLU318      0.0415
    126  CG       -60.9580   15.5390  -10.9720 C.3   318  GLU318      0.1163
    127  CD       -61.0550   16.6010   -9.8930 C.2   318  GLU318      0.3649
    128  OE1      -60.8980   16.2770   -8.6830 O.co2 318  GLU318     -0.2457
    129  OE2      -61.2980   17.7640  -10.2750 O.co2 318  GLU318     -0.2457
    130  N        -57.5480   13.5480   -5.3880 N.3   322  VAL322     -0.1245
    131  CA       -58.1380   12.5620   -4.4940 C.3   322  VAL322      0.1561
    132  C        -57.0400   11.8300   -3.7280 C.2   322  VAL322      0.2260
    133  O        -57.1480   11.6200   -2.5160 O.2   322  VAL322     -0.2867
    134  CB       -59.0510   11.5720   -5.2490 C.3   322  VAL322      0.0252
    135  CG1      -59.4590   10.3940   -4.3150 C.3   322  VAL322      0.0019
    136  CG2      -60.3000   12.2530   -5.7590 C.3   322  VAL322      0.0019
    137  N        -56.0020   14.1080   -1.0530 N.3   325  ASP325     -0.1239
    138  CA       -56.9280   14.2140    0.0790 C.3   325  ASP325      0.1674
    139  C        -56.9270   12.9340    0.9150 C.2   325  ASP325      0.2266
    140  O        -57.0700   13.0070    2.1510 O.2   325  ASP325     -0.2867
    141  CB       -58.3370   14.6980   -0.3720 C.3   325  ASP325      0.1410
    142  CG       -59.3040   13.6430   -0.8720 C.2   325  ASP325      0.3668
    143  OD1      -59.5410   12.6030   -0.1940 O.co2 325  ASP325     -0.2456
    144  OD2      -59.9560   13.9230   -1.9430 O.co2 325  ASP325     -0.2456
    145  N        -67.5430   13.0540  -14.1910 N.3   374  TYR374     -0.1241
    146  CA       -67.0290   13.3220  -12.8450 C.3   374  TYR374      0.1605
    147  C        -67.3600   12.1110  -11.9720 C.2   374  TYR374      0.2264
    148  O        -68.2110   12.1510  -11.0910 O.2   374  TYR374     -0.2867
    149  CB       -67.6100   14.6270  -12.3210 C.3   374  TYR374      0.0534
    150  CG       -66.9600   15.7970  -13.0150 C.ar  374  TYR374     -0.0201
    151  CD1      -67.2530   16.0950  -14.3290 C.ar  374  TYR374     -0.0009
    152  CD2      -65.9910   16.5590  -12.3750 C.ar  374  TYR374     -0.0009
    153  CE1      -66.5830   17.1010  -15.0030 C.ar  374  TYR374      0.0417
    154  CE2      -65.3090   17.5830  -13.0250 C.ar  374  TYR374      0.0417
    155  CZ       -65.6070   17.8400  -14.3710 C.ar  374  TYR374      0.1957
    156  OH       -64.9370   18.8100  -15.0920 O.3   374  TYR374     -0.2866
    157  N        -62.1900    9.6900  -10.4890 N.3   379  TYR379     -0.1227
    158  CA       -61.7570   10.1170   -9.1570 C.3   379  TYR379      0.1736
    159  C        -61.1220    8.9840   -8.3700 C.2   379  TYR379      0.2595
    160  O        -59.9360    9.0470   -8.0190 O.2   379  TYR379     -0.2718
    161  CB       -62.9580   10.6970   -8.3880 C.3   379  TYR379      0.0548
    162  CG       -63.2820   12.1330   -8.7260 C.ar  379  TYR379     -0.0200
    163  CD1      -63.7690   12.4960   -9.9910 C.ar  379  TYR379     -0.0009
    164  CD2      -63.1230   13.1360   -7.7940 C.ar  379  TYR379     -0.0009
    165  CE1      -64.0620   13.8130  -10.2810 C.ar  379  TYR379      0.0417
    166  CE2      -63.4080   14.4650   -8.1010 C.ar  379  TYR379      0.0417
    167  CZ       -63.8830   14.7870   -9.3380 C.ar  379  TYR379      0.1957
    168  OH       -64.1280   16.0960   -9.6360 O.3   379  TYR379     -0.2866
    169  N        -61.9270    7.9790   -8.0130 N.am  380  GLU380     -0.1979
    170  CA       -61.4620    6.9640   -7.0740 C.3   380  GLU380      0.1602
    171  C        -60.5140    5.9670   -7.7380 C.2   380  GLU380      0.2287
    172  O        -59.4430    5.6920   -7.2080 O.2   380  GLU380     -0.2864
    173  CB       -62.6610    6.2640   -6.4300 C.3   380  GLU380      0.0415
    174  CG       -63.2180    6.9890   -5.2260 C.3   380  GLU380      0.1163
    175  CD       -63.8380    8.3080   -5.5620 C.2   380  GLU380      0.3649
    176  OE1      -64.5930    8.3670   -6.5530 O.co2 380  GLU380     -0.2457
    177  OE2      -63.5390    9.3070   -4.8580 O.co2 380  GLU380     -0.2457
    178  N        -77.1680   12.0640  -12.1530 N.3   823  ARG823     -0.1245
    179  CA       -76.7330   11.2610  -11.0110 C.3   823  ARG823      0.1563
    180  C        -77.8110   10.2720  -10.5980 C.2   823  ARG823      0.2260
    181  O        -77.5090    9.1220  -10.2360 O.2   823  ARG823     -0.2867
    182  CB       -76.3740   12.1610   -9.8200 C.3   823  ARG823      0.0307
    183  CG       -75.1840   13.0720  -10.0490 C.3   823  ARG823      0.0489
    184  CD       -73.8480   12.2930  -10.0280 C.3   823  ARG823      0.2205
    185  NE       -72.6770   13.1570  -10.2440 N.pl3 823  ARG823     -0.0865
    186  CZ       -71.4140   12.7200  -10.2750 C.cat 823  ARG823      0.5346
    187  NH1      -71.1420   11.4500  -10.0900 N.pl3 823  ARG823      0.1354
    188  NH2      -70.4280   13.5490  -10.4860 N.pl3 823  ARG823      0.1354
@<TRIPOS>BOND
     1   156   155    1
     2   153   155   ar
     3   153   151   ar
     4    12    11    1
     5    12    13    2
     6   155   154   ar
     7   151   150   ar
     8    11    10    1
     9    11    14    1
    10   145   146    1
    11    15    14    1
    12    15    16    1
    13     4     3    2
    14    18    16   ar
    15   119   118    1
    16   119   120    1
    17   154   152   ar
    18   150   152   ar
    19   150   149    1
    20    16    17   ar
    21   146   149    1
    22   146   147    1
    23   112   113    1
    24     3     2    1
    25   118   117    1
    26   117   116    1
    27   178   179    1
    28   147   148    2
    29   116   113    1
    30   113   114    1
    31     2     1    1
    32     2     5    1
    33     6     5    1
    34     6     7    1
    35   179   180    1
    36   179   182    1
    37   126   125    1
    38   126   127    1
    39     9     7   am
    40   121   114   am
    41   121   122    1
    42   180   181    2
    43   125   122    1
    44   114   115    2
    45   157   158    1
    46   188   186    1
    47    43    42    1
    48    26    25    1
    49     7     8    2
    50   165   163   ar
    51   165   167   ar
    52   186   185    2
    53   186   187    1
    54   129   127   ar
    55   185   184    1
    56   183   184    1
    57   183   182    1
    58   163   162   ar
    59   122   123    1
    60   127   128   ar
    61    52    50   ar
    62    25    24    1
    63   168   167    1
    64    42    41    1
    65   167   166   ar
    66   123   124    2
    67   158   161    1
    68   158   159    1
    69    50    49    1
    70    50    51   ar
    71   162   161    1
    72   162   164   ar
    73    41    40    1
    74   159   160    2
    75   159   169   am
    76   110   108   ar
    77   110   111   ar
    78    24    23    1
    79    49    48    1
    80   166   164   ar
    81   108   107   ar
    82   169   170    1
    83   105   104    2
    84   171   172    2
    85   171   170    1
    86   111   109   ar
    87    47    46    2
    88    23    20    1
    89    40    37    1
    90    46    45    1
    91   107   109   ar
    92   107   106    1
    93   170   173    1
    94    48    45    1
    95    19    20    1
    96    44    45    1
    97    44    38   am
    98   106   103    1
    99   104   103    1
   100   176   175   ar
   101   173   174    1
   102    20    21    1
   103    37    38    1
   104    37    36    1
   105   103   102    1
   106    38    39    2
   107    34    33    2
   108   136   134    1
   109   175   174    1
   110   175   177   ar
   111    92    91   ar
   112    92    90   ar
   113   130   131    1
   114   134   131    1
   115   134   135    1
   116    91    89   ar
   117    36    33   am
   118    33    32    1
   119    21    27   am
   120    21    22    2
   121   100    99   ar
   122   131   132    1
   123    90    88   ar
   124    27    28    1
   125   101    99   ar
   126    99    98    1
   127    89    88   ar
   128    31    32    1
   129    31    29   am
   130   132   133    2
   131    32    35    1
   132    96    95    2
   133    88    87    1
   134    86    85    2
   135    28    29    1
   136    29    30    2
   137    94    95    1
   138    94    97    1
   139    94    93    1
   140    98    97    1
   141    85    93   am
   142    85    84    1
   143   144   142   ar
   144    87    84    1
   145    84    83    1
   146   137   138    1
   147   142   141    1
   148   142   143   ar
   149   141   138    1
   150    62    60   ar
   151    62    63   ar
   152    81    80    1
   153   138   139    1
   154    79    78    2
   155    64    63    1
   156    60    58   ar
   157    63    61   ar
   158    82    80    1
   159   139   140    2
   160    80    77    1
   161    77    78    1
   162    77    76    1
   163    68    67    2
   164    58    57    1
   165    58    59   ar
   166    61    59   ar
   167    57    54    1
   168    67    76   am
   169    67    66    1
   170    71    70    1
   171    71    72    1
   172    70    69    1
   173    69    66    1
   174    53    54    1
   175    66    65    1
   176    54    55    1
   177    72    73    2
   178    56    55    2
   179    74    73    1
   180    73    75    1
