@<TRIPOS>MOLECULE
tmp/5mfuA00.pdb
 150 141 0 0 0
SMALL
GASTEIGER

@<TRIPOS>ATOM
      1  N         -5.9980   32.9520   29.9350 N.3    21  GLN21      -0.1245
      2  CA        -5.1210   32.2200   30.8330 C.3    21  GLN21       0.1566
      3  C         -3.7920   31.9270   30.0980 C.2    21  GLN21       0.2260
      4  O         -3.8010   31.3310   29.1210 O.2    21  GLN21      -0.2867
      5  CB        -5.7500   30.9350   31.3580 C.3    21  GLN21       0.0367
      6  CG        -4.8280   30.2490   32.3590 C.3    21  GLN21       0.0905
      7  CD        -5.4140   29.0430   33.0760 C.2    21  GLN21       0.2608
      8  OE1       -6.2340   28.2870   32.5500 O.2    21  GLN21      -0.2717
      9  NE2       -4.9770   28.8550   34.3270 N.am   21  GLN21      -0.0878
     10  N         -4.8560   30.7830   26.4720 N.3    35  GLU35      -0.1245
     11  CA        -6.1580   30.1950   26.2440 C.3    35  GLU35       0.1567
     12  C         -7.2540   31.2140   26.6030 C.2    35  GLU35       0.2260
     13  O         -7.2840   31.7760   27.7170 O.2    35  GLU35      -0.2867
     14  CB        -6.3320   28.8710   27.0110 C.3    35  GLU35       0.0388
     15  CG        -7.7010   28.2610   26.7060 C.3    35  GLU35       0.1160
     16  CD        -8.0180   26.9480   27.4460 C.2    35  GLU35       0.3649
     17  OE1       -7.2500   26.4980   28.3150 O.co2  35  GLU35      -0.2457
     18  OE2       -9.0840   26.3650   27.1320 O.co2  35  GLU35      -0.2457
     19  N        -11.0660   32.1720   27.5240 N.3    37  LEU37      -0.1245
     20  CA       -12.1190   31.5100   28.2900 C.3    37  LEU37       0.1561
     21  C        -13.2580   32.5050   28.4360 C.2    37  LEU37       0.2260
     22  O        -13.0490   33.6330   28.7710 O.2    37  LEU37      -0.2867
     23  CB       -11.5710   31.0850   29.6520 C.3    37  LEU37       0.0270
     24  CG       -10.3560   30.1330   29.6560 C.3    37  LEU37       0.0019
     25  CD1       -9.6300   30.0680   30.9810 C.3    37  LEU37       0.0001
     26  CD2      -10.7690   28.7110   29.3080 C.3    37  LEU37       0.0001
     27  N        -16.3540   34.3970   30.0190 N.3    39  ARG39      -0.1245
     28  CA       -17.0090   34.7680   31.2460 C.3    39  ARG39       0.1563
     29  C        -18.2540   35.5410   30.9440 C.2    39  ARG39       0.2260
     30  O        -18.3320   36.1490   29.9040 O.2    39  ARG39      -0.2867
     31  CB       -16.1160   35.6110   32.1030 C.3    39  ARG39       0.0307
     32  CG       -14.7980   34.9630   32.5030 C.3    39  ARG39       0.0489
     33  CD       -15.0370   33.9520   33.5860 C.3    39  ARG39       0.2205
     34  NE       -13.8270   33.2760   34.0760 N.pl3  39  ARG39      -0.0865
     35  CZ       -13.3550   32.1160   33.6380 C.cat  39  ARG39       0.5346
     36  NH1      -13.8790   31.4890   32.5940 N.pl3  39  ARG39       0.1354
     37  NH2      -12.3420   31.5600   34.2650 N.pl3  39  ARG39       0.1354
     38  N        -18.8350   32.0220   35.6440 N.3    49  ARG49      -0.1231
     39  CA       -17.9370   31.1230   34.9320 C.3    49  ARG49       0.1679
     40  C        -18.7580   30.1950   34.0340 C.2    49  ARG49       0.2434
     41  O        -19.9700   29.9880   34.2700 O.2    49  ARG49      -0.2733
     42  CB       -17.0530   30.3710   35.9290 C.3    49  ARG49       0.0321
     43  CG       -15.8940   31.2090   36.4090 C.3    49  ARG49       0.0489
     44  CD       -15.1190   30.5460   37.5280 C.3    49  ARG49       0.2205
     45  NE       -14.5020   29.3030   37.0790 N.pl3  49  ARG49      -0.0865
     46  CZ       -13.8490   28.4370   37.8470 C.cat  49  ARG49       0.5346
     47  NH1      -13.7030   28.6580   39.1320 N.pl3  49  ARG49       0.1354
     48  NH2      -13.3480   27.3110   37.3220 N.pl3  49  ARG49       0.1354
     49  N        -18.1300   29.6610   32.9810 N.am   50  PRO50      -0.2718
     50  CA       -18.8530   28.9960   31.9260 C.3    50  PRO50       0.1535
     51  C        -19.5380   27.6880   32.2250 C.2    50  PRO50       0.2598
     52  O        -20.5260   27.3420   31.5290 O.2    50  PRO50      -0.2715
     53  CB       -17.8120   28.8060   30.8050 C.3    50  PRO50       0.0310
     54  CG       -16.5190   29.1780   31.3330 C.3    50  PRO50       0.0237
     55  CD       -16.7300   29.9540   32.6110 C.3    50  PRO50       0.0939
     56  N        -19.0960   26.9600   33.2360 N.am   51  ASP51      -0.1972
     57  CA       -19.8350   25.7480   33.6440 C.3    51  ASP51       0.1709
     58  C        -21.2550   26.0290   34.1090 C.2    51  ASP51       0.2293
     59  O        -22.0650   25.1520   34.1380 O.2    51  ASP51      -0.2864
     60  CB       -19.1110   24.9880   34.7420 C.3    51  ASP51       0.1436
     61  CG       -18.0140   24.0970   34.2060 C.2    51  ASP51       0.3671
     62  OD1      -18.1770   23.5900   33.0560 O.co2  51  ASP51      -0.2456
     63  OD2      -16.9870   23.9170   34.9380 O.co2  51  ASP51      -0.2456
     64  N        -11.9020   27.3910   22.8410 N.3    94  ASN94      -0.1240
     65  CA       -12.6310   26.1500   22.9950 C.3    94  ASN94       0.1653
     66  C        -13.7830   26.1910   21.9820 C.2    94  ASN94       0.2266
     67  O        -14.5750   27.1180   21.9860 O.2    94  ASN94      -0.2867
     68  CB       -13.1380   26.0130   24.4460 C.3    94  ASN94       0.1155
     69  CG       -12.0080   25.8230   25.4310 C.2    94  ASN94       0.2627
     70  OD1      -11.3340   24.7870   25.4210 O.2    94  ASN94      -0.2716
     71  ND2      -11.7170   26.8540   26.2260 N.am   94  ASN94      -0.0877
     72  N         -8.2930   18.6930   23.9290 N.3   156  ASP156     -0.1225
     73  CA        -8.4150   19.1770   25.3240 C.3   156  ASP156      0.1805
     74  C         -8.8630   18.0630   26.2390 C.2   156  ASP156      0.2597
     75  O         -9.3690   17.0440   25.7420 O.2   156  ASP156     -0.2718
     76  CB        -9.5320   20.2450   25.3740 C.3   156  ASP156      0.1424
     77  CG        -9.2640   21.3010   26.3540 C.2   156  ASP156      0.3668
     78  OD1       -8.1690   21.2680   26.9940 O.co2 156  ASP156     -0.2456
     79  OD2      -10.1530   22.1650   26.4830 O.co2 156  ASP156     -0.2456
     80  N         -8.6750   18.2740   27.5560 N.am  157  ASP157     -0.1974
     81  CA        -9.0210   17.2860   28.5960 C.3   157  ASP157      0.1709
     82  C         -8.5080   15.8680   28.2410 C.2   157  ASP157      0.2293
     83  O         -9.1910   14.8910   28.4660 O.2   157  ASP157     -0.2864
     84  CB       -10.5630   17.2390   28.8280 C.3   157  ASP157      0.1436
     85  CG       -11.1790   18.6400   29.0520 C.2   157  ASP157      0.3671
     86  OD1      -10.6840   19.4250   29.9250 O.co2 157  ASP157     -0.2456
     87  OD2      -12.1300   18.9650   28.3200 O.co2 157  ASP157     -0.2456
     88  N         -6.5220   18.3140   33.8140 N.3   180  GLN180     -0.1245
     89  CA        -6.0020   18.7390   35.0750 C.3   180  GLN180      0.1566
     90  C         -6.1320   17.7610   36.2270 C.2   180  GLN180      0.2260
     91  O         -5.3480   17.8710   37.1580 O.2   180  GLN180     -0.2867
     92  CB        -6.5460   20.1180   35.4370 C.3   180  GLN180      0.0367
     93  CG        -7.9710   20.1970   35.8710 C.3   180  GLN180      0.0905
     94  CD        -8.3890   21.6530   35.9730 C.2   180  GLN180      0.2608
     95  OE1       -8.3750   22.3700   34.9660 O.2   180  GLN180     -0.2717
     96  NE2       -8.7580   22.0970   37.1730 N.am  180  GLN180     -0.0878
     97  N         -2.3710   20.9760   31.7890 N.3   213  GLU213     -0.1231
     98  CA        -3.2570   21.8990   32.4490 C.3   213  GLU213      0.1699
     99  C         -3.3250   21.5950   33.9410 C.2   213  GLU213      0.2592
    100  O         -3.2100   20.4540   34.3600 O.2   213  GLU213     -0.2718
    101  CB        -4.6900   21.7470   31.9550 C.3   213  GLU213      0.0402
    102  CG        -4.9710   21.6310   30.4660 C.3   213  GLU213      0.1161
    103  CD        -6.4400   21.1430   30.2720 C.2   213  GLU213      0.3649
    104  OE1       -7.2820   21.6930   31.0310 O.co2 213  GLU213     -0.2457
    105  OE2       -6.7640   20.2140   29.4470 O.co2 213  GLU213     -0.2457
    106  N         -3.5920   22.6240   34.7380 N.am  214  GLY214     -0.1957
    107  CA        -3.8130   22.4750   36.1510 C.3   214  GLY214      0.1869
    108  C         -2.5640   22.4860   36.9840 C.2   214  GLY214      0.2309
    109  O         -2.5660   22.0020   38.0870 O.2   214  GLY214     -0.2863
    110  N         -0.5260   23.7070   39.4910 N.3   216  GLU216     -0.1245
    111  CA        -0.6830   24.5470   40.6830 C.3   216  GLU216      0.1567
    112  C          0.5500   24.5850   41.5770 C.2   216  GLU216      0.2260
    113  O          0.7430   25.5890   42.2800 O.2   216  GLU216     -0.2867
    114  CB        -1.8380   24.0360   41.5130 C.3   216  GLU216      0.0388
    115  CG        -3.1570   24.0930   40.8120 C.3   216  GLU216      0.1160
    116  CD        -4.3120   23.7760   41.7690 C.2   216  GLU216      0.3649
    117  OE1       -4.0560   23.2540   42.8860 O.co2 216  GLU216     -0.2457
    118  OE2       -5.4820   24.0650   41.4160 O.co2 216  GLU216     -0.2457
    119  N          0.1100   25.1060   31.8700 N.3   233  GLN233     -0.1231
    120  CA        -0.9260   26.0470   32.1450 C.3   233  GLN233      0.1698
    121  C         -1.4610   25.7140   33.5320 C.2   233  GLN233      0.2593
    122  O         -1.6240   24.5650   33.8460 O.2   233  GLN233     -0.2718
    123  CB        -2.0010   25.8210   31.1100 C.3   233  GLN233      0.0381
    124  CG        -3.0390   26.8890   30.8980 C.3   233  GLN233      0.0905
    125  CD        -4.1090   26.4350   29.8880 C.2   233  GLN233      0.2608
    126  OE1       -3.8010   25.7020   28.9640 O.2   233  GLN233     -0.2717
    127  NE2       -5.3530   26.8160   30.1010 N.am  233  GLN233     -0.0878
    128  N         -1.8100   26.7130   34.3270 N.am  234  GLY234     -0.1942
    129  CA        -2.5100   26.4930   35.5800 C.3   234  GLY234      0.2014
    130  C         -2.2960   27.6310   36.5420 C.2   234  GLY234      0.2638
    131  O         -1.6530   28.6300   36.2030 O.2   234  GLY234     -0.2714
    132  N         -2.8070   27.5200   37.7600 N.am  235  TYR235     -0.1973
    133  CA        -2.7570   28.6900   38.6710 C.3   235  TYR235      0.1639
    134  C         -1.3560   29.0520   39.0260 C.2   235  TYR235      0.2290
    135  O         -1.0440   30.1920   39.2350 O.2   235  TYR235     -0.2864
    136  CB        -3.6170   28.4700   39.9090 C.3   235  TYR235      0.0560
    137  CG        -5.1260   28.4340   39.6590 C.ar  235  TYR235     -0.0198
    138  CD1       -5.6820   28.6900   38.3980 C.ar  235  TYR235     -0.0009
    139  CD2       -5.9980   28.1170   40.6980 C.ar  235  TYR235     -0.0009
    140  CE1       -7.0580   28.6550   38.1990 C.ar  235  TYR235      0.0417
    141  CE2       -7.3780   28.0650   40.5050 C.ar  235  TYR235      0.0417
    142  CZ        -7.8990   28.3410   39.2470 C.ar  235  TYR235      0.1957
    143  OH        -9.2550   28.2820   39.0380 O.3   235  TYR235     -0.2866
    144  N         -6.8420   32.5870   34.9920 N.3   240  PRO240     -0.2116
    145  CA        -7.5220   33.3940   33.9250 C.3   240  PRO240      0.1372
    146  C         -7.7100   34.8500   34.3550 C.2   240  PRO240      0.2244
    147  O         -8.0970   35.0980   35.4760 O.2   240  PRO240     -0.2868
    148  CB        -8.8820   32.7110   33.7650 C.3   240  PRO240      0.0268
    149  CG        -8.6280   31.2960   34.2660 C.3   240  PRO240      0.0207
    150  CD        -7.6350   31.4160   35.3890 C.3   240  PRO240      0.0892
@<TRIPOS>BOND
     1    66    67    2
     2    66    65    1
     3    64    65    1
     4    65    68    1
     5    72    73    1
     6    68    69    1
     7    73    76    1
     8    73    74    1
     9    76    77    1
    10    70    69    2
    11    69    71   am
    12    75    74    2
    13    74    80   am
    14    11    10    1
    15    11    12    1
    16    11    14    1
    17    77    79   ar
    18    77    78   ar
    19    12    13    2
    20    15    14    1
    21    15    16    1
    22    18    16   ar
    23    16    17   ar
    24    19    20    1
    25    80    81    1
    26    82    83    2
    27    82    81    1
    28    20    21    1
    29    20    23    1
    30    87    85   ar
    31    21    22    2
    32    81    84    1
    33    84    85    1
    34   126   125    2
    35    85    86   ar
    36     4     3    2
    37    26    24    1
    38   105   103   ar
    39    23    24    1
    40    24    25    1
    41   125   127   am
    42   125   124    1
    43    30    29    2
    44     1     2    1
    45    27    28    1
    46     3     2    1
    47   103   102    1
    48   103   104   ar
    49   102   101    1
    50    53    54    1
    51    53    50    1
    52     2     5    1
    53   124   123    1
    54    29    28    1
    55   123   120    1
    56    28    31    1
    57    54    55    1
    58     5     6    1
    59    52    51    2
    60    97    98    1
    61   119   120    1
    62    50    51    1
    63    50    49    1
    64   101    98    1
    65    31    32    1
    66   120   121    1
    67    51    56   am
    68     6     7    1
    69    98    99    1
    70    32    33    1
    71     8     7    2
    72    36    35    1
    73    55    49    1
    74    49    40   am
    75    62    61   ar
    76     7     9   am
    77    56    57    1
    78   121   122    2
    79   121   128   am
    80    33    34    1
    81    35    34    2
    82    35    37    1
    83    57    58    1
    84    57    60    1
    85   148   145    1
    86   148   149    1
    87    88    89    1
    88   145   146    1
    89   145   144    1
    90    99   100    2
    91    99   106   am
    92    40    41    2
    93    40    39    1
    94    58    59    2
    95    61    60    1
    96    61    63   ar
    97   149   150    1
    98   128   129    1
    99   146   147    2
   100   106   107    1
   101    39    38    1
   102    39    42    1
   103    95    94    2
   104   144   150    1
   105    89    92    1
   106    89    90    1
   107    92    93    1
   108   129   130    1
   109    93    94    1
   110    42    43    1
   111    94    96   am
   112   107   108    1
   113   131   130    2
   114    90    91    2
   115    43    44    1
   116   130   132   am
   117   108   109    2
   118    45    44    1
   119    45    46    2
   120    48    46    1
   121   132   133    1
   122    46    47    1
   123   140   138   ar
   124   140   142   ar
   125   138   137   ar
   126   133   134    1
   127   133   136    1
   128   134   135    2
   129   143   142    1
   130   142   141   ar
   131   110   111    1
   132   137   136    1
   133   137   139   ar
   134   141   139   ar
   135   111   114    1
   136   111   112    1
   137   115   114    1
   138   115   116    1
   139   118   116   ar
   140   112   113    2
   141   116   117   ar
