@<TRIPOS>MOLECULE
tmp/5mfuA01.pdb
 176 168 0 0 0
SMALL
GASTEIGER

@<TRIPOS>ATOM
      1  N         -4.8560   30.7830   26.4720 N.3    35  GLU35      -0.1231
      2  CA        -6.1580   30.1950   26.2440 C.3    35  GLU35       0.1699
      3  C         -7.2540   31.2140   26.6030 C.2    35  GLU35       0.2592
      4  O         -7.2840   31.7760   27.7170 O.2    35  GLU35      -0.2718
      5  CB        -6.3320   28.8710   27.0110 C.3    35  GLU35       0.0402
      6  CG        -7.7010   28.2610   26.7060 C.3    35  GLU35       0.1161
      7  CD        -8.0180   26.9480   27.4460 C.2    35  GLU35       0.3649
      8  OE1       -7.2500   26.4980   28.3150 O.co2  35  GLU35      -0.2457
      9  OE2       -9.0840   26.3650   27.1320 O.co2  35  GLU35      -0.2457
     10  N         -8.2080   31.3760   25.7130 N.am   36  VAL36      -0.1966
     11  CA        -9.2960   32.2980   25.8910 C.3    36  VAL36       0.1727
     12  C        -10.4940   31.5950   26.4800 C.2    36  VAL36       0.2616
     13  O        -10.8930   30.5390   26.0030 O.2    36  VAL36      -0.2715
     14  CB        -9.7450   32.8910   24.5770 C.3    36  VAL36       0.0290
     15  CG1      -11.0150   33.7150   24.7880 C.3    36  VAL36       0.0023
     16  CG2       -8.6330   33.7720   23.9900 C.3    36  VAL36       0.0023
     17  N        -11.0660   32.1720   27.5240 N.am   37  LEU37      -0.1963
     18  CA       -12.1190   31.5100   28.2900 C.3    37  LEU37       0.1728
     19  C        -13.2580   32.5050   28.4360 C.2    37  LEU37       0.2616
     20  O        -13.0490   33.6330   28.7710 O.2    37  LEU37      -0.2715
     21  CB       -11.5710   31.0850   29.6520 C.3    37  LEU37       0.0311
     22  CG       -10.3560   30.1330   29.6560 C.3    37  LEU37       0.0022
     23  CD1       -9.6300   30.0680   30.9810 C.3    37  LEU37       0.0001
     24  CD2      -10.7690   28.7110   29.3080 C.3    37  LEU37       0.0001
     25  N        -14.4610   32.0730   28.1580 N.am   38  MET38      -0.1963
     26  CA       -15.6320   32.9200   28.2270 C.3    38  MET38       0.1736
     27  C        -16.0210   33.1510   29.7040 C.2    38  MET38       0.2616
     28  O        -15.9320   32.2190   30.5170 O.2    38  MET38      -0.2715
     29  CB       -16.7780   32.2470   27.4850 C.3    38  MET38       0.0427
     30  CG       -17.8900   33.2070   27.0750 C.3    38  MET38       0.0599
     31  SD       -19.1100   32.3280   26.1010 S.3    38  MET38      -0.1393
     32  CE       -18.4250   32.0150   24.4400 C.3    38  MET38       0.0692
     33  N        -16.3540   34.3970   30.0190 N.am   39  ARG39      -0.1977
     34  CA       -17.0090   34.7680   31.2460 C.3    39  ARG39       0.1597
     35  C        -18.2540   35.5410   30.9440 C.2    39  ARG39       0.2287
     36  O        -18.3320   36.1490   29.9040 O.2    39  ARG39      -0.2864
     37  CB       -16.1160   35.6110   32.1030 C.3    39  ARG39       0.0334
     38  CG       -14.7980   34.9630   32.5030 C.3    39  ARG39       0.0492
     39  CD       -15.0370   33.9520   33.5860 C.3    39  ARG39       0.2205
     40  NE       -13.8270   33.2760   34.0760 N.pl3  39  ARG39      -0.0865
     41  CZ       -13.3550   32.1160   33.6380 C.cat  39  ARG39       0.5346
     42  NH1      -13.8790   31.4890   32.5940 N.pl3  39  ARG39       0.1354
     43  NH2      -12.3420   31.5600   34.2650 N.pl3  39  ARG39       0.1354
     44  N        -18.8350   32.0220   35.6440 N.3    49  ARG49      -0.1231
     45  CA       -17.9370   31.1230   34.9320 C.3    49  ARG49       0.1679
     46  C        -18.7580   30.1950   34.0340 C.2    49  ARG49       0.2434
     47  O        -19.9700   29.9880   34.2700 O.2    49  ARG49      -0.2733
     48  CB       -17.0530   30.3710   35.9290 C.3    49  ARG49       0.0321
     49  CG       -15.8940   31.2090   36.4090 C.3    49  ARG49       0.0489
     50  CD       -15.1190   30.5460   37.5280 C.3    49  ARG49       0.2205
     51  NE       -14.5020   29.3030   37.0790 N.pl3  49  ARG49      -0.0865
     52  CZ       -13.8490   28.4370   37.8470 C.cat  49  ARG49       0.5346
     53  NH1      -13.7030   28.6580   39.1320 N.pl3  49  ARG49       0.1354
     54  NH2      -13.3480   27.3110   37.3220 N.pl3  49  ARG49       0.1354
     55  N        -18.1300   29.6610   32.9810 N.am   50  PRO50      -0.2718
     56  CA       -18.8530   28.9960   31.9260 C.3    50  PRO50       0.1535
     57  C        -19.5380   27.6880   32.2250 C.2    50  PRO50       0.2598
     58  O        -20.5260   27.3420   31.5290 O.2    50  PRO50      -0.2715
     59  CB       -17.8120   28.8060   30.8050 C.3    50  PRO50       0.0310
     60  CG       -16.5190   29.1780   31.3330 C.3    50  PRO50       0.0237
     61  CD       -16.7300   29.9540   32.6110 C.3    50  PRO50       0.0939
     62  N        -19.0960   26.9600   33.2360 N.am   51  ASP51      -0.1972
     63  CA       -19.8350   25.7480   33.6440 C.3    51  ASP51       0.1709
     64  C        -21.2550   26.0290   34.1090 C.2    51  ASP51       0.2293
     65  O        -22.0650   25.1520   34.1380 O.2    51  ASP51      -0.2864
     66  CB       -19.1110   24.9880   34.7420 C.3    51  ASP51       0.1436
     67  CG       -18.0140   24.0970   34.2060 C.2    51  ASP51       0.3671
     68  OD1      -18.1770   23.5900   33.0560 O.co2  51  ASP51      -0.2456
     69  OD2      -16.9870   23.9170   34.9380 O.co2  51  ASP51      -0.2456
     70  N        -22.7060   27.5750   29.7870 N.3    54  ILE54      -0.1245
     71  CA       -22.3890   27.0390   28.4400 C.3    54  ILE54       0.1561
     72  C        -23.2860   25.8260   28.0660 C.2    54  ILE54       0.2260
     73  O        -23.6990   25.6740   26.8850 O.2    54  ILE54      -0.2867
     74  CB       -20.8900   26.6680   28.2930 C.3    54  ILE54       0.0252
     75  CG1      -20.0200   27.9320   28.3450 C.3    54  ILE54       0.0019
     76  CG2      -20.6340   25.7860   27.0630 C.3    54  ILE54       0.0019
     77  CD1      -19.8280   28.6550   27.0620 C.3    54  ILE54       0.0001
     78  N        -25.4180   25.6120   24.7360 N.3    58  GLU58      -0.1245
     79  CA       -25.4330   24.5060   23.7670 C.3    58  GLU58       0.1567
     80  C        -26.8280   23.9510   23.4370 C.2    58  GLU58       0.2260
     81  O        -27.1600   23.7630   22.2680 O.2    58  GLU58      -0.2867
     82  CB       -24.4690   23.3830   24.2170 C.3    58  GLU58       0.0388
     83  CG       -23.0420   23.7560   23.8310 C.3    58  GLU58       0.1160
     84  CD       -21.9330   22.8800   24.4210 C.2    58  GLU58       0.3649
     85  OE1      -22.1630   22.2210   25.4600 O.co2  58  GLU58      -0.2457
     86  OE2      -20.8040   22.8880   23.8420 O.co2  58  GLU58      -0.2457
     87  N        -24.4980   28.7680   21.4420 N.3    63  ILE63      -0.1245
     88  CA       -23.0450   28.7160   21.6850 C.3    63  ILE63       0.1561
     89  C        -22.1910   29.2550   20.4840 C.2    63  ILE63       0.2260
     90  O        -21.2400   30.0080   20.6910 O.2    63  ILE63      -0.2867
     91  CB       -22.5750   27.3320   22.2110 C.3    63  ILE63       0.0252
     92  CG1      -21.1200   27.3880   22.7110 C.3    63  ILE63       0.0019
     93  CG2      -22.7020   26.2700   21.1190 C.3    63  ILE63       0.0019
     94  CD1      -20.7720   28.4880   23.7050 C.3    63  ILE63       0.0001
     95  N        -19.5440   32.2110   20.6610 N.3    67  THR67      -0.1218
     96  CA       -18.1560   31.9850   20.2960 C.3    67  THR67       0.1862
     97  C        -17.6150   32.9910   19.2810 C.2    67  THR67       0.2287
     98  O        -16.5060   33.4780   19.4540 O.2    67  THR67      -0.2866
     99  CB       -17.9550   30.5660   19.7390 C.3    67  THR67       0.1770
    100  OG1      -18.3040   29.6510   20.7710 O.3    67  THR67      -0.2211
    101  CG2      -16.4410   30.2940   19.3000 C.3    67  THR67       0.0375
    102  N        -16.9560   36.2330   20.8850 N.3    70  LEU70      -0.1245
    103  CA       -15.6940   36.1550   21.6450 C.3    70  LEU70       0.1561
    104  C        -14.4710   36.3250   20.7610 C.2    70  LEU70       0.2260
    105  O        -13.5270   37.0620   21.0730 O.2    70  LEU70      -0.2867
    106  CB       -15.6120   34.8080   22.3610 C.3    70  LEU70       0.0270
    107  CG       -14.7610   34.7330   23.5710 C.3    70  LEU70       0.0019
    108  CD1      -15.4610   35.4890   24.7050 C.3    70  LEU70       0.0001
    109  CD2      -14.5500   33.2600   23.9130 C.3    70  LEU70       0.0001
    110  N         -8.9670   28.8650   21.5730 N.3    93  PHE93      -0.1227
    111  CA       -10.4020   28.9270   21.7840 C.3    93  PHE93       0.1736
    112  C        -10.9840   27.5430   21.9060 C.2    93  PHE93       0.2595
    113  O        -10.5940   26.6150   21.1600 O.2    93  PHE93      -0.2718
    114  CB       -11.0890   29.5270   20.5830 C.3    93  PHE93       0.0547
    115  CG       -10.8500   30.9950   20.4420 C.ar   93  PHE93      -0.0202
    116  CD1      -11.6870   31.9180   21.0740 C.ar   93  PHE93      -0.0042
    117  CD2       -9.7650   31.4480   19.7040 C.ar   93  PHE93      -0.0042
    118  CE1      -11.4270   33.2860   20.9650 C.ar   93  PHE93      -0.0003
    119  CE2       -9.5130   32.8100   19.5810 C.ar   93  PHE93      -0.0003
    120  CZ       -10.3220   33.7350   20.2470 C.ar   93  PHE93      -0.0000
    121  N        -11.9020   27.3910   22.8410 N.am   94  ASN94      -0.1960
    122  CA       -12.6310   26.1500   22.9950 C.3    94  ASN94       0.1819
    123  C        -13.7830   26.1910   21.9820 C.2    94  ASN94       0.2621
    124  O        -14.5750   27.1180   21.9860 O.2    94  ASN94      -0.2715
    125  CB       -13.1380   26.0130   24.4460 C.3    94  ASN94       0.1195
    126  CG       -12.0080   25.8230   25.4310 C.2    94  ASN94       0.2630
    127  OD1      -11.3340   24.7870   25.4210 O.2    94  ASN94      -0.2716
    128  ND2      -11.7170   26.8540   26.2260 N.am   94  ASN94      -0.0877
    129  N        -13.8900   25.1800   21.1480 N.am   95  ILE95      -0.1963
    130  CA       -14.9350   25.1360   20.1300 C.3    95  ILE95       0.1727
    131  C        -15.8910   24.0360   20.4650 C.2    95  ILE95       0.2616
    132  O        -15.4710   22.9290   20.7530 O.2    95  ILE95      -0.2715
    133  CB       -14.3400   24.8610   18.7300 C.3    95  ILE95       0.0290
    134  CG1      -13.3670   25.9720   18.3840 C.3    95  ILE95       0.0022
    135  CG2      -15.4010   24.8790   17.6740 C.3    95  ILE95       0.0023
    136  CD1      -13.9900   27.3790   18.3210 C.3    95  ILE95       0.0001
    137  N        -17.1650   24.3580   20.4390 N.am   96  SER96      -0.1950
    138  CA       -18.2210   23.3740   20.6740 C.3    96  SER96       0.1924
    139  C        -18.3920   22.4840   19.4500 C.2    96  SER96       0.2314
    140  O        -18.0120   22.8580   18.3280 O.2    96  SER96      -0.2863
    141  CB       -19.5470   24.0820   21.0080 C.3    96  SER96       0.2116
    142  OG       -20.1300   24.7140   19.8640 O.3    96  SER96      -0.2180
    143  N        -13.7240   14.4660   25.5420 N.3   130  ARG130     -0.1245
    144  CA       -14.9690   13.8880   26.0980 C.3   130  ARG130      0.1563
    145  C        -16.0410   13.5480   25.0400 C.2   130  ARG130      0.2260
    146  O        -16.4890   12.3990   24.9690 O.2   130  ARG130     -0.2867
    147  CB       -15.5490   14.8180   27.1590 C.3   130  ARG130      0.0307
    148  CG       -14.6890   14.9010   28.4050 C.3   130  ARG130      0.0489
    149  CD       -15.2230   15.9470   29.3610 C.3   130  ARG130      0.2205
    150  NE       -14.4140   16.0220   30.5760 N.pl3 130  ARG130     -0.0865
    151  CZ       -14.6000   16.8950   31.5660 C.cat 130  ARG130      0.5346
    152  NH1      -15.5790   17.8050   31.5090 N.pl3 130  ARG130      0.1354
    153  NH2      -13.7950   16.8590   32.6260 N.pl3 130  ARG130      0.1354
    154  N         -8.2930   18.6930   23.9290 N.3   156  ASP156     -0.1225
    155  CA        -8.4150   19.1770   25.3240 C.3   156  ASP156      0.1805
    156  C         -8.8630   18.0630   26.2390 C.2   156  ASP156      0.2597
    157  O         -9.3690   17.0440   25.7420 O.2   156  ASP156     -0.2718
    158  CB        -9.5320   20.2450   25.3740 C.3   156  ASP156      0.1424
    159  CG        -9.2640   21.3010   26.3540 C.2   156  ASP156      0.3668
    160  OD1       -8.1690   21.2680   26.9940 O.co2 156  ASP156     -0.2456
    161  OD2      -10.1530   22.1650   26.4830 O.co2 156  ASP156     -0.2456
    162  N         -8.6750   18.2740   27.5560 N.am  157  ASP157     -0.1974
    163  CA        -9.0210   17.2860   28.5960 C.3   157  ASP157      0.1709
    164  C         -8.5080   15.8680   28.2410 C.2   157  ASP157      0.2293
    165  O         -9.1910   14.8910   28.4660 O.2   157  ASP157     -0.2864
    166  CB       -10.5630   17.2390   28.8280 C.3   157  ASP157      0.1436
    167  CG       -11.1790   18.6400   29.0520 C.2   157  ASP157      0.3671
    168  OD1      -10.6840   19.4250   29.9250 O.co2 157  ASP157     -0.2456
    169  OD2      -12.1300   18.9650   28.3200 O.co2 157  ASP157     -0.2456
    170  N         -6.8420   32.5870   34.9920 N.3   240  PRO240     -0.2116
    171  CA        -7.5220   33.3940   33.9250 C.3   240  PRO240      0.1372
    172  C         -7.7100   34.8500   34.3550 C.2   240  PRO240      0.2244
    173  O         -8.0970   35.0980   35.4760 O.2   240  PRO240     -0.2868
    174  CB        -8.8820   32.7110   33.7650 C.3   240  PRO240      0.0268
    175  CG        -8.6280   31.2960   34.2660 C.3   240  PRO240      0.0207
    176  CD        -7.6350   31.4160   35.3890 C.3   240  PRO240      0.0892
@<TRIPOS>BOND
     1   135   133    1
     2   136   134    1
     3   140   139    2
     4   134   133    1
     5   133   130    1
     6    97    98    2
     7    97    96    1
     8   101    99    1
     9   139   138    1
    10   119   117   ar
    11   119   120   ar
    12   117   115   ar
    13    99    96    1
    14    99   100    1
    15   142   141    1
    16   130   131    1
    17   130   129    1
    18   120   118   ar
    19    96    95    1
    20   137   131   am
    21   137   138    1
    22   115   114    1
    23   115   116   ar
    24   131   132    2
    25    89    90    2
    26    89    88    1
    27   114   111    1
    28   138   141    1
    29   104   105    2
    30   104   103    1
    31   102   103    1
    32   118   116   ar
    33    93    91    1
    34   129   123   am
    35   113   112    2
    36    87    88    1
    37   110   111    1
    38   103   106    1
    39    88    91    1
    40   111   112    1
    41   112   121   am
    42   123   124    2
    43   123   122    1
    44    91    92    1
    45    81    80    2
    46   106   107    1
    47    92    94    1
    48   121   122    1
    49   122   125    1
    50    80    79    1
    51   107   109    1
    52   107   108    1
    53    79    82    1
    54    79    78    1
    55    83    82    1
    56    83    84    1
    57    86    84   ar
    58   154   155    1
    59    16    14    1
    60    84    85   ar
    61    32    31    1
    62   125   126    1
    63    14    15    1
    64    14    11    1
    65   146   145    2
    66   145   144    1
    67   155   158    1
    68   155   156    1
    69   158   159    1
    70   127   126    2
    71   126   128   am
    72   143   144    1
    73    10    11    1
    74    10     3   am
    75   157   156    2
    76    11    12    1
    77    13    12    2
    78   144   147    1
    79    31    30    1
    80   156   162   am
    81     2     1    1
    82     2     3    1
    83     2     5    1
    84   159   161   ar
    85   159   160   ar
    86    12    17   am
    87     3     4    2
    88     6     5    1
    89     6     7    1
    90    73    72    2
    91    77    75    1
    92    76    74    1
    93    30    29    1
    94     9     7   ar
    95   147   148    1
    96     7     8   ar
    97    29    26    1
    98    17    18    1
    99   162   163    1
   100    72    71    1
   101    25    26    1
   102    25    19   am
   103    26    27    1
   104   164   165    2
   105   164   163    1
   106    18    19    1
   107    18    21    1
   108    74    75    1
   109    74    71    1
   110   169   167   ar
   111   148   149    1
   112    19    20    2
   113    71    70    1
   114   163   166    1
   115   166   167    1
   116   167   168   ar
   117    24    22    1
   118   149   150    1
   119    21    22    1
   120    22    23    1
   121    27    33   am
   122    27    28    2
   123    36    35    2
   124    33    34    1
   125   150   151    2
   126    59    60    1
   127    59    56    1
   128    35    34    1
   129    34    37    1
   130    60    61    1
   131   152   151    1
   132    58    57    2
   133   151   153    1
   134    56    57    1
   135    56    55    1
   136    37    38    1
   137    57    62   am
   138    38    39    1
   139    42    41    1
   140    61    55    1
   141    55    46   am
   142    68    67   ar
   143    62    63    1
   144    39    40    1
   145    41    40    2
   146    41    43    1
   147    63    64    1
   148    63    66    1
   149   174   171    1
   150   174   175    1
   151   171   172    1
   152   171   170    1
   153    46    47    2
   154    46    45    1
   155    64    65    2
   156    67    66    1
   157    67    69   ar
   158   175   176    1
   159   172   173    2
   160    45    44    1
   161    45    48    1
   162   170   176    1
   163    48    49    1
   164    49    50    1
   165    51    50    1
   166    51    52    2
   167    54    52    1
   168    52    53    1
