@<TRIPOS>MOLECULE
tmp/5mfxA01.pdb
 126 121 0 0 0
SMALL
GASTEIGER

@<TRIPOS>ATOM
      1  N          1.9280    0.1110   -8.2410 N.3    13  HIS13      -0.1227
      2  CA         0.9410   -0.8780   -7.8790 C.3    13  HIS13       0.1737
      3  C         -0.3200   -0.2880   -7.2860 C.2    13  HIS13       0.2438
      4  O         -0.3380    0.8760   -6.8430 O.2    13  HIS13      -0.2733
      5  CB         1.5420   -1.9400   -6.9890 C.3    13  HIS13       0.0758
      6  CG         1.8750   -1.4810   -5.5980 C.ar   13  HIS13       0.0818
      7  ND1        0.9140   -1.2540   -4.6360 N.ar   13  HIS13      -0.2268
      8  CD2        3.0750   -1.2790   -4.9910 C.ar   13  HIS13       0.1154
      9  CE1        1.5020   -0.9190   -3.4970 C.ar   13  HIS13       0.1986
     10  NE2        2.8120   -0.9090   -3.6910 N.ar   13  HIS13      -0.2212
     11  N         -1.4200   -1.0520   -7.3220 N.am   14  PRO14      -0.2718
     12  CA        -2.6400   -0.4600   -6.7500 C.3    14  PRO14       0.1535
     13  C         -2.4110   -0.0550   -5.2780 C.2    14  PRO14       0.2599
     14  O         -1.8130   -0.8320   -4.5650 O.2    14  PRO14      -0.2715
     15  CB        -3.6590   -1.6060   -6.8660 C.3    14  PRO14       0.0310
     16  CG        -3.1680   -2.3860   -8.0450 C.3    14  PRO14       0.0237
     17  CD        -1.6710   -2.3880   -7.8710 C.3    14  PRO14       0.0939
     18  N         -2.8720    1.1300   -4.8580 N.am   15  GLY15      -0.1941
     19  CA        -2.6810    1.5940   -3.4920 C.3    15  GLY15       0.2014
     20  C         -1.3580    2.2900   -3.2180 C.2    15  GLY15       0.2639
     21  O         -1.1260    2.7420   -2.0930 O.2    15  GLY15      -0.2714
     22  N         -0.5150    2.4390   -4.2250 N.am   16  ALA16      -0.1963
     23  CA         0.7990    3.0340   -4.0210 C.3    16  ALA16       0.1728
     24  C          0.7740    4.5660   -4.0850 C.2    16  ALA16       0.2617
     25  O          1.8240    5.1880   -3.9130 O.2    16  ALA16      -0.2715
     26  CB         1.7760    2.4950   -5.0520 C.3    16  ALA16       0.0334
     27  N         -0.3780    5.1720   -4.3420 N.am   17  GLY17      -0.1940
     28  CA        -0.5030    6.6480   -4.3120 C.3    17  GLY17       0.2014
     29  C         -0.1710    7.3650   -5.6170 C.2    17  GLY17       0.2639
     30  O          0.3300    8.5030   -5.6030 O.2    17  GLY17      -0.2714
     31  N         -0.4480    6.7030   -6.7320 N.am   18  LYS18      -0.1963
     32  CA        -0.2960    7.2500   -8.0950 C.3    18  LYS18       0.1728
     33  C         -0.8750    8.6680   -8.2000 C.2    18  LYS18       0.2617
     34  O         -0.2110    9.5780   -8.6800 O.2    18  LYS18      -0.2715
     35  CB        -1.0350    6.3090   -9.0310 C.3    18  LYS18       0.0311
     36  CG        -0.7870    6.4110  -10.5010 C.3    18  LYS18       0.0038
     37  CD        -1.1080    5.0570  -11.1730 C.3    18  LYS18       0.0206
     38  CE        -2.5270    4.5420  -10.8600 C.3    18  LYS18       0.1093
     39  NZ        -3.6330    5.5470  -11.0330 N.3    18  LYS18      -0.1314
     40  N         -2.1100    8.8400   -7.7540 N.am   19  THR19      -0.1937
     41  CA        -2.8140   10.1200   -7.8430 C.3    19  THR19       0.2028
     42  C         -2.5370   10.9990   -6.6240 C.2    19  THR19       0.2642
     43  O         -2.2840   12.1770   -6.7760 O.2    19  THR19      -0.2714
     44  CB        -4.3330    9.8680   -8.0230 C.3    19  THR19       0.1808
     45  OG1       -4.4960    9.2330   -9.2870 O.3    19  THR19      -0.2208
     46  CG2       -5.1450   11.1620   -7.9810 C.3    19  THR19       0.0379
     47  N         -2.5790   10.4300   -5.4140 N.am   20  ARG20      -0.1977
     48  CA        -2.5110   11.2430   -4.1890 C.3    20  ARG20       0.1597
     49  C         -1.0960   11.7390   -3.8960 C.2    20  ARG20       0.2287
     50  O         -0.9310   12.8060   -3.3050 O.2    20  ARG20      -0.2864
     51  CB        -3.0920   10.4460   -2.9950 C.3    20  ARG20       0.0334
     52  CG        -4.5680   10.1620   -3.0870 C.3    20  ARG20       0.0492
     53  CD        -5.3670   11.2420   -2.3840 C.3    20  ARG20       0.2205
     54  NE        -6.8040   11.0070   -2.4780 N.pl3  20  ARG20      -0.0865
     55  CZ        -7.5980   11.5380   -3.4050 C.cat  20  ARG20       0.5346
     56  NH1       -7.1130   12.3610   -4.3380 N.pl3  20  ARG20       0.1354
     57  NH2       -8.8880   11.2320   -3.4090 N.pl3  20  ARG20       0.1354
     58  N         -3.3920    5.7800  -15.6410 N.3   104  GLU104     -0.1245
     59  CA        -4.0220    4.5350  -16.0950 C.3   104  GLU104      0.1567
     60  C         -3.7280    4.2360  -17.5800 C.2   104  GLU104      0.2260
     61  O         -4.6030    4.0440  -18.4450 O.2   104  GLU104     -0.2867
     62  CB        -5.5090    4.5440  -15.7600 C.3   104  GLU104      0.0388
     63  CG        -5.8550    4.8440  -14.3000 C.3   104  GLU104      0.1160
     64  CD        -5.3010    3.8620  -13.2770 C.2   104  GLU104      0.3649
     65  OE1       -4.5430    2.9570  -13.6410 O.co2 104  GLU104     -0.2457
     66  OE2       -5.6120    4.0430  -12.0750 O.co2 104  GLU104     -0.2457
     67  N        -13.0560   -0.9440  -12.1710 N.3   231  GLU231     -0.1231
     68  CA       -11.6290   -1.1030  -12.3690 C.3   231  GLU231      0.1699
     69  C        -10.8190    0.1830  -12.2430 C.2   231  GLU231      0.2592
     70  O         -9.6090    0.1110  -11.9980 O.2   231  GLU231     -0.2718
     71  CB       -11.3320   -1.7460  -13.7180 C.3   231  GLU231      0.0402
     72  CG       -11.7360   -3.1880  -13.8090 C.3   231  GLU231      0.1161
     73  CD       -11.3060   -3.8850  -15.0870 C.2   231  GLU231      0.3649
     74  OE1      -10.4750   -3.3380  -15.8840 O.co2 231  GLU231     -0.2457
     75  OE2      -11.8640   -4.9930  -15.3410 O.co2 231  GLU231     -0.2457
     76  N        -11.4510    1.3400  -12.4240 N.am  232  MET232     -0.1965
     77  CA       -10.7830    2.6120  -12.2870 C.3   232  MET232      0.1736
     78  C        -11.7090    3.5540  -11.5380 C.2   232  MET232      0.2617
     79  O        -12.9270    3.4520  -11.6660 O.2   232  MET232     -0.2715
     80  CB       -10.4410    3.2250  -13.6350 C.3   232  MET232      0.0427
     81  CG        -9.4050    2.4440  -14.4230 C.3   232  MET232      0.0599
     82  SD        -9.0040    3.2260  -15.9850 S.3   232  MET232     -0.1393
     83  CE       -10.5550    3.2370  -16.8940 C.3   232  MET232      0.0692
     84  N        -11.1130    4.4210  -10.7300 N.am  233  GLY233     -0.1955
     85  CA       -11.8660    5.5120  -10.1010 C.3   233  GLY233      0.1869
     86  C        -12.6690    5.1010   -8.8780 C.2   233  GLY233      0.2309
     87  O        -13.3750    5.9390   -8.3350 O.2   233  GLY233     -0.2863
     88  N        -12.9210    2.9830   -5.1110 N.3   235  ASN235     -0.1240
     89  CA       -12.3560    2.2660   -4.0100 C.3   235  ASN235      0.1653
     90  C        -13.4310    1.9670   -2.9660 C.2   235  ASN235      0.2266
     91  O        -14.4960    2.6230   -2.8820 O.2   235  ASN235     -0.2867
     92  CB       -11.1150    2.9800   -3.4590 C.3   235  ASN235      0.1155
     93  CG        -9.8490    2.6270   -4.2560 C.2   235  ASN235      0.2627
     94  OD1       -9.4650    1.4630   -4.3440 O.2   235  ASN235     -0.2716
     95  ND2       -9.2270    3.6180   -4.8670 N.am  235  ASN235     -0.0877
     96  N         -6.4590   -4.8460  -11.8950 N.3   273  GLN273     -0.1245
     97  CA        -7.2720   -3.7370  -11.3850 C.3   273  GLN273      0.1566
     98  C         -8.3810   -4.2600  -10.4780 C.2   273  GLN273      0.2260
     99  O         -8.6940   -3.6140   -9.4700 O.2   273  GLN273     -0.2867
    100  CB        -7.9320   -2.9350  -12.5240 C.3   273  GLN273      0.0367
    101  CG        -7.0050   -2.1400  -13.4150 C.3   273  GLN273      0.0905
    102  CD        -6.2450   -1.0610  -12.6570 C.2   273  GLN273      0.2608
    103  OE1       -6.8310   -0.1580  -12.0260 O.2   273  GLN273     -0.2717
    104  NE2       -4.9520   -1.1320  -12.7130 N.am  273  GLN273     -0.0878
    105  N         -8.6730   -3.8430   -5.8070 N.3   277  ARG277     -0.1245
    106  CA        -9.6260   -3.2700   -4.8600 C.3   277  ARG277      0.1563
    107  C         -9.4030   -3.7140   -3.4080 C.2   277  ARG277      0.2260
    108  O         -9.9000   -3.0330   -2.5180 O.2   277  ARG277     -0.2867
    109  CB       -11.0620   -3.5820   -5.2110 C.3   277  ARG277      0.0307
    110  CG       -11.5770   -3.1300   -6.5640 C.3   277  ARG277      0.0489
    111  CD       -11.1670   -1.7190   -7.0000 C.3   277  ARG277      0.2205
    112  NE        -9.8840   -1.6990   -7.6990 N.pl3 277  ARG277     -0.0865
    113  CZ        -8.9360   -0.7640   -7.5920 C.cat 277  ARG277      0.5346
    114  NH1       -9.0890    0.2970   -6.7890 N.pl3 277  ARG277      0.1354
    115  NH2       -7.8070   -0.9040   -8.2830 N.pl3 277  ARG277      0.1354
    116  N         -5.4860   -3.2990    0.4780 N.3   280  ARG280     -0.1245
    117  CA        -5.0930   -1.8760    0.4290 C.3   280  ARG280      0.1563
    118  C         -4.6440   -1.2800    1.7680 C.2   280  ARG280      0.2260
    119  O         -4.0710   -0.1810    1.7850 O.2   280  ARG280     -0.2867
    120  CB        -6.2490   -1.0570   -0.1200 C.3   280  ARG280      0.0307
    121  CG        -6.6400   -1.4830   -1.5280 C.3   280  ARG280      0.0489
    122  CD        -7.6840   -0.5690   -2.1160 C.3   280  ARG280      0.2205
    123  NE        -7.1500    0.7580   -2.4060 N.pl3 280  ARG280     -0.0865
    124  CZ        -6.4860    1.1190   -3.5040 C.cat 280  ARG280      0.5346
    125  NH1       -6.2440    0.2680   -4.5140 N.pl3 280  ARG280      0.1354
    126  NH2       -6.1040    2.3790   -3.6190 N.pl3 280  ARG280      0.1354
@<TRIPOS>BOND
     1    61    60    2
     2    60    59    1
     3    83    82    1
     4    59    62    1
     5    59    58    1
     6    82    81    1
     7    74    73   ar
     8    62    63    1
     9    75    73   ar
    10    73    72    1
    11    81    80    1
    12    63    64    1
    13    72    71    1
    14    71    68    1
    15    65    64   ar
    16    80    77    1
    17   101   102    1
    18   101   100    1
    19    64    66   ar
    20   104   102   am
    21   102   103    2
    22   100    97    1
    23    76    77    1
    24    76    69   am
    25    68    69    1
    26    68    67    1
    27    77    78    1
    28    69    70    2
    29    96    97    1
    30    79    78    2
    31    78    84   am
    32    97    98    1
    33    37    38    1
    34    37    36    1
    35    39    38    1
    36    84    85    1
    37    36    35    1
    38    98    99    2
    39    85    86    1
    40    45    44    1
    41    35    32    1
    42    86    87    2
    43    34    33    2
    44   115   113    1
    45     1     2    1
    46    33    32    1
    47    33    40   am
    48    32    31    1
    49    16    17    1
    50    16    15    1
    51    44    46    1
    52    44    41    1
    53     2     3    1
    54     2     5    1
    55    17    11    1
    56    41    40    1
    57    41    42    1
    58   112   113    2
    59   112   111    1
    60   113   114    1
    61    11     3   am
    62    11    12    1
    63     3     4    2
    64   111   110    1
    65     5     6    1
    66    15    12    1
    67    43    42    2
    68    12    13    1
    69    31    29   am
    70    42    47   am
    71   110   109    1
    72   105   106    1
    73    29    30    2
    74    29    28    1
    75     6     8   ar
    76     6     7   ar
    77    47    48    1
    78    13    18   am
    79    13    14    2
    80   109   106    1
    81    88    89    1
    82    26    23    1
    83     8    10   ar
    84    95    93   am
    85   106   107    1
    86    18    19    1
    87     7     9   ar
    88   125   124    1
    89    94    93    2
    90    27    28    1
    91    27    24   am
    92    56    55    1
    93    93    92    1
    94    22    23    1
    95    22    20   am
    96    48    49    1
    97    48    51    1
    98    24    23    1
    99    24    25    2
   100    89    92    1
   101    89    90    1
   102    49    50    2
   103    10     9   ar
   104   126   124    1
   105   124   123    2
   106    19    20    1
   107    57    55    1
   108   107   108    2
   109    55    54    2
   110    20    21    2
   111    52    51    1
   112    52    53    1
   113    90    91    2
   114    54    53    1
   115   123   122    1
   116   122   121    1
   117   121   120    1
   118   120   117    1
   119   117   116    1
   120   117   118    1
   121   118   119    2
