@<TRIPOS>MOLECULE
tmp/5mfzA01.pdb
 160 156 0 0 0
SMALL
GASTEIGER

@<TRIPOS>ATOM
      1  N        128.5680   25.2380  -15.2780 N.3     6  LYS6       -0.1245
      2  CA       127.8460   24.5620  -16.2920 C.3     6  LYS6        0.1561
      3  C        128.4570   23.1630  -16.5660 C.2     6  LYS6        0.2260
      4  O        127.9880   22.5200  -17.4810 O.2     6  LYS6       -0.2867
      5  CB       127.9660   25.3060  -17.5980 C.3     6  LYS6        0.0271
      6  CG       127.8520   26.8240  -17.5920 C.3     6  LYS6        0.0035
      7  CD       126.4630   27.2680  -17.2450 C.3     6  LYS6        0.0206
      8  CE       126.2020   28.5840  -17.9200 C.3     6  LYS6        0.1093
      9  NZ       124.7690   28.8320  -17.8010 N.3     6  LYS6       -0.1314
     10  N        118.3820   15.4730  -21.4260 N.3    44  ALA44      -0.1245
     11  CA       118.0640   16.2680  -22.5390 C.3    44  ALA44       0.1562
     12  C        118.3310   15.6580  -23.8220 C.2    44  ALA44       0.2260
     13  O        117.7280   15.9940  -24.8400 O.2    44  ALA44      -0.2867
     14  CB       118.7500   17.6570  -22.3830 C.3    44  ALA44       0.0290
     15  N        114.9910   19.7000  -30.1460 N.3    52  ILE52      -0.1231
     16  CA       115.3080   20.4380  -28.9590 C.3    52  ILE52       0.1678
     17  C        116.7660   20.1230  -28.6810 C.2    52  ILE52       0.2434
     18  O        117.0940   18.9770  -28.3930 O.2    52  ILE52      -0.2733
     19  CB       114.4730   20.0060  -27.8330 C.3    52  ILE52       0.0265
     20  CG1      112.9680   20.2840  -28.1160 C.3    52  ILE52       0.0019
     21  CG2      114.8440   20.8010  -26.6450 C.3    52  ILE52       0.0020
     22  CD1      111.9840   19.7910  -27.0970 C.3    52  ILE52       0.0001
     23  N        117.6440   21.1490  -28.6750 N.am   53  PRO53      -0.2718
     24  CA       119.0470   20.8850  -28.3270 C.3    53  PRO53       0.1535
     25  C        119.2790   20.4840  -26.8340 C.2    53  PRO53       0.2599
     26  O        118.5090   20.8050  -25.8980 O.2    53  PRO53      -0.2715
     27  CB       119.7450   22.2260  -28.6230 C.3    53  PRO53       0.0310
     28  CG       118.6600   23.2480  -28.5180 C.3    53  PRO53       0.0237
     29  CD       117.3150   22.5640  -28.5500 C.3    53  PRO53       0.0939
     30  N        120.3360   19.7140  -26.6250 N.am   54  ASP54      -0.1958
     31  CA       120.7350   19.4240  -25.2760 C.3    54  ASP54       0.1840
     32  C        121.5950   20.6190  -24.7120 C.2    54  ASP54       0.2622
     33  O        121.6680   21.7130  -25.3160 O.2    54  ASP54      -0.2715
     34  CB       121.3960   18.0410  -25.1540 C.3    54  ASP54       0.1450
     35  CG       122.6790   17.9120  -25.9570 C.2    54  ASP54       0.3671
     36  OD1      123.2480   18.9500  -26.2420 O.co2  54  ASP54      -0.2456
     37  OD2      123.1140   16.8040  -26.2950 O.co2  54  ASP54      -0.2456
     38  N        122.1530   20.3930  -23.5340 N.am   55  PHE55      -0.1974
     39  CA       122.9150   21.3640  -22.8120 C.3    55  PHE55       0.1639
     40  C        124.4420   21.2490  -23.0540 C.2    55  PHE55       0.2290
     41  O        125.0950   22.2730  -23.2720 O.2    55  PHE55      -0.2864
     42  CB       122.5510   21.2300  -21.3210 C.3    55  PHE55       0.0560
     43  CG       121.1470   21.7750  -21.0270 C.ar   55  PHE55      -0.0200
     44  CD1      120.9200   23.1130  -20.9390 C.ar   55  PHE55      -0.0042
     45  CD2      120.0640   20.8900  -20.8660 C.ar   55  PHE55      -0.0042
     46  CE1      119.6490   23.6140  -20.7050 C.ar   55  PHE55      -0.0003
     47  CE2      118.8120   21.3660  -20.5600 C.ar   55  PHE55      -0.0003
     48  CZ       118.5940   22.7260  -20.4980 C.ar   55  PHE55      -0.0000
     49  N        123.3090   23.9040  -25.7070 N.3    61  VAL61      -0.1231
     50  CA       123.1140   25.2970  -25.1990 C.3    61  VAL61       0.1692
     51  C        124.3840   25.8040  -24.5340 C.2    61  VAL61       0.2592
     52  O        125.0280   26.7510  -25.0120 O.2    61  VAL61      -0.2718
     53  CB       121.9840   25.3550  -24.1520 C.3    61  VAL61       0.0266
     54  CG1      121.8270   26.7610  -23.5330 C.3    61  VAL61       0.0020
     55  CG2      120.6840   24.9910  -24.8220 C.3    61  VAL61       0.0020
     56  N        124.7820   25.1760  -23.4480 N.am   62  TRP62      -0.1976
     57  CA       126.0130   25.6210  -22.7950 C.3    62  TRP62       0.1640
     58  C        127.2540   25.4250  -23.6770 C.2    62  TRP62       0.2290
     59  O        128.0900   26.3190  -23.7960 O.2    62  TRP62      -0.2864
     60  CB       126.2230   25.0100  -21.4190 C.3    62  TRP62       0.0576
     61  CG       125.0710   24.9960  -20.4370 C.ar   62  TRP62       0.0006
     62  CD1      124.8500   24.0220  -19.4700 C.ar   62  TRP62       0.0946
     63  CD2      124.1170   26.0040  -20.1850 C.ar   62  TRP62       0.0152
     64  NE1      123.7630   24.3150  -18.7030 N.ar   62  TRP62      -0.2442
     65  CE2      123.2740   25.5200  -19.1240 C.ar   62  TRP62       0.0810
     66  CE3      123.8190   27.2420  -20.7910 C.ar   62  TRP62       0.0012
     67  CZ2      122.1880   26.2200  -18.6790 C.ar   62  TRP62       0.0191
     68  CZ3      122.7180   27.9180  -20.3820 C.ar   62  TRP62       0.0001
     69  CH2      121.9060   27.4190  -19.3180 C.ar   62  TRP62       0.0015
     70  N        127.2780   28.3460  -26.1500 N.3    65  GLU65      -0.1245
     71  CA       127.5620   29.5710  -25.4220 C.3    65  GLU65       0.1567
     72  C        129.0920   29.7180  -25.0890 C.2    65  GLU65       0.2260
     73  O        129.6750   30.8090  -25.2430 O.2    65  GLU65      -0.2867
     74  CB       126.6420   29.6870  -24.2310 C.3    65  GLU65       0.0388
     75  CG       127.1460   30.5500  -23.1110 C.3    65  GLU65       0.1160
     76  CD       126.2840   30.4450  -21.8840 C.2    65  GLU65       0.3649
     77  OE1      126.8080   30.1260  -20.7680 O.co2  65  GLU65      -0.2457
     78  OE2      125.0690   30.6720  -22.0530 O.co2  65  GLU65      -0.2457
     79  N        122.5050   28.1210  -29.5840 N.3    71  PRO71      -0.2116
     80  CA       121.9910   26.7890  -29.9020 C.3    71  PRO71       0.1372
     81  C        120.9040   26.9570  -30.9590 C.2    71  PRO71       0.2244
     82  O        120.5030   28.0320  -31.2010 O.2    71  PRO71      -0.2868
     83  CB       121.4090   26.3360  -28.5640 C.3    71  PRO71       0.0268
     84  CG       120.8920   27.6200  -27.9340 C.3    71  PRO71       0.0207
     85  CD       121.9540   28.6340  -28.2970 C.3    71  PRO71       0.0892
     86  N        117.0690   25.4580  -32.4380 N.3    73  PHE73      -0.1241
     87  CA       115.8580   24.6630  -32.2530 C.3    73  PHE73       0.1605
     88  C        115.2610   24.4090  -33.5880 C.2    73  PHE73       0.2264
     89  O        115.2500   25.2800  -34.4170 O.2    73  PHE73      -0.2867
     90  CB       114.8800   25.3970  -31.4610 C.3    73  PHE73       0.0534
     91  CG       115.1690   25.4620  -29.9230 C.ar   73  PHE73      -0.0203
     92  CD1      116.1280   26.3030  -29.4260 C.ar   73  PHE73      -0.0042
     93  CD2      114.3930   24.8010  -29.0380 C.ar   73  PHE73      -0.0042
     94  CE1      116.3330   26.4890  -28.0720 C.ar   73  PHE73      -0.0003
     95  CE2      114.6240   24.8730  -27.6640 C.ar   73  PHE73      -0.0003
     96  CZ       115.5680   25.7630  -27.1900 C.ar   73  PHE73      -0.0000
     97  N        108.5520   24.3880  -28.3760 N.3    77  PHE77      -0.1241
     98  CA       108.1470   23.4540  -27.3710 C.3    77  PHE77       0.1605
     99  C        106.7450   22.9060  -27.5790 C.2    77  PHE77       0.2264
    100  O        106.4800   21.7160  -27.3350 O.2    77  PHE77      -0.2867
    101  CB       108.3100   24.0430  -25.9650 C.3    77  PHE77       0.0534
    102  CG       109.7530   24.1560  -25.5300 C.ar   77  PHE77      -0.0203
    103  CD1      110.4890   23.0280  -25.2510 C.ar   77  PHE77      -0.0042
    104  CD2      110.3960   25.4270  -25.4670 C.ar   77  PHE77      -0.0042
    105  CE1      111.8130   23.1310  -24.8440 C.ar   77  PHE77      -0.0003
    106  CE2      111.7040   25.5650  -25.0720 C.ar   77  PHE77      -0.0003
    107  CZ       112.4290   24.3790  -24.7360 C.ar   77  PHE77      -0.0000
    108  N        112.7000   19.7590  -18.7310 N.3   106  VAL106     -0.1231
    109  CA       111.6470   20.6950  -18.4950 C.3   106  VAL106      0.1692
    110  C        110.8200   20.8640  -19.7350 C.2   106  VAL106      0.2592
    111  O        109.9730   21.7410  -19.7400 O.2   106  VAL106     -0.2718
    112  CB       112.2470   22.0850  -18.1260 C.3   106  VAL106      0.0266
    113  CG1      112.9660   22.0640  -16.7970 C.3   106  VAL106      0.0020
    114  CG2      113.0300   22.6420  -19.2620 C.3   106  VAL106      0.0020
    115  N        111.1620   20.1530  -20.7960 N.am  107  ASP107     -0.1974
    116  CA       110.5020   20.2710  -22.0930 C.3   107  ASP107      0.1709
    117  C        109.0160   19.8250  -22.1530 C.2   107  ASP107      0.2293
    118  O        108.4590   19.9230  -23.1710 O.2   107  ASP107     -0.2864
    119  CB       111.3020   19.5420  -23.2330 C.3   107  ASP107      0.1436
    120  CG       111.5330   18.0290  -22.9560 C.2   107  ASP107      0.3671
    121  OD1      110.5830   17.3850  -22.4820 O.co2 107  ASP107     -0.2456
    122  OD2      112.5810   17.4900  -23.3330 O.co2 107  ASP107     -0.2456
    123  N        108.0220   23.2200  -18.2660 N.3   127  MET127     -0.1245
    124  CA       107.6160   24.5250  -18.7100 C.3   127  MET127      0.1570
    125  C        106.1640   24.7470  -19.0230 C.2   127  MET127      0.2261
    126  O        105.7910   25.8960  -19.1930 O.2   127  MET127     -0.2867
    127  CB       108.5250   25.0890  -19.7440 C.3   127  MET127      0.0387
    128  CG       108.8770   24.5050  -21.0620 C.3   127  MET127      0.0595
    129  SD       110.5750   25.1290  -21.2710 S.3   127  MET127     -0.1393
    130  CE       110.4040   26.8660  -20.8350 C.3   127  MET127      0.0692
    131  N        110.2140   31.8880  -15.9410 N.3   148  MET148     -0.1245
    132  CA       111.1950   30.9510  -15.3930 C.3   148  MET148      0.1570
    133  C        111.6640   31.4360  -14.0480 C.2   148  MET148      0.2261
    134  O        111.5910   32.6090  -13.7670 O.2   148  MET148     -0.2867
    135  CB       112.3330   30.7140  -16.3850 C.3   148  MET148      0.0387
    136  CG       111.8120   30.3680  -17.7810 C.3   148  MET148      0.0595
    137  SD       113.1470   29.8060  -18.8450 S.3   148  MET148     -0.1393
    138  CE       112.3620   30.0200  -20.4380 C.3   148  MET148      0.0692
    139  N        109.8730   26.2130  -13.1910 N.3   169  ILE169     -0.1245
    140  CA       111.2860   26.1840  -13.7080 C.3   169  ILE169      0.1561
    141  C        112.2750   26.7090  -12.7200 C.2   169  ILE169      0.2260
    142  O        112.3070   27.9160  -12.5170 O.2   169  ILE169     -0.2867
    143  CB       111.4780   26.9530  -15.0170 C.3   169  ILE169      0.0252
    144  CG1      110.4460   26.4400  -16.0290 C.3   169  ILE169      0.0019
    145  CG2      112.8980   26.7560  -15.5450 C.3   169  ILE169      0.0019
    146  CD1      110.6420   25.0030  -16.4390 C.3   169  ILE169      0.0001
    147  N        119.1250   28.3960  -10.9510 N.3   172  TRP172     -0.1241
    148  CA       120.4050   27.9390  -10.3480 C.3   172  TRP172      0.1605
    149  C        120.3990   27.7360   -8.8360 C.2   172  TRP172      0.2264
    150  O        120.9300   26.7040   -8.3650 O.2   172  TRP172     -0.2867
    151  CB       121.6010   28.8250  -10.7800 C.3   172  TRP172      0.0550
    152  CG       121.9310   28.5330  -12.1910 C.ar  172  TRP172      0.0003
    153  CD1      121.5840   29.2970  -13.3000 C.ar  172  TRP172      0.0946
    154  CD2      122.5380   27.3200  -12.7170 C.ar  172  TRP172      0.0152
    155  NE1      121.9820   28.6450  -14.4720 N.ar  172  TRP172     -0.2442
    156  CE2      122.5510   27.4330  -14.1430 C.ar  172  TRP172      0.0810
    157  CE3      123.0710   26.1560  -12.1300 C.ar  172  TRP172      0.0012
    158  CZ2      123.1050   26.4190  -14.9810 C.ar  172  TRP172      0.0191
    159  CZ3      123.6410   25.1390  -12.9880 C.ar  172  TRP172      0.0001
    160  CH2      123.6500   25.2890  -14.3710 C.ar  172  TRP172      0.0015
@<TRIPOS>BOND
     1    89    88    2
     2    88    87    1
     3    86    87    1
     4    87    90    1
     5    90    91    1
     6    82    81    2
     7    81    80    1
     8    15    16    1
     9    91    92   ar
    10    91    93   ar
    11    80    79    1
    12    80    83    1
    13    79    85    1
    14    92    94   ar
    15    93    95   ar
    16    16    17    1
    17    16    19    1
    18    17    23   am
    19    17    18    2
    20    23    29    1
    21    23    24    1
    22    27    28    1
    23    27    24    1
    24    83    84    1
    25    29    28    1
    26    97    98    1
    27    24    25    1
    28    85    84    1
    29    20    19    1
    30    20    22    1
    31    94    96   ar
    32    19    21    1
    33    95    96   ar
    34    99    98    1
    35    99   100    2
    36    98   101    1
    37    25    30   am
    38    25    26    2
    39    30    31    1
    40    37    35   ar
    41    36    35   ar
    42    70    71    1
    43   101   102    1
    44    35    34    1
    45    49    50    1
    46   102   104   ar
    47   102   103   ar
    48   104   106   ar
    49    71    72    1
    50    71    74    1
    51    33    32    2
    52    31    34    1
    53    31    32    1
    54   103   105   ar
    55    73    72    2
    56    50    51    1
    57    50    53    1
    58   106   107   ar
    59    52    51    2
    60   105   107   ar
    61    13    12    2
    62    55    53    1
    63    32    38   am
    64    51    56   am
    65    74    75    1
    66    53    54    1
    67    12    11    1
    68    59    58    2
    69    58    57    1
    70    38    39    1
    71    56    57    1
    72   122   120   ar
    73    41    40    2
    74   119   120    1
    75   119   116    1
    76   118   117    2
    77    75    76    1
    78    40    39    1
    79   120   121   ar
    80    39    42    1
    81    57    60    1
    82    11    14    1
    83    11    10    1
    84   117   116    1
    85   116   115    1
    86    78    76   ar
    87    76    77   ar
    88    60    61    1
    89    42    43    1
    90   129   128    1
    91   129   130    1
    92   128   127    1
    93    43    44   ar
    94    43    45   ar
    95    44    46   ar
    96    45    47   ar
    97   115   110   am
    98    66    68   ar
    99    66    63   ar
   100    46    48   ar
   101    47    48   ar
   102   138   137    1
   103    61    63   ar
   104    61    62   ar
   105    68    69   ar
   106    63    65   ar
   107   127   124    1
   108   111   110    2
   109   110   109    1
   110    62    64   ar
   111    69    67   ar
   112   114   112    1
   113   126   125    2
   114    65    64   ar
   115    65    67   ar
   116   125   124    1
   117   137   136    1
   118   108   109    1
   119   124   123    1
   120   109   112    1
   121   112   113    1
   122     8     9    1
   123     8     7    1
   124   136   135    1
   125     5     6    1
   126     5     2    1
   127     6     7    1
   128     4     3    2
   129     3     2    1
   130   146   144    1
   131   135   132    1
   132     2     1    1
   133   144   143    1
   134   131   132    1
   135   145   143    1
   136   132   133    1
   137   143   140    1
   138   158   160   ar
   139   158   156   ar
   140   155   156   ar
   141   155   153   ar
   142   160   159   ar
   143   156   154   ar
   144   133   134    2
   145   140   139    1
   146   140   141    1
   147   153   152   ar
   148   159   157   ar
   149   141   142    2
   150   154   152   ar
   151   154   157   ar
   152   152   151    1
   153   147   148    1
   154   151   148    1
   155   148   149    1
   156   149   150    2
