@<TRIPOS>MOLECULE
tmp/5mg2A00.pdb
 132 135 0 0 0
SMALL
GASTEIGER

@<TRIPOS>ATOM
      1  N         23.2090   68.0950   10.7590 N.3    28  TRP28      -0.1228
      2  CA        23.1050   67.9670   12.2150 C.3    28  TRP28       0.1722
      3  C         21.8320   68.5300   12.8930 C.2    28  TRP28       0.2437
      4  O         21.3890   67.9360   13.8820 O.2    28  TRP28      -0.2733
      5  CB        24.3900   68.4590   12.9230 C.3    28  TRP28       0.0563
      6  CG        25.0060   69.7300   12.3890 C.ar   28  TRP28       0.0003
      7  CD1       26.0390   69.8220   11.4980 C.ar   28  TRP28       0.0946
      8  CD2       24.6340   71.0690   12.7160 C.ar   28  TRP28       0.0152
      9  NE1       26.3150   71.1250   11.2390 N.ar   28  TRP28      -0.2442
     10  CE2       25.4830   71.9190   11.9970 C.ar   28  TRP28       0.0810
     11  CE3       23.6800   71.6360   13.5860 C.ar   28  TRP28       0.0012
     12  CZ2       25.3820   73.3050   12.0680 C.ar   28  TRP28       0.0191
     13  CZ3       23.5850   73.0080   13.6660 C.ar   28  TRP28       0.0001
     14  CH2       24.4390   73.8370   12.9070 C.ar   28  TRP28       0.0015
     15  N         21.2170   69.6340   12.3930 N.am   29  PRO29      -0.2718
     16  CA        19.9500   70.0090   13.0570 C.3    29  PRO29       0.1535
     17  C         18.8170   69.0050   12.9330 C.2    29  PRO29       0.2598
     18  O         17.8250   69.1280   13.6560 O.2    29  PRO29      -0.2715
     19  CB        19.5350   71.3240   12.3540 C.3    29  PRO29       0.0310
     20  CG        20.7590   71.7900   11.6290 C.3    29  PRO29       0.0237
     21  CD        21.5030   70.5460   11.2680 C.3    29  PRO29       0.0939
     22  N         18.9520   68.0360   12.0220 N.am   30  PHE30      -0.1974
     23  CA        17.8280   67.2160   11.6430 C.3    30  PHE30       0.1639
     24  C         17.8850   65.7680   12.1290 C.2    30  PHE30       0.2290
     25  O         16.9520   65.0070   11.8830 O.2    30  PHE30      -0.2864
     26  CB        17.6450   67.2890   10.1170 C.3    30  PHE30       0.0560
     27  CG        17.4300   68.6850    9.6260 C.ar   30  PHE30      -0.0200
     28  CD1       16.2490   69.3490    9.8880 C.ar   30  PHE30      -0.0042
     29  CD2       18.4400   69.3700    8.9830 C.ar   30  PHE30      -0.0042
     30  CE1       16.0530   70.6540    9.4790 C.ar   30  PHE30      -0.0003
     31  CE2       18.2450   70.6720    8.5690 C.ar   30  PHE30      -0.0003
     32  CZ        17.0630   71.3180    8.8270 C.ar   30  PHE30      -0.0000
     33  N         17.8880   64.6760   15.2810 N.3    32  HIS32      -0.1227
     34  CA        17.1250   64.4830   16.5070 C.3    32  HIS32       0.1737
     35  C         15.9420   65.4460   16.5530 C.2    32  HIS32       0.2438
     36  O         15.9530   66.4700   15.8680 O.2    32  HIS32      -0.2733
     37  CB        18.0170   64.7550   17.7460 C.3    32  HIS32       0.0758
     38  CG        19.3090   64.0140   17.7260 C.ar   32  HIS32       0.0818
     39  ND1       20.4640   64.5560   17.2080 N.ar   32  HIS32      -0.2268
     40  CD2       19.6250   62.7540   18.1150 C.ar   32  HIS32       0.1154
     41  CE1       21.4440   63.6750   17.3000 C.ar   32  HIS32       0.1986
     42  NE2       20.9610   62.5720   17.8410 N.ar   32  HIS32      -0.2212
     43  N         14.9470   65.1520   17.4090 N.am   33  PRO33      -0.2718
     44  CA        13.8890   66.1160   17.6680 C.3    33  PRO33       0.1535
     45  C         14.4880   67.3920   18.2080 C.2    33  PRO33       0.2598
     46  O         15.5210   67.3560   18.9080 O.2    33  PRO33      -0.2715
     47  CB        13.0240   65.4350   18.7440 C.3    33  PRO33       0.0310
     48  CG        13.3210   63.9950   18.6090 C.3    33  PRO33       0.0237
     49  CD        14.7660   63.9180   18.2010 C.3    33  PRO33       0.0939
     50  N         13.8650   68.5120   17.8640 N.am   34  VAL34      -0.1964
     51  CA        14.2990   69.8130   18.3750 C.3    34  VAL34       0.1727
     52  C         14.1890   69.8200   19.8860 C.2    34  VAL34       0.2616
     53  O         13.1670   69.4080   20.4310 O.2    34  VAL34      -0.2715
     54  CB        13.4700   70.9640   17.7940 C.3    34  VAL34       0.0290
     55  CG1       13.8110   72.2840   18.4820 C.3    34  VAL34       0.0023
     56  CG2       13.7090   71.0680   16.2910 C.3    34  VAL34       0.0023
     57  N         15.2380   70.2940   20.5530 N.am   35  ASN35      -0.1972
     58  CA        15.2130   70.3810   22.0110 C.3    35  ASN35       0.1688
     59  C         14.5660   71.7140   22.4410 C.2    35  ASN35       0.2292
     60  O         15.0930   72.8140   22.2050 O.2    35  ASN35      -0.2864
     61  CB        16.6140   70.1820   22.5680 C.3    35  ASN35       0.1181
     62  CG        16.6480   70.2160   24.0860 C.2    35  ASN35       0.2629
     63  OD1       15.8810   70.9290   24.7380 O.2    35  ASN35      -0.2716
     64  ND2       17.5560   69.4580   24.6460 N.am   35  ASN35      -0.0877
     65  N         16.3200   74.7270   24.1770 N.3    38  PHE38      -0.1227
     66  CA        17.0770   75.6180   23.3000 C.3    38  PHE38       0.1736
     67  C         16.2030   76.4120   22.3240 C.2    38  PHE38       0.2595
     68  O         16.6110   77.4880   21.8400 O.2    38  PHE38      -0.2718
     69  CB        18.1110   74.8090   22.5260 C.3    38  PHE38       0.0547
     70  CG        19.2570   74.3400   23.3530 C.ar   38  PHE38      -0.0202
     71  CD1       19.2220   73.1020   23.9760 C.ar   38  PHE38      -0.0042
     72  CD2       20.3880   75.1330   23.4960 C.ar   38  PHE38      -0.0042
     73  CE1       20.2980   72.6680   24.7380 C.ar   38  PHE38      -0.0003
     74  CE2       21.4550   74.6980   24.2330 C.ar   38  PHE38      -0.0003
     75  CZ        21.4220   73.4630   24.8470 C.ar   38  PHE38      -0.0000
     76  N         15.0170   75.8790   22.0200 N.am   39  VAL39      -0.1980
     77  CA        14.0650   76.5430   21.1290 C.3    39  VAL39       0.1595
     78  C         12.6570   76.5440   21.7520 C.2    39  VAL39       0.2287
     79  O         11.7890   75.7220   21.3810 O.2    39  VAL39      -0.2864
     80  CB        14.0430   75.8710   19.7250 C.3    39  VAL39       0.0276
     81  CG1       13.3570   76.8020   18.7350 C.3    39  VAL39       0.0022
     82  CG2       15.4610   75.4980   19.2830 C.3    39  VAL39       0.0022
     83  N          9.2420   76.1690   19.7410 N.3    42  TYR42      -0.1241
     84  CA         9.2280   75.3150   18.5380 C.3    42  TYR42       0.1605
     85  C          7.9110   74.5460   18.4120 C.2    42  TYR42       0.2264
     86  O          7.2860   74.5570   17.3550 O.2    42  TYR42      -0.2867
     87  CB        10.4170   74.3440   18.4950 C.3    42  TYR42       0.0534
     88  CG        10.5370   73.6650   17.1360 C.ar   42  TYR42      -0.0201
     89  CD1       11.0690   74.3530   16.0580 C.ar   42  TYR42      -0.0009
     90  CD2       10.0660   72.3820   16.9310 C.ar   42  TYR42      -0.0009
     91  CE1       11.1570   73.7680   14.8060 C.ar   42  TYR42       0.0417
     92  CE2       10.1430   71.7730   15.6810 C.ar   42  TYR42       0.0417
     93  CZ        10.7030   72.4810   14.6220 C.ar   42  TYR42       0.1957
     94  OH        10.7910   71.9030   13.3760 O.3    42  TYR42      -0.2866
     95  N         10.5890   73.4120    8.5820 N.3    81  SER81      -0.1217
     96  CA        11.6690   74.3970    8.5410 C.3    81  SER81       0.1889
     97  C         11.2220   75.6580    7.7960 C.2    81  SER81       0.2288
     98  O         11.4990   76.7550    8.2260 O.2    81  SER81      -0.2866
     99  CB        12.9550   73.8100    7.9480 C.3    81  SER81       0.2089
    100  OG        14.0180   74.7650    7.9660 O.3    81  SER81      -0.2183
    101  N          9.0050   77.4710   10.4190 N.3    84  TYR84      -0.1227
    102  CA         9.6840   78.0110   11.5880 C.3    84  TYR84       0.1736
    103  C         10.7900   78.9990   11.1970 C.2    84  TYR84       0.2595
    104  O         10.9170   80.0630   11.8140 O.2    84  TYR84      -0.2718
    105  CB        10.2210   76.8890   12.5030 C.3    84  TYR84       0.0548
    106  CG        10.6810   77.4750   13.8110 C.ar   84  TYR84      -0.0200
    107  CD1        9.7870   77.7160   14.8360 C.ar   84  TYR84      -0.0009
    108  CD2       12.0000   77.8510   13.9880 C.ar   84  TYR84      -0.0009
    109  CE1       10.2030   78.3250   16.0120 C.ar   84  TYR84       0.0417
    110  CE2       12.4260   78.4500   15.1650 C.ar   84  TYR84       0.0417
    111  CZ        11.5170   78.6800   16.1670 C.ar   84  TYR84       0.1957
    112  OH        11.9490   79.2740   17.3210 O.3    84  TYR84      -0.2866
    113  N         11.5750   78.6640   10.1730 N.am   85  ASN85      -0.1974
    114  CA        12.7650   79.4420    9.8300 C.3    85  ASN85       0.1688
    115  C         12.6310   80.3340    8.5910 C.2    85  ASN85       0.2292
    116  O         13.4150   81.2830    8.4460 O.2    85  ASN85      -0.2864
    117  CB        13.9630   78.5250    9.6160 C.3    85  ASN85       0.1181
    118  CG        14.2580   77.6520   10.8180 C.2    85  ASN85       0.2629
    119  OD1       14.5520   78.1660   11.9030 O.2    85  ASN85      -0.2716
    120  ND2       14.1800   76.3420   10.6430 N.am   85  ASN85      -0.0877
    121  N         18.7040   76.4810    7.5060 N.3    91  TYR91      -0.1241
    122  CA        18.0310   75.2730    7.9670 C.3    91  TYR91       0.1605
    123  C         17.1840   74.7010    6.8170 C.2    91  TYR91       0.2264
    124  O         17.1670   73.4970    6.5520 O.2    91  TYR91      -0.2867
    125  CB        17.1250   75.5660    9.1490 C.3    91  TYR91       0.0534
    126  CG        17.8640   75.8220   10.4670 C.ar   91  TYR91      -0.0201
    127  CD1       18.3620   74.7680   11.2170 C.ar   91  TYR91      -0.0009
    128  CD2       18.0140   77.1130   10.9650 C.ar   91  TYR91      -0.0009
    129  CE1       19.0260   74.9950   12.4230 C.ar   91  TYR91       0.0417
    130  CE2       18.6760   77.3490   12.1680 C.ar   91  TYR91       0.0417
    131  CZ        19.1690   76.2810   12.8930 C.ar   91  TYR91       0.1957
    132  OH        19.8200   76.4910   14.1030 O.3    91  TYR91      -0.2866
@<TRIPOS>BOND
     1   124   123    2
     2   123   122    1
     3   121   122    1
     4    97    98    2
     5    97    96    1
     6    99   100    1
     7    99    96    1
     8   122   125    1
     9   116   115    2
    10    96    95    1
    11    31    32   ar
    12    31    29   ar
    13   115   114    1
    14    32    30   ar
    15    29    27   ar
    16   125   126    1
    17    30    28   ar
    18   117   114    1
    19   117   118    1
    20    27    28   ar
    21    27    26    1
    22   114   113    1
    23    26    23    1
    24   113   103   am
    25   101   102    1
    26   126   128   ar
    27   126   127   ar
    28   120   118   am
    29     1     2    1
    30   118   119    2
    31   128   130   ar
    32   103   102    1
    33   103   104    2
    34   127   129   ar
    35     9     7   ar
    36     9    10   ar
    37    21    20    1
    38    21    15    1
    39     7     6   ar
    40   102   105    1
    41    20    19    1
    42    23    22    1
    43    23    24    1
    44    25    24    2
    45    10    12   ar
    46    10     8   ar
    47    22    17   am
    48    12    14   ar
    49   130   131   ar
    50     2     3    1
    51     2     5    1
    52    19    16    1
    53     6     8   ar
    54     6     5    1
    55    15     3   am
    56    15    16    1
    57   129   131   ar
    58   105   106    1
    59     8    11   ar
    60   131   132    1
    61     3     4    2
    62    14    13   ar
    63    17    16    1
    64    17    18    2
    65    94    93    1
    66    11    13   ar
    67   106   108   ar
    68   106   107   ar
    69   108   110   ar
    70    93    91   ar
    71    93    92   ar
    72    91    89   ar
    73   107   109   ar
    74   110   111   ar
    75    33    34    1
    76    92    90   ar
    77    36    35    2
    78   109   111   ar
    79    89    88   ar
    80   111   112    1
    81    56    54    1
    82    34    35    1
    83    34    37    1
    84    35    43   am
    85    90    88   ar
    86    88    87    1
    87    39    41   ar
    88    39    38   ar
    89    41    42   ar
    90    86    85    2
    91    43    44    1
    92    43    49    1
    93    44    45    1
    94    44    47    1
    95    38    37    1
    96    38    40   ar
    97    54    51    1
    98    54    55    1
    99    42    40   ar
   100    50    45   am
   101    50    51    1
   102    49    48    1
   103    45    46    2
   104    51    52    1
   105    85    84    1
   106    87    84    1
   107    84    83    1
   108    48    47    1
   109    81    80    1
   110    82    80    1
   111    80    77    1
   112    52    53    2
   113    52    57   am
   114    57    58    1
   115    77    78    1
   116    77    76    1
   117    79    78    2
   118    68    67    2
   119    58    59    1
   120    58    61    1
   121    76    67   am
   122    60    59    2
   123    67    66    1
   124    69    66    1
   125    69    70    1
   126    61    62    1
   127    66    65    1
   128    70    72   ar
   129    70    71   ar
   130    72    74   ar
   131    71    73   ar
   132    62    64   am
   133    62    63    2
   134    74    75   ar
   135    73    75   ar
