@<TRIPOS>MOLECULE
tmp/5mg5O00.pdb
 128 123 0 0 0
SMALL
GASTEIGER

@<TRIPOS>ATOM
      1  N         29.0150  -28.7690  299.7100 N.3    54  HIS54      -0.1241
      2  CA        30.0700  -27.7620  299.6260 C.3    54  HIS54       0.1621
      3  C         30.7910  -27.5960  300.9580 C.2    54  HIS54       0.2264
      4  O         32.0250  -27.5360  301.0050 O.2    54  HIS54      -0.2867
      5  CB        29.4910  -26.4270  299.1590 C.3    54  HIS54       0.0745
      6  CG        30.5040  -25.5190  298.5340 C.ar   54  HIS54       0.0817
      7  ND1       31.4810  -24.8780  299.2640 N.ar   54  HIS54      -0.2268
      8  CD2       30.6940  -25.1480  297.2450 C.ar   54  HIS54       0.1154
      9  CE1       32.2270  -24.1490  298.4540 C.ar   54  HIS54       0.1986
     10  NE2       31.7710  -24.2960  297.2230 N.ar   54  HIS54      -0.2212
     11  N         33.9730  -28.6380  296.7270 N.3    85  ASN85      -0.1240
     12  CA        33.3930  -27.7180  295.7430 C.3    85  ASN85       0.1653
     13  C         32.3790  -28.3780  294.8090 C.2    85  ASN85       0.2266
     14  O         31.4580  -29.0530  295.2630 O.2    85  ASN85      -0.2867
     15  CB        34.5030  -27.0670  294.9200 C.3    85  ASN85       0.1155
     16  CG        35.3520  -26.1170  295.7420 C.2    85  ASN85       0.2627
     17  OD1       36.2210  -26.5450  296.5010 O.2    85  ASN85      -0.2716
     18  ND2       35.1070  -24.8200  295.5910 N.am   85  ASN85      -0.0877
     19  N         24.1590  -17.0190  298.9110 N.3   121  TYR121     -0.1241
     20  CA        25.0690  -18.1480  298.7490 C.3   121  TYR121      0.1605
     21  C         26.2740  -17.7960  297.8830 C.2   121  TYR121      0.2264
     22  O         27.3350  -18.4160  298.0250 O.2   121  TYR121     -0.2867
     23  CB        24.2920  -19.3340  298.1690 C.3   121  TYR121      0.0534
     24  CG        25.1190  -20.3790  297.4540 C.ar  121  TYR121     -0.0201
     25  CD1       25.7800  -21.3750  298.1570 C.ar  121  TYR121     -0.0009
     26  CD2       25.2040  -20.3910  296.0680 C.ar  121  TYR121     -0.0009
     27  CE1       26.5260  -22.3350  297.4990 C.ar  121  TYR121      0.0417
     28  CE2       25.9420  -21.3470  295.4050 C.ar  121  TYR121      0.0417
     29  CZ        26.6030  -22.3160  296.1240 C.ar  121  TYR121      0.1957
     30  OH        27.3410  -23.2710  295.4630 O.3   121  TYR121     -0.2866
     31  N         30.5830  -18.8450  298.5690 N.3   125  ILE125     -0.1245
     32  CA        31.2910  -19.7890  297.7040 C.3   125  ILE125      0.1561
     33  C         32.8010  -19.6520  297.8460 C.2   125  ILE125      0.2260
     34  O         33.5230  -20.6520  297.9560 O.2   125  ILE125     -0.2867
     35  CB        30.8490  -19.5950  296.2430 C.3   125  ILE125      0.0252
     36  CG1       29.4400  -20.1400  296.0250 C.3   125  ILE125      0.0019
     37  CG2       31.8220  -20.2630  295.2970 C.3   125  ILE125      0.0019
     38  CD1       28.9450  -19.9330  294.6160 C.3   125  ILE125      0.0001
     39  N         34.9190  -16.9780  292.9730 N.3   141  HIS141     -0.1226
     40  CA        35.1840  -18.0450  292.0130 C.3   141  HIS141      0.1752
     41  C         34.7940  -17.6340  290.6010 C.2   141  HIS141      0.2596
     42  O         35.4450  -18.0450  289.6340 O.2   141  HIS141     -0.2718
     43  CB        34.4410  -19.3160  292.4200 C.3   141  HIS141      0.0759
     44  CG        35.2410  -20.2260  293.2970 C.ar  141  HIS141      0.0818
     45  ND1       35.0130  -20.3500  294.6500 N.ar  141  HIS141     -0.2268
     46  CD2       36.2640  -21.0640  293.0100 C.ar  141  HIS141      0.1154
     47  CE1       35.8630  -21.2220  295.1600 C.ar  141  HIS141      0.1986
     48  NE2       36.6330  -21.6710  294.1860 N.ar  141  HIS141     -0.2212
     49  N         33.7440  -16.8240  290.4610 N.am  142  THR142     -0.1953
     50  CA        33.3420  -16.3700  289.1350 C.3   142  THR142      0.1897
     51  C         34.4110  -15.4950  288.4970 C.2   142  THR142      0.2313
     52  O         34.4960  -15.4200  287.2660 O.2   142  THR142     -0.2863
     53  CB        32.0180  -15.6120  289.2110 C.3   142  THR142      0.1794
     54  OG1       31.1470  -16.2550  290.1500 O.3   142  THR142     -0.2208
     55  CG2       31.3460  -15.5860  287.8480 C.3   142  THR142      0.0378
     56  N         36.8830  -17.8080  286.4490 N.3   145  PHE145     -0.1241
     57  CA        36.3290  -18.2170  285.1620 C.3   145  PHE145      0.1605
     58  C         36.2120  -17.0430  284.1990 C.2   145  PHE145      0.2264
     59  O         36.3290  -17.2280  282.9830 O.2   145  PHE145     -0.2867
     60  CB        34.9690  -18.8820  285.3610 C.3   145  PHE145      0.0534
     61  CG        35.0350  -20.1740  286.1200 C.ar  145  PHE145     -0.0203
     62  CD1       35.3610  -21.3550  285.4750 C.ar  145  PHE145     -0.0042
     63  CD2       34.7770  -20.2070  287.4790 C.ar  145  PHE145     -0.0042
     64  CE1       35.4240  -22.5470  286.1710 C.ar  145  PHE145     -0.0003
     65  CE2       34.8390  -21.3960  288.1810 C.ar  145  PHE145     -0.0003
     66  CZ        35.1620  -22.5680  287.5260 C.ar  145  PHE145     -0.0000
     67  N         25.5400  -19.9220  283.7330 N.3   206  LEU206     -0.1245
     68  CA        24.8500  -21.1150  284.1870 C.3   206  LEU206      0.1561
     69  C         23.5900  -20.7400  284.9630 C.2   206  LEU206      0.2260
     70  O         23.3730  -19.5840  285.3350 O.2   206  LEU206     -0.2867
     71  CB        25.7800  -21.9850  285.0360 C.3   206  LEU206      0.0270
     72  CG        26.5200  -21.3960  286.2440 C.3   206  LEU206      0.0019
     73  CD1       25.6300  -21.3040  287.4800 C.3   206  LEU206      0.0001
     74  CD2       27.7640  -22.2190  286.5490 C.3   206  LEU206      0.0001
     75  N         21.8560  -21.2210  288.3710 N.3   208  TRP208     -0.1241
     76  CA        21.9530  -21.6300  289.7650 C.3   208  TRP208      0.1605
     77  C         20.6780  -22.3430  290.1910 C.2   208  TRP208      0.2264
     78  O         19.6000  -22.1100  289.6410 O.2   208  TRP208     -0.2867
     79  CB        22.1790  -20.4240  290.6780 C.3   208  TRP208      0.0550
     80  CG        23.2220  -19.4610  290.2130 C.ar  208  TRP208      0.0003
     81  CD1       23.1190  -18.5710  289.1810 C.ar  208  TRP208      0.0946
     82  CD2       24.5230  -19.2680  290.7800 C.ar  208  TRP208      0.0152
     83  NE1       24.2800  -17.8450  289.0650 N.ar  208  TRP208     -0.2442
     84  CE2       25.1580  -18.2540  290.0350 C.ar  208  TRP208      0.0810
     85  CE3       25.2150  -19.8590  291.8430 C.ar  208  TRP208      0.0012
     86  CZ2       26.4510  -17.8170  290.3190 C.ar  208  TRP208      0.0191
     87  CZ3       26.4980  -19.4240  292.1230 C.ar  208  TRP208      0.0001
     88  CH2       27.1030  -18.4130  291.3650 C.ar  208  TRP208      0.0015
     89  N         32.2030  -29.4480  282.7910 N.3   295  TYR295     -0.1241
     90  CA        31.6760  -28.3390  283.5740 C.3   295  TYR295      0.1605
     91  C         31.6370  -27.0930  282.7010 C.2   295  TYR295      0.2264
     92  O         32.6760  -26.6470  282.2020 O.2   295  TYR295     -0.2867
     93  CB        32.5360  -28.1100  284.8140 C.3   295  TYR295      0.0534
     94  CG        31.9630  -27.1170  285.7990 C.ar  295  TYR295     -0.0201
     95  CD1       31.1940  -27.5430  286.8730 C.ar  295  TYR295     -0.0009
     96  CD2       32.2050  -25.7540  285.6650 C.ar  295  TYR295     -0.0009
     97  CE1       30.6760  -26.6410  287.7800 C.ar  295  TYR295      0.0417
     98  CE2       31.6880  -24.8430  286.5680 C.ar  295  TYR295      0.0417
     99  CZ        30.9240  -25.2940  287.6230 C.ar  295  TYR295      0.1957
    100  OH        30.4040  -24.3980  288.5280 O.3   295  TYR295     -0.2866
    101  N         30.6890  -23.0970  282.1480 N.3   297  LEU297     -0.1245
    102  CA        30.4810  -21.7740  282.7270 C.3   297  LEU297      0.1561
    103  C         31.3710  -20.7530  282.0210 C.2   297  LEU297      0.2260
    104  O         32.6040  -20.8370  282.1060 O.2   297  LEU297     -0.2867
    105  CB        30.7770  -21.7850  284.2320 C.3   297  LEU297      0.0270
    106  CG        30.8910  -20.4150  284.9030 C.3   297  LEU297      0.0019
    107  CD1       29.5930  -19.6260  284.7400 C.3   297  LEU297      0.0001
    108  CD2       31.2790  -20.5480  286.3690 C.3   297  LEU297      0.0001
    109  N         22.5960  -26.3960  287.6740 N.3   344  HIS344     -0.1241
    110  CA        23.8350  -26.6340  288.4060 C.3   344  HIS344      0.1621
    111  C         23.6240  -26.3900  289.8890 C.2   344  HIS344      0.2264
    112  O         23.2720  -25.2800  290.2980 O.2   344  HIS344     -0.2867
    113  CB        24.9600  -25.7430  287.8740 C.3   344  HIS344      0.0745
    114  CG        25.9970  -25.4030  288.8970 C.ar  344  HIS344      0.0817
    115  ND1       27.0460  -26.2440  289.1990 N.ar  344  HIS344     -0.2268
    116  CD2       26.1550  -24.3090  289.6790 C.ar  344  HIS344      0.1154
    117  CE1       27.8020  -25.6870  290.1270 C.ar  344  HIS344      0.1986
    118  NE2       27.2830  -24.5120  290.4370 N.ar  344  HIS344     -0.2212
    119  N         26.2390  -27.1020  293.0950 N.3   346  SER346     -0.1217
    120  CA        27.6530  -27.4480  293.2290 C.3   346  SER346      0.1889
    121  C         27.8380  -28.8220  293.8610 C.2   346  SER346      0.2288
    122  O         28.6180  -29.6460  293.3680 O.2   346  SER346     -0.2866
    123  CB        28.3810  -26.3780  294.0480 C.3   346  SER346      0.2089
    124  OG        28.0580  -26.4750  295.4240 O.3   346  SER346     -0.2183
    125  N         36.4910  -25.5780  292.3610 N.3   382  GLY382     -0.1225
    126  CA        37.1840  -24.3040  292.3160 C.3   382  GLY382      0.1811
    127  C         37.5340  -23.9800  290.8810 C.2   382  GLY382      0.2280
    128  O         36.7570  -24.2380  289.9530 O.2   382  GLY382     -0.2866
@<TRIPOS>BOND
     1   103   104    2
     2   103   102    1
     3   101   102    1
     4    92    91    2
     5    91    90    1
     6   102   105    1
     7    89    90    1
     8    59    58    2
     9    90    93    1
    10    67    68    1
    11    68    69    1
    12    68    71    1
    13    58    57    1
    14   105   106    1
    15   107   106    1
    16    93    94    1
    17   106   108    1
    18    69    70    2
    19    71    72    1
    20    57    60    1
    21    57    56    1
    22    60    61    1
    23    62    61   ar
    24    62    64   ar
    25    96    94   ar
    26    96    98   ar
    27    94    95   ar
    28    61    63   ar
    29    64    66   ar
    30    72    74    1
    31    72    73    1
    32    98    99   ar
    33    95    97   ar
    34    52    51    2
    35    63    65   ar
    36    66    65   ar
    37    99    97   ar
    38    99   100    1
    39   109   110    1
    40    55    53    1
    41   113   110    1
    42   113   114    1
    43    75    76    1
    44   110   111    1
    45    51    50    1
    46   114   115   ar
    47   114   116   ar
    48    83    81   ar
    49    83    84   ar
    50    50    53    1
    51    50    49    1
    52    81    80   ar
    53   115   117   ar
    54    53    54    1
    55    42    41    2
    56    78    77    2
    57   116   118   ar
    58    76    77    1
    59    76    79    1
    60   111   112    2
    61   128   127    2
    62    84    86   ar
    63    84    82   ar
    64   117   118   ar
    65    80    79    1
    66    80    82   ar
    67    86    88   ar
    68    49    41   am
    69    41    40    1
    70    82    85   ar
    71   127   126    1
    72    88    87   ar
    73    85    87   ar
    74    40    43    1
    75    40    39    1
    76   126   125    1
    77    43    44    1
    78    46    44   ar
    79    46    48   ar
    80   119   120    1
    81   120   121    1
    82   120   123    1
    83    44    45   ar
    84   122   121    2
    85   123   124    1
    86    48    47   ar
    87    38    36    1
    88    45    47   ar
    89    13    14    2
    90    13    12    1
    91    15    16    1
    92    15    12    1
    93    37    35    1
    94    28    26   ar
    95    28    29   ar
    96    30    29    1
    97    18    16   am
    98    16    17    2
    99    12    11    1
   100    36    35    1
   101    26    24   ar
   102    29    27   ar
   103    35    32    1
   104    10     8   ar
   105    10     9   ar
   106     8     6   ar
   107    24    25   ar
   108    24    23    1
   109    27    25   ar
   110    32    33    1
   111    32    31    1
   112    33    34    2
   113    21    22    2
   114    21    20    1
   115    23    20    1
   116     9     7   ar
   117     6     5    1
   118     6     7   ar
   119    20    19    1
   120     5     2    1
   121     2     1    1
   122     2     3    1
   123     3     4    2
