@<TRIPOS>MOLECULE
tmp/5mgcA08.pdb
 103 97 0 0 0
SMALL
GASTEIGER

@<TRIPOS>ATOM
      1  N          6.9360    0.7540   28.5340 N.3   323  ASP323     -0.1239
      2  CA         6.4300   -0.2470   27.5910 C.3   323  ASP323      0.1674
      3  C          6.6620    0.1980   26.1350 C.2   323  ASP323      0.2266
      4  O          7.0040   -0.6120   25.2720 O.2   323  ASP323     -0.2867
      5  CB         4.9480   -0.5200   27.8440 C.3   323  ASP323      0.1410
      6  CG         4.3630   -1.4910   26.8410 C.2   323  ASP323      0.3668
      7  OD1        3.9420   -1.0350   25.7530 O.co2 323  ASP323     -0.2456
      8  OD2        4.3310   -2.7090   27.1190 O.co2 323  ASP323     -0.2456
      9  N          6.3140   -6.6180   24.9020 N.3   329  THR329     -0.1203
     10  CA         5.6870   -5.7370   25.8850 C.3   329  THR329      0.1994
     11  C          6.5530   -5.6070   27.1270 C.2   329  THR329      0.2618
     12  O          7.5280   -6.3420   27.2890 O.2   329  THR329     -0.2717
     13  CB         4.2790   -6.2070   26.3110 C.3   329  THR329      0.1784
     14  OG1        4.3730   -7.3620   27.1530 O.3   329  THR329     -0.2211
     15  CG2        3.3950   -6.4880   25.0930 C.3   329  THR329      0.0376
     16  N          6.1880   -4.6660   27.9930 N.am  330  GLU330     -0.1965
     17  CA         6.8990   -4.4460   29.2550 C.3   330  GLU330      0.1733
     18  C          6.9470   -5.6950   30.1290 C.2   330  GLU330      0.2617
     19  O          7.9220   -5.9010   30.8420 O.2   330  GLU330     -0.2715
     20  CB         6.2610   -3.3030   30.0350 C.3   330  GLU330      0.0429
     21  CG         6.9080   -3.0280   31.3920 C.3   330  GLU330      0.1163
     22  CD         6.4190   -1.7400   32.0240 C.2   330  GLU330      0.3649
     23  OE1        5.3490   -1.2470   31.5970 O.co2 330  GLU330     -0.2457
     24  OE2        7.1050   -1.2340   32.9480 O.co2 330  GLU330     -0.2457
     25  N          5.8930   -6.5110   30.0750 N.am  331  SER331     -0.1950
     26  CA         5.8470   -7.7930   30.7930 C.3   331  SER331      0.1924
     27  C          6.4290   -8.9780   29.9710 C.2   331  SER331      0.2314
     28  O          6.1790  -10.1360   30.2970 O.2   331  SER331     -0.2863
     29  CB         4.4080   -8.0790   31.2420 C.3   331  SER331      0.2116
     30  OG         3.5060   -8.0010   30.1550 O.3   331  SER331     -0.2180
     31  N          5.7690  -10.2630   27.0820 N.3   333  ASN333     -0.1240
     32  CA         4.9330  -11.0860   26.2170 C.3   333  ASN333      0.1653
     33  C          4.9830  -10.6190   24.7560 C.2   333  ASN333      0.2266
     34  O          5.2340   -9.4380   24.4640 O.2   333  ASN333     -0.2867
     35  CB         3.4990  -11.2280   26.7640 C.3   333  ASN333      0.1155
     36  CG         2.5880  -10.0340   26.4780 C.2   333  ASN333      0.2627
     37  OD1        2.3620   -9.6600   25.3230 O.2   333  ASN333     -0.2716
     38  ND2        2.0110   -9.4670   27.5400 N.am  333  ASN333     -0.0877
     39  N          2.3130  -11.1240   22.4870 N.3   335  THR335     -0.1203
     40  CA         0.9440  -11.3030   21.9780 C.3   335  THR335      0.1994
     41  C          0.5530  -10.2900   20.9150 C.2   335  THR335      0.2617
     42  O         -0.3500  -10.5600   20.1290 O.2   335  THR335     -0.2717
     43  CB        -0.1310  -11.2510   23.0900 C.3   335  THR335      0.1784
     44  OG1       -0.0980   -9.9740   23.7480 O.3   335  THR335     -0.2211
     45  CG2        0.0750  -12.3950   24.1050 C.3   335  THR335      0.0376
     46  N          1.2020   -9.1290   20.8870 N.am  336  ARG336     -0.1979
     47  CA         0.7740   -8.0620   19.9850 C.3   336  ARG336      0.1597
     48  C          1.0310   -8.4880   18.5560 C.2   336  ARG336      0.2287
     49  O          2.0870   -9.0680   18.2530 O.2   336  ARG336     -0.2864
     50  CB         1.4930   -6.7460   20.2910 C.3   336  ARG336      0.0334
     51  CG         1.0890   -6.1240   21.6170 C.3   336  ARG336      0.0492
     52  CD         1.9090   -4.8690   21.8910 C.3   336  ARG336      0.2205
     53  NE         1.4880   -4.2040   23.1210 N.pl3 336  ARG336     -0.0865
     54  CZ         2.2500   -3.3990   23.8710 C.cat 336  ARG336      0.5346
     55  NH1        3.5190   -3.1270   23.5550 N.pl3 336  ARG336      0.1354
     56  NH2        1.7460   -2.8740   24.9770 N.pl3 336  ARG336      0.1354
     57  N          1.1690  -20.7500   25.0480 N.3   582  ASN582     -0.1240
     58  CA         0.1260  -20.0790   25.8100 C.3   582  ASN582      0.1653
     59  C         -1.2510  -20.6970   25.5350 C.2   582  ASN582      0.2266
     60  O         -2.2800  -20.1220   25.8820 O.2   582  ASN582     -0.2867
     61  CB         0.1400  -18.5700   25.5020 C.3   582  ASN582      0.1155
     62  CG        -0.4330  -18.2200   24.1310 C.2   582  ASN582      0.2627
     63  OD1       -0.4420  -19.0360   23.1970 O.2   582  ASN582     -0.2716
     64  ND2       -0.9150  -16.9760   24.0090 N.am  582  ASN582     -0.0877
     65  N          3.4180  -13.6170   34.1890 N.3   867  PRO867     -0.2116
     66  CA         3.5890  -12.1640   34.3950 C.3   867  PRO867      0.1372
     67  C          2.7170  -11.6410   35.5460 C.2   867  PRO867      0.2244
     68  O          1.4900  -11.7610   35.4810 O.2   867  PRO867     -0.2868
     69  CB         3.1300  -11.5630   33.0600 C.3   867  PRO867      0.0268
     70  CG         2.1670  -12.5740   32.5200 C.3   867  PRO867      0.0207
     71  CD         2.6610  -13.9200   32.9560 C.3   867  PRO867      0.0892
     72  N          1.4200   -8.4520   38.1250 N.3   869  PHE869     -0.1241
     73  CA         1.1000   -7.0410   38.0770 C.3   869  PHE869      0.1605
     74  C          0.6360   -6.5780   39.4440 C.2   869  PHE869      0.2264
     75  O         -0.0860   -7.2720   40.1440 O.2   869  PHE869     -0.2867
     76  CB        -0.0170   -6.7740   37.0610 C.3   869  PHE869      0.0534
     77  CG         0.3960   -7.0120   35.6410 C.ar  869  PHE869     -0.0203
     78  CD1        0.3090   -8.2850   35.0830 C.ar  869  PHE869     -0.0042
     79  CD2        0.9060   -5.9730   34.8640 C.ar  869  PHE869     -0.0042
     80  CE1        0.7160   -8.5170   33.7720 C.ar  869  PHE869     -0.0003
     81  CE2        1.3070   -6.1990   33.5490 C.ar  869  PHE869     -0.0003
     82  CZ         1.2130   -7.4720   33.0020 C.ar  869  PHE869     -0.0000
     83  N          3.7240   -3.7690   36.2100 N.3   906  PRO906     -0.2116
     84  CA         4.3800   -5.0840   36.1210 C.3   906  PRO906      0.1372
     85  C          5.6410   -5.1390   36.9460 C.2   906  PRO906      0.2244
     86  O          6.3130   -4.1370   37.0920 O.2   906  PRO906     -0.2868
     87  CB         4.7180   -5.2270   34.6350 C.3   906  PRO906      0.0268
     88  CG         4.7120   -3.8490   34.1000 C.3   906  PRO906      0.0207
     89  CD         3.7280   -3.0590   34.9180 C.3   906  PRO906      0.0892
     90  N         -1.5900  -12.2930   34.2200 N.3   942  THR942     -0.1203
     91  CA        -2.1370  -12.5290   32.8890 C.3   942  THR942      0.1994
     92  C         -1.6560  -13.9130   32.4240 C.2   942  THR942      0.2618
     93  O         -0.9580  -14.6110   33.1670 O.2   942  THR942     -0.2717
     94  CB        -1.7230  -11.4090   31.9010 C.3   942  THR942      0.1784
     95  OG1       -0.3020  -11.3870   31.7520 O.3   942  THR942     -0.2211
     96  CG2       -2.1970  -10.0390   32.3930 C.3   942  THR942      0.0376
     97  N         -2.0440  -14.3100   31.2140 N.am  943  THR943     -0.1952
     98  CA        -1.8920  -15.6860   30.7520 C.3   943  THR943      0.1897
     99  C         -0.5690  -16.3340   31.1530 C.2   943  THR943      0.2313
    100  O          0.4850  -15.8600   30.7470 O.2   943  THR943     -0.2863
    101  CB        -2.0140  -15.7750   29.2250 C.3   943  THR943      0.1794
    102  OG1       -3.2420  -15.1570   28.8110 O.3   943  THR943     -0.2208
    103  CG2       -1.9830  -17.2540   28.7630 C.3   943  THR943      0.0378
@<TRIPOS>BOND
     1    49    48    2
     2    48    47    1
     3    47    50    1
     4    47    46    1
     5    42    41    2
     6    50    51    1
     7    46    41   am
     8    41    40    1
     9    51    52    1
    10    52    53    1
    11    40    39    1
    12    40    43    1
    13    43    44    1
    14    43    45    1
    15    53    54    2
    16    63    62    2
    17    55    54    1
    18    54    56    1
    19    64    62   am
    20    62    61    1
    21    34    33    2
    22    33    32    1
    23     9    10    1
    24    57    58    1
    25    15    13    1
    26     4     3    2
    27    37    36    2
    28    61    58    1
    29    59    58    1
    30    59    60    2
    31     7     6   ar
    32    10    13    1
    33    10    11    1
    34     3     2    1
    35    32    35    1
    36    32    31    1
    37    13    14    1
    38    36    35    1
    39    36    38   am
    40     6     8   ar
    41     6     5    1
    42    11    12    2
    43    11    16   am
    44     2     5    1
    45     2     1    1
    46    16    17    1
    47   103   101    1
    48   102   101    1
    49   101    98    1
    50    17    20    1
    51    17    18    1
    52    27    28    2
    53    27    26    1
    54    20    21    1
    55    25    18   am
    56    25    26    1
    57    18    19    2
    58    30    29    1
    59   100    99    2
    60    98    99    1
    61    98    97    1
    62    26    29    1
    63    97    92   am
    64    21    22    1
    65    23    22   ar
    66    95    94    1
    67    94    96    1
    68    94    91    1
    69    22    24   ar
    70    92    91    1
    71    92    93    2
    72    70    71    1
    73    70    69    1
    74    91    90    1
    75    71    65    1
    76    82    81   ar
    77    82    80   ar
    78    69    66    1
    79    81    79   ar
    80    80    78   ar
    81    88    87    1
    82    88    89    1
    83    65    66    1
    84    66    67    1
    85    87    84    1
    86    79    77   ar
    87    89    83    1
    88    78    77   ar
    89    68    67    2
    90    77    76    1
    91    84    83    1
    92    84    85    1
    93    85    86    2
    94    76    73    1
    95    73    72    1
    96    73    74    1
    97    74    75    2
