@<TRIPOS>MOLECULE
tmp/5mgcA09.pdb
 95 88 0 0 0
SMALL
GASTEIGER

@<TRIPOS>ATOM
      1  N          0.2010    3.5120   27.2570 N.3   272  PHE272     -0.1227
      2  CA         1.0040    2.7890   26.2720 C.3   272  PHE272      0.1736
      3  C          0.2290    1.8130   25.4060 C.2   272  PHE272      0.2595
      4  O          0.7060    1.4560   24.3230 O.2   272  PHE272     -0.2718
      5  CB         2.1820    2.0820   26.9440 C.3   272  PHE272      0.0547
      6  CG         3.3130    3.0030   27.2600 C.ar  272  PHE272     -0.0202
      7  CD1        3.9330    3.7280   26.2440 C.ar  272  PHE272     -0.0042
      8  CD2        3.7540    3.1640   28.5640 C.ar  272  PHE272     -0.0042
      9  CE1        4.9720    4.5900   26.5300 C.ar  272  PHE272     -0.0003
     10  CE2        4.8100    4.0150   28.8460 C.ar  272  PHE272     -0.0003
     11  CZ         5.4160    4.7270   27.8270 C.ar  272  PHE272     -0.0000
     12  N         -0.9420    1.3790   25.8740 N.am  273  ALA273     -0.1980
     13  CA        -1.8430    0.5900   25.0410 C.3   273  ALA273      0.1597
     14  C         -2.2230    1.3730   23.7800 C.2   273  ALA273      0.2287
     15  O         -2.2280    0.8160   22.6790 O.2   273  ALA273     -0.2864
     16  CB        -3.0810    0.1850   25.8250 C.3   273  ALA273      0.0319
     17  N          6.9360    0.7540   28.5340 N.3   323  ASP323     -0.1239
     18  CA         6.4300   -0.2470   27.5910 C.3   323  ASP323      0.1674
     19  C          6.6620    0.1980   26.1350 C.2   323  ASP323      0.2266
     20  O          7.0040   -0.6120   25.2720 O.2   323  ASP323     -0.2867
     21  CB         4.9480   -0.5200   27.8440 C.3   323  ASP323      0.1410
     22  CG         4.3630   -1.4910   26.8410 C.2   323  ASP323      0.3668
     23  OD1        3.9420   -1.0350   25.7530 O.co2 323  ASP323     -0.2456
     24  OD2        4.3310   -2.7090   27.1190 O.co2 323  ASP323     -0.2456
     25  N          6.1880   -4.6660   27.9930 N.3   330  GLU330     -0.1231
     26  CA         6.8990   -4.4460   29.2550 C.3   330  GLU330      0.1699
     27  C          6.9470   -5.6950   30.1290 C.2   330  GLU330      0.2592
     28  O          7.9220   -5.9010   30.8420 O.2   330  GLU330     -0.2718
     29  CB         6.2610   -3.3030   30.0350 C.3   330  GLU330      0.0402
     30  CG         6.9080   -3.0280   31.3920 C.3   330  GLU330      0.1161
     31  CD         6.4190   -1.7400   32.0240 C.2   330  GLU330      0.3649
     32  OE1        5.3490   -1.2470   31.5970 O.co2 330  GLU330     -0.2457
     33  OE2        7.1050   -1.2340   32.9480 O.co2 330  GLU330     -0.2457
     34  N          5.8930   -6.5110   30.0750 N.am  331  SER331     -0.1952
     35  CA         5.8470   -7.7930   30.7930 C.3   331  SER331      0.1924
     36  C          6.4290   -8.9780   29.9710 C.2   331  SER331      0.2314
     37  O          6.1790  -10.1360   30.2970 O.2   331  SER331     -0.2863
     38  CB         4.4080   -8.0790   31.2420 C.3   331  SER331      0.2116
     39  OG         3.5060   -8.0010   30.1550 O.3   331  SER331     -0.2180
     40  N          1.2020   -9.1290   20.8870 N.3   336  ARG336     -0.1245
     41  CA         0.7740   -8.0620   19.9850 C.3   336  ARG336      0.1563
     42  C          1.0310   -8.4880   18.5560 C.2   336  ARG336      0.2260
     43  O          2.0870   -9.0680   18.2530 O.2   336  ARG336     -0.2867
     44  CB         1.4930   -6.7460   20.2910 C.3   336  ARG336      0.0307
     45  CG         1.0890   -6.1240   21.6170 C.3   336  ARG336      0.0489
     46  CD         1.9090   -4.8690   21.8910 C.3   336  ARG336      0.2205
     47  NE         1.4880   -4.2040   23.1210 N.pl3 336  ARG336     -0.0865
     48  CZ         2.2500   -3.3990   23.8710 C.cat 336  ARG336      0.5346
     49  NH1        3.5190   -3.1270   23.5550 N.pl3 336  ARG336      0.1354
     50  NH2        1.7460   -2.8740   24.9770 N.pl3 336  ARG336      0.1354
     51  N          1.4200   -8.4520   38.1250 N.3   869  PHE869     -0.1241
     52  CA         1.1000   -7.0410   38.0770 C.3   869  PHE869      0.1605
     53  C          0.6360   -6.5780   39.4440 C.2   869  PHE869      0.2264
     54  O         -0.0860   -7.2720   40.1440 O.2   869  PHE869     -0.2867
     55  CB        -0.0170   -6.7740   37.0610 C.3   869  PHE869      0.0534
     56  CG         0.3960   -7.0120   35.6410 C.ar  869  PHE869     -0.0203
     57  CD1        0.3090   -8.2850   35.0830 C.ar  869  PHE869     -0.0042
     58  CD2        0.9060   -5.9730   34.8640 C.ar  869  PHE869     -0.0042
     59  CE1        0.7160   -8.5170   33.7720 C.ar  869  PHE869     -0.0003
     60  CE2        1.3070   -6.1990   33.5490 C.ar  869  PHE869     -0.0003
     61  CZ         1.2130   -7.4720   33.0020 C.ar  869  PHE869     -0.0000
     62  N         -1.5500   -3.6110   41.2060 N.3   871  ASN871     -0.1240
     63  CA        -2.6650   -2.7390   40.7880 C.3   871  ASN871      0.1653
     64  C         -3.0800   -1.7730   41.8910 C.2   871  ASN871      0.2266
     65  O         -3.2510   -2.1890   43.0350 O.2   871  ASN871     -0.2867
     66  CB        -3.8970   -3.5560   40.3670 C.3   871  ASN871      0.1155
     67  CG        -3.6390   -4.4170   39.1450 C.2   871  ASN871      0.2627
     68  OD1       -3.9030   -4.0040   38.0200 O.2   871  ASN871     -0.2716
     69  ND2       -3.1050   -5.6180   39.3630 N.am  871  ASN871     -0.0877
     70  N         -2.0700    2.6840   36.4570 N.3   903  THR903     -0.1203
     71  CA        -2.6160    1.9650   37.6180 C.3   903  THR903      0.1994
     72  C         -2.1280    0.5130   37.7160 C.2   903  THR903      0.2618
     73  O         -2.3610   -0.1370   38.7390 O.2   903  THR903     -0.2717
     74  CB        -4.1520    1.9280   37.5490 C.3   903  THR903      0.1784
     75  OG1       -4.5520    1.3040   36.3290 O.3   903  THR903     -0.2211
     76  CG2       -4.7270    3.3350   37.5770 C.3   903  THR903      0.0376
     77  N         -1.4590    0.0260   36.6610 N.am  904  SER904     -0.1951
     78  CA        -1.0290   -1.3600   36.5290 C.3   904  SER904      0.1924
     79  C          0.4870   -1.4210   36.3850 C.2   904  SER904      0.2314
     80  O          1.0430   -0.9240   35.4180 O.2   904  SER904     -0.2863
     81  CB        -1.6690   -1.9840   35.2960 C.3   904  SER904      0.2116
     82  OG        -1.2450   -3.3230   35.1840 O.3   904  SER904     -0.2180
     83  N         -2.1750   -9.2020   40.5660 N.3   940  SER940     -0.1217
     84  CA        -2.8670   -9.9350   39.5040 C.3   940  SER940      0.1889
     85  C         -1.8620  -10.5230   38.5230 C.2   940  SER940      0.2288
     86  O         -0.6630  -10.2110   38.5710 O.2   940  SER940     -0.2866
     87  CB        -3.8320   -9.0130   38.7550 C.3   940  SER940      0.2089
     88  OG        -3.1250   -8.0830   37.9450 O.3   940  SER940     -0.2183
     89  N         -1.5900  -12.2930   34.2200 N.3   942  THR942     -0.1218
     90  CA        -2.1370  -12.5290   32.8890 C.3   942  THR942      0.1862
     91  C         -1.6560  -13.9130   32.4240 C.2   942  THR942      0.2287
     92  O         -0.9580  -14.6110   33.1670 O.2   942  THR942     -0.2866
     93  CB        -1.7230  -11.4090   31.9010 C.3   942  THR942      0.1770
     94  OG1       -0.3020  -11.3870   31.7520 O.3   942  THR942     -0.2211
     95  CG2       -2.1970  -10.0390   32.3930 C.3   942  THR942      0.0375
@<TRIPOS>BOND
     1    43    42    2
     2    42    41    1
     3    41    44    1
     4    41    40    1
     5    44    45    1
     6    45    46    1
     7    46    47    1
     8    15    14    2
     9    47    48    2
    10    49    48    1
    11    14    13    1
    12    48    50    1
    13     4     3    2
    14    13    16    1
    15    13    12    1
    16    20    19    2
    17     3    12   am
    18     3     2    1
    19    23    22   ar
    20    19    18    1
    21     7     9   ar
    22     7     6   ar
    23     2     5    1
    24     2     1    1
    25     9    11   ar
    26    22    24   ar
    27    22    21    1
    28     5     6    1
    29     6     8   ar
    30    18    21    1
    31    18    17    1
    32    11    10   ar
    33    25    26    1
    34     8    10   ar
    35    26    29    1
    36    26    27    1
    37    36    37    2
    38    36    35    1
    39    29    30    1
    40    34    27   am
    41    34    35    1
    42    27    28    2
    43    39    38    1
    44    35    38    1
    45    30    31    1
    46    32    31   ar
    47    94    93    1
    48    93    95    1
    49    93    90    1
    50    31    33   ar
    51    91    90    1
    52    91    92    2
    53    90    89    1
    54    61    60   ar
    55    61    59   ar
    56    60    58   ar
    57    59    57   ar
    58    58    56   ar
    59    57    56   ar
    60    82    81    1
    61    81    78    1
    62    80    79    2
    63    56    55    1
    64    75    74    1
    65    79    78    1
    66    70    71    1
    67    78    77    1
    68    77    72   am
    69    55    52    1
    70    74    76    1
    71    74    71    1
    72    71    72    1
    73    72    73    2
    74    88    87    1
    75    68    67    2
    76    52    51    1
    77    52    53    1
    78    85    86    2
    79    85    84    1
    80    87    84    1
    81    67    69   am
    82    67    66    1
    83    53    54    2
    84    84    83    1
    85    66    63    1
    86    63    62    1
    87    63    64    1
    88    64    65    2
