@<TRIPOS>MOLECULE
tmp/5mgcA02.pdb
 98 98 0 0 0
SMALL
GASTEIGER

@<TRIPOS>ATOM
      1  N         -8.3920    3.1660   40.8400 N.3   874  ASN874     -0.1240
      2  CA        -8.7720    4.5470   40.5060 C.3   874  ASN874      0.1653
      3  C        -10.1370    4.6220   39.7880 C.2   874  ASN874      0.2266
      4  O        -10.2990    5.3130   38.7780 O.2   874  ASN874     -0.2867
      5  CB        -7.6820    5.1660   39.6370 C.3   874  ASN874      0.1155
      6  CG        -7.7670    6.6750   39.5780 C.2   874  ASN874      0.2627
      7  OD1       -7.9100    7.3300   40.6060 O.2   874  ASN874     -0.2716
      8  ND2       -7.6760    7.2260   38.3740 N.am  874  ASN874     -0.0877
      9  N        -12.9310    5.9080   40.9000 N.3   876  THR876     -0.1203
     10  CA       -13.5840    7.2030   41.1190 C.3   876  THR876      0.1994
     11  C        -12.5350    8.2940   41.2240 C.2   876  THR876      0.2619
     12  O        -11.3910    8.0180   41.5930 O.2   876  THR876     -0.2717
     13  CB       -14.5050    7.1980   42.3780 C.3   876  THR876      0.1784
     14  OG1      -15.1920    8.4530   42.4720 O.3   876  THR876     -0.2211
     15  CG2      -13.7250    6.9430   43.6860 C.3   876  THR876      0.0376
     16  N        -12.9370    9.5260   40.9070 N.am  877  THR877     -0.1939
     17  CA       -12.0480   10.6840   40.9810 C.3   877  THR877      0.2013
     18  C        -11.4330   10.7900   42.3840 C.2   877  THR877      0.2484
     19  O        -12.1660   10.9160   43.3610 O.2   877  THR877     -0.2729
     20  CB       -12.8000   11.9820   40.6620 C.3   877  THR877      0.1807
     21  OG1      -13.4100   11.8590   39.3710 O.3   877  THR877     -0.2208
     22  CG2      -11.8510   13.1830   40.6680 C.3   877  THR877      0.0379
     23  N        -10.0930   10.7090   42.4890 N.am  878  PRO878     -0.2726
     24  CA        -9.5030   10.6310   43.8250 C.3   878  PRO878      0.1402
     25  C         -9.1240   11.9860   44.3900 C.2   878  PRO878      0.2269
     26  O         -9.0570   12.9670   43.6660 O.2   878  PRO878     -0.2865
     27  CB        -8.2450    9.8100   43.5780 C.3   878  PRO878      0.0296
     28  CG        -7.8070   10.2730   42.2150 C.3   878  PRO878      0.0237
     29  CD        -9.0640   10.5480   41.4390 C.3   878  PRO878      0.0939
     30  N          3.2660    6.4700   41.5550 N.3   895  TYR895     -0.1227
     31  CA         1.8710    6.6950   41.2750 C.3   895  TYR895      0.1736
     32  C          1.4670    8.0810   41.7570 C.2   895  TYR895      0.2595
     33  O          1.7670    8.4540   42.8860 O.2   895  TYR895     -0.2718
     34  CB         1.0820    5.6420   42.0360 C.3   895  TYR895      0.0548
     35  CG        -0.4050    5.6510   41.8170 C.ar  895  TYR895     -0.0200
     36  CD1       -0.9720    4.9270   40.7780 C.ar  895  TYR895     -0.0009
     37  CD2       -1.2510    6.3670   42.6690 C.ar  895  TYR895     -0.0009
     38  CE1       -2.3470    4.9120   40.5870 C.ar  895  TYR895      0.0417
     39  CE2       -2.6220    6.3640   42.4940 C.ar  895  TYR895      0.0417
     40  CZ        -3.1700    5.6450   41.4500 C.ar  895  TYR895      0.1957
     41  OH        -4.5300    5.6430   41.2660 O.3   895  TYR895     -0.2866
     42  N          0.7980    8.8410   40.9020 N.am  896  ILE896     -0.1966
     43  CA         0.2150   10.1230   41.2800 C.3   896  ILE896      0.1727
     44  C         -1.2650   10.0130   40.9880 C.2   896  ILE896      0.2617
     45  O         -1.6540    9.9010   39.8300 O.2   896  ILE896     -0.2715
     46  CB         0.8000   11.2980   40.4740 C.3   896  ILE896      0.0290
     47  CG1        2.3310   11.2880   40.5320 C.3   896  ILE896      0.0022
     48  CG2        0.2160   12.6260   40.9780 C.3   896  ILE896      0.0023
     49  CD1        2.9870   12.2040   39.5220 C.3   896  ILE896      0.0001
     50  N         -2.0770   10.0530   42.0360 N.am  897  SER897     -0.1936
     51  CA        -3.4990    9.7750   41.9180 C.3   897  SER897      0.2055
     52  C         -4.1990   10.7290   40.9640 C.2   897  SER897      0.2643
     53  O         -5.0520   10.3110   40.1740 O.2   897  SER897     -0.2714
     54  CB        -4.1810    9.8500   43.2840 C.3   897  SER897      0.2130
     55  OG        -4.2600   11.2020   43.7080 O.3   897  SER897     -0.2179
     56  N         -3.8090   11.9970   41.0170 N.am  898  ASN898     -0.1957
     57  CA        -4.5190   13.0370   40.2700 C.3   898  ASN898      0.1819
     58  C         -4.0140   13.2610   38.8450 C.2   898  ASN898      0.2621
     59  O         -4.6040   14.0560   38.1330 O.2   898  ASN898     -0.2715
     60  CB        -4.5400   14.3660   41.0490 C.3   898  ASN898      0.1195
     61  CG        -3.1480   14.8290   41.4670 C.2   898  ASN898      0.2630
     62  OD1       -2.4030   14.0830   42.1270 O.2   898  ASN898     -0.2716
     63  ND2       -2.7850   16.0500   41.0910 N.am  898  ASN898     -0.0877
     64  N         -2.9390   12.5910   38.4260 N.am  899  ILE899     -0.1963
     65  CA        -2.3450   12.8200   37.0890 C.3   899  ILE899      0.1727
     66  C         -2.3370   11.5530   36.2200 C.2   899  ILE899      0.2617
     67  O         -2.7200   11.6220   35.0480 O.2   899  ILE899     -0.2715
     68  CB        -0.9490   13.4660   37.1980 C.3   899  ILE899      0.0290
     69  CG1       -1.0870   14.8950   37.7280 C.3   899  ILE899      0.0022
     70  CG2       -0.2480   13.5200   35.8450 C.3   899  ILE899      0.0023
     71  CD1        0.2110   15.5610   38.1420 C.3   899  ILE899      0.0001
     72  N         -1.9080   10.4130   36.7620 N.am  900  GLY900     -0.1941
     73  CA        -1.9670    9.1580   36.0300 C.3   900  GLY900      0.1998
     74  C         -0.9510    9.0610   34.8930 C.2   900  GLY900      0.2481
     75  O          0.0120    9.8390   34.8740 O.2   900  GLY900     -0.2729
     76  N         -1.1240    8.1370   33.9350 N.am  901  PRO901     -0.2715
     77  CA        -2.2820    7.2500   33.7980 C.3   901  PRO901      0.1536
     78  C         -2.0900    5.8450   34.3560 C.2   901  PRO901      0.2598
     79  O         -3.0110    5.0360   34.2830 O.2   901  PRO901     -0.2715
     80  CB        -2.4100    7.1340   32.2760 C.3   901  PRO901      0.0310
     81  CG        -0.9830    7.1190   31.8090 C.3   901  PRO901      0.0237
     82  CD        -0.1880    7.9610   32.8060 C.3   901  PRO901      0.0939
     83  N         -0.9070    5.5330   34.8770 N.am  902  GLN902     -0.1964
     84  CA        -0.5930    4.1560   35.2250 C.3   902  GLN902      0.1733
     85  C         -1.2450    3.7330   36.5420 C.2   902  GLN902      0.2617
     86  O         -1.0150    4.3570   37.5850 O.2   902  GLN902     -0.2715
     87  CB         0.9100    3.9390   35.3010 C.3   902  GLN902      0.0408
     88  CG         1.2940    2.4720   35.4520 C.3   902  GLN902      0.0908
     89  CD         2.7720    2.2170   35.2480 C.2   902  GLN902      0.2608
     90  OE1        3.6060    3.1390   35.2940 O.2   902  GLN902     -0.2717
     91  NE2        3.1150    0.9480   35.0470 N.am  902  GLN902     -0.0878
     92  N         -2.0700    2.6840   36.4570 N.am  903  THR903     -0.1951
     93  CA        -2.6160    1.9650   37.6180 C.3   903  THR903      0.1897
     94  C         -2.1280    0.5130   37.7160 C.2   903  THR903      0.2313
     95  O         -2.3610   -0.1370   38.7390 O.2   903  THR903     -0.2863
     96  CB        -4.1520    1.9280   37.5490 C.3   903  THR903      0.1794
     97  OG1       -4.5520    1.3040   36.3290 O.3   903  THR903     -0.2208
     98  CG2       -4.7270    3.3350   37.5770 C.3   903  THR903      0.0378
@<TRIPOS>BOND
     1    81    80    1
     2    81    82    1
     3    80    77    1
     4    82    76    1
     5    77    76    1
     6    77    78    1
     7    76    74   am
     8    79    78    2
     9    78    83   am
    10    75    74    2
    11    83    84    1
    12    74    73    1
    13    91    89   am
    14    67    66    2
    15    84    87    1
    16    84    85    1
    17    89    90    2
    18    89    88    1
    19    87    88    1
    20    70    68    1
    21    73    72    1
    22    66    72   am
    23    66    65    1
    24    97    96    1
    25    92    85   am
    26    92    93    1
    27    85    86    2
    28    65    68    1
    29    65    64    1
    30    68    69    1
    31    96    98    1
    32    96    93    1
    33    93    94    1
    34    94    95    2
    35    69    71    1
    36    59    58    2
    37     8     6   am
    38    64    58   am
    39     4     3    2
    40    58    57    1
    41    21    20    1
    42    49    47    1
    43     6     5    1
    44     6     7    2
    45     5     2    1
    46     3     2    1
    47    45    44    2
    48    53    52    2
    49    57    56    1
    50    57    60    1
    51    46    47    1
    52    46    48    1
    53    46    43    1
    54     2     1    1
    55    38    36   ar
    56    38    40   ar
    57    20    22    1
    58    20    17    1
    59    36    35   ar
    60     9    10    1
    61    42    43    1
    62    42    32   am
    63    16    17    1
    64    16    11   am
    65    52    56   am
    66    52    51    1
    67    17    18    1
    68    44    43    1
    69    44    50   am
    70    60    61    1
    71    63    61   am
    72    10    11    1
    73    10    13    1
    74    11    12    2
    75    41    40    1
    76    31    30    1
    77    31    32    1
    78    31    34    1
    79    29    28    1
    80    29    23    1
    81    40    39   ar
    82    61    62    2
    83    32    33    2
    84    35    34    1
    85    35    37   ar
    86    51    50    1
    87    51    54    1
    88    28    27    1
    89    13    14    1
    90    13    15    1
    91    18    23   am
    92    18    19    2
    93    23    24    1
    94    39    37   ar
    95    54    55    1
    96    27    24    1
    97    26    25    2
    98    24    25    1
