@<TRIPOS>MOLECULE
tmp/5mgcA00.pdb
 100 96 0 0 0
SMALL
GASTEIGER

@<TRIPOS>ATOM
      1  N          6.9220   17.0060   63.6160 N.3   647  GLN647     -0.1231
      2  CA         6.7020   17.0010   65.0640 C.3   647  GLN647      0.1698
      3  C          7.7330   17.8850   65.7430 C.2   647  GLN647      0.2592
      4  O          8.8770   17.9640   65.3030 O.2   647  GLN647     -0.2718
      5  CB         6.7680   15.5790   65.6100 C.3   647  GLN647      0.0381
      6  CG         5.5910   14.7310   65.1420 C.3   647  GLN647      0.0905
      7  CD         5.8690   13.2370   65.1640 C.2   647  GLN647      0.2608
      8  OE1        6.7910   12.7650   65.8360 O.2   647  GLN647     -0.2717
      9  NE2        5.0560   12.4760   64.4270 N.am  647  GLN647     -0.0878
     10  N          7.3160   18.5320   66.8300 N.am  648  SER648     -0.1952
     11  CA         8.1500   19.5030   67.5430 C.3   648  SER648      0.1924
     12  C          9.3800   18.8900   68.2040 C.2   648  SER648      0.2314
     13  O         10.3620   19.5840   68.4110 O.2   648  SER648     -0.2863
     14  CB         7.3220   20.2560   68.5970 C.3   648  SER648      0.2116
     15  OG         6.8710   19.3850   69.6330 O.3   648  SER648     -0.2180
     16  N         11.4000   16.6830   66.8140 N.3   650  TYR650     -0.1241
     17  CA        12.3950   16.2590   65.8240 C.3   650  TYR650      0.1605
     18  C         13.6710   17.0810   65.9070 C.2   650  TYR650      0.2264
     19  O         13.6130   18.2990   65.9450 O.2   650  TYR650     -0.2867
     20  CB        11.8450   16.3370   64.3860 C.3   650  TYR650      0.0534
     21  CG        12.7830   15.6880   63.3970 C.ar  650  TYR650     -0.0201
     22  CD1       12.8270   14.2930   63.2600 C.ar  650  TYR650     -0.0009
     23  CD2       13.6690   16.4600   62.6240 C.ar  650  TYR650     -0.0009
     24  CE1       13.7000   13.6900   62.3710 C.ar  650  TYR650      0.0417
     25  CE2       14.5480   15.8620   61.7300 C.ar  650  TYR650      0.0417
     26  CZ        14.5590   14.4870   61.6120 C.ar  650  TYR650      0.1957
     27  OH        15.4270   13.9120   60.7440 O.3   650  TYR650     -0.2866
     28  N         14.3370   22.0310   55.5080 N.3   691  ARG691     -0.1245
     29  CA        13.8740   22.6180   56.7810 C.3   691  ARG691      0.1563
     30  C         14.4650   24.0140   56.9770 C.2   691  ARG691      0.2260
     31  O         15.6690   24.1740   56.9490 O.2   691  ARG691     -0.2867
     32  CB        14.2340   21.7170   57.9660 C.3   691  ARG691      0.0307
     33  CG        13.3850   20.4560   57.9820 C.3   691  ARG691      0.0489
     34  CD        13.9410   19.4070   58.9300 C.3   691  ARG691      0.2205
     35  NE        13.9140   19.8110   60.3400 N.pl3 691  ARG691     -0.0865
     36  CZ        12.8190   19.8820   61.0940 C.cat 691  ARG691      0.5346
     37  NH1       11.6170   19.6390   60.5880 N.pl3 691  ARG691      0.1354
     38  NH2       12.9320   20.2320   62.3660 N.pl3 691  ARG691      0.1354
     39  N         14.7640   27.1680   59.5030 N.3   693  HIS693     -0.1241
     40  CA        14.6530   27.6270   60.8850 C.3   693  HIS693      0.1621
     41  C         14.6050   29.1460   60.9300 C.2   693  HIS693      0.2264
     42  O         15.4210   29.8160   60.2920 O.2   693  HIS693     -0.2867
     43  CB        15.8610   27.1610   61.7120 C.3   693  HIS693      0.0745
     44  CG        15.9740   25.6770   61.8280 C.ar  693  HIS693      0.0817
     45  ND1       15.7850   25.0060   63.0160 N.ar  693  HIS693     -0.2268
     46  CD2       16.2310   24.7280   60.8980 C.ar  693  HIS693      0.1154
     47  CE1       15.9360   23.7080   62.8150 C.ar  693  HIS693      0.1986
     48  NE2       16.2090   23.5140   61.5390 N.ar  693  HIS693     -0.2212
     49  N          6.1540   24.1530   61.5860 N.3   720  ASN720     -0.1240
     50  CA         6.1320   23.1840   62.6970 C.3   720  ASN720      0.1653
     51  C          5.1550   22.0430   62.3580 C.2   720  ASN720      0.2266
     52  O          5.3690   21.3940   61.3420 O.2   720  ASN720     -0.2867
     53  CB         5.9080   23.8790   64.0670 C.3   720  ASN720      0.1155
     54  CG         7.2040   24.4270   64.6350 C.2   720  ASN720      0.2627
     55  OD1        7.8740   25.1950   63.9630 O.2   720  ASN720     -0.2716
     56  ND2        7.5770   24.0140   65.8550 N.am  720  ASN720     -0.0877
     57  N          4.3770   33.4610   67.7250 N.3   746  GLN746     -0.1245
     58  CA         4.8120   34.0010   69.0180 C.3   746  GLN746      0.1566
     59  C          6.2120   34.6060   68.9400 C.2   746  GLN746      0.2260
     60  O          7.1590   33.9220   68.5640 O.2   746  GLN746     -0.2867
     61  CB         4.7700   32.8960   70.0770 C.3   746  GLN746      0.0367
     62  CG         3.3520   32.3670   70.3390 C.3   746  GLN746      0.0905
     63  CD         3.3280   30.9270   70.8370 C.2   746  GLN746      0.2608
     64  OE1        2.7740   30.0310   70.1770 O.2   746  GLN746     -0.2717
     65  NE2        3.9430   30.6920   71.9980 N.am  746  GLN746     -0.0878
     66  N          9.9770   32.9740   69.6950 N.3   749  LYS749     -0.1231
     67  CA         9.9810   31.5180   69.5710 C.3   749  LYS749      0.1693
     68  C         10.5450   31.1040   68.2100 C.2   749  LYS749      0.2593
     69  O         10.3990   31.8190   67.2100 O.2   749  LYS749     -0.2718
     70  CB         8.5800   30.9290   69.7860 C.3   749  LYS749      0.0285
     71  CG         8.0520   31.0150   71.2220 C.3   749  LYS749      0.0035
     72  CD         9.0620   30.4930   72.2430 C.3   749  LYS749      0.0206
     73  CE         8.4200   29.8990   73.4900 C.3   749  LYS749      0.1093
     74  NZ         7.4480   30.8260   74.1320 N.3   749  LYS749     -0.1314
     75  N         11.2160   29.9580   68.1940 N.am  750  THR750     -0.1939
     76  CA        11.7730   29.4120   66.9680 C.3   750  THR750      0.2028
     77  C         10.7270   28.5400   66.2570 C.2   750  THR750      0.2642
     78  O          9.9190   27.8660   66.9040 O.2   750  THR750     -0.2714
     79  CB        13.0690   28.6280   67.2340 C.3   750  THR750      0.1808
     80  OG1       12.7690   27.4420   67.9710 O.3   750  THR750     -0.2208
     81  CG2       14.0590   29.4930   68.0360 C.3   750  THR750      0.0379
     82  N         10.7260   28.6120   64.9270 N.am  751  TYR751     -0.1959
     83  CA         9.8540   27.8100   64.0810 C.3   751  TYR751      0.1771
     84  C         10.6590   27.1570   62.9650 C.2   751  TYR751      0.2619
     85  O         11.7400   27.6320   62.6130 O.2   751  TYR751     -0.2715
     86  CB         8.7540   28.6710   63.4810 C.3   751  TYR751      0.0574
     87  CG         7.7790   29.2050   64.4980 C.ar  751  TYR751     -0.0198
     88  CD1        8.0580   30.3800   65.1980 C.ar  751  TYR751     -0.0009
     89  CD2        6.5740   28.5440   64.7700 C.ar  751  TYR751     -0.0009
     90  CE1        7.1750   30.8890   66.1390 C.ar  751  TYR751      0.0417
     91  CE2        5.6800   29.0440   65.7110 C.ar  751  TYR751      0.0417
     92  CZ         5.9900   30.2230   66.3950 C.ar  751  TYR751      0.1957
     93  OH         5.1420   30.7650   67.3300 O.3   751  TYR751     -0.2866
     94  N         10.1140   26.0690   62.4180 N.am  752  VAL752     -0.1977
     95  CA        10.7170   25.3490   61.3060 C.3   752  VAL752      0.1596
     96  C          9.6980   25.0960   60.2040 C.2   752  VAL752      0.2287
     97  O          8.6740   24.4480   60.4220 O.2   752  VAL752     -0.2864
     98  CB        11.2950   23.9770   61.7140 C.3   752  VAL752      0.0276
     99  CG1       12.1860   23.4360   60.5970 C.3   752  VAL752      0.0022
    100  CG2       12.0700   24.0770   63.0160 C.3   752  VAL752      0.0022
@<TRIPOS>BOND
     1    28    29    1
     2    29    30    1
     3    29    32    1
     4    31    30    2
     5    32    33    1
     6    33    34    1
     7    34    35    1
     8    39    40    1
     9    96    97    2
    10    96    95    1
    11    42    41    2
    12    35    36    2
    13    37    36    1
    14    99    98    1
    15    27    26    1
    16    40    41    1
    17    40    43    1
    18    46    48   ar
    19    46    44   ar
    20    36    38    1
    21    95    98    1
    22    95    94    1
    23    52    51    2
    24    48    47   ar
    25    49    50    1
    26    26    25   ar
    27    26    24   ar
    28    43    44    1
    29    98   100    1
    30    25    23   ar
    31    44    45   ar
    32    51    50    1
    33    24    22   ar
    34    94    84   am
    35    85    84    2
    36    23    21   ar
    37    50    53    1
    38    47    45   ar
    39    84    83    1
    40    22    21   ar
    41    21    20    1
    42    86    83    1
    43    86    87    1
    44     1     2    1
    45    55    54    2
    46    53    54    1
    47    83    82    1
    48    20    17    1
    49     9     7   am
    50    87    89   ar
    51    87    88   ar
    52    54    56   am
    53    89    91   ar
    54    82    77   am
    55     2     5    1
    56     2     3    1
    57     6     7    1
    58     6     5    1
    59     7     8    2
    60    88    90   ar
    61     4     3    2
    62    91    92   ar
    63     3    10   am
    64    17    18    1
    65    17    16    1
    66    18    19    2
    67    90    92   ar
    68    77    78    2
    69    77    76    1
    70    92    93    1
    71    10    11    1
    72    76    79    1
    73    76    75    1
    74    69    68    2
    75    79    80    1
    76    79    81    1
    77    11    12    1
    78    11    14    1
    79    57    58    1
    80    75    68   am
    81    12    13    2
    82    68    67    1
    83    60    59    2
    84    14    15    1
    85    59    58    1
    86    58    61    1
    87    67    66    1
    88    67    70    1
    89    70    71    1
    90    61    62    1
    91    64    63    2
    92    62    63    1
    93    63    65   am
    94    71    72    1
    95    72    73    1
    96    73    74    1
