@<TRIPOS>MOLECULE
tmp/5mgcA13.pdb
 79 75 0 0 0
SMALL
GASTEIGER

@<TRIPOS>ATOM
      1  N          4.7230  -11.5540   23.8550 N.3   334  ILE334     -0.1231
      2  CA         4.7480  -11.2980   22.4220 C.3   334  ILE334      0.1692
      3  C          3.3650  -11.5880   21.8150 C.2   334  ILE334      0.2592
      4  O          3.2520  -12.1890   20.7530 O.2   334  ILE334     -0.2718
      5  CB         5.9130  -12.0580   21.7140 C.3   334  ILE334      0.0266
      6  CG1        5.8560  -13.5720   21.9670 C.3   334  ILE334      0.0019
      7  CG2        7.2560  -11.5050   22.1740 C.3   334  ILE334      0.0020
      8  CD1        6.9490  -14.3580   21.2740 C.3   334  ILE334      0.0001
      9  N          2.3130  -11.1240   22.4870 N.am  335  THR335     -0.1953
     10  CA         0.9440  -11.3030   21.9780 C.3   335  THR335      0.1897
     11  C          0.5530  -10.2900   20.9150 C.2   335  THR335      0.2313
     12  O         -0.3500  -10.5600   20.1290 O.2   335  THR335     -0.2863
     13  CB        -0.1310  -11.2510   23.0900 C.3   335  THR335      0.1794
     14  OG1       -0.0980   -9.9740   23.7480 O.3   335  THR335     -0.2208
     15  CG2        0.0750  -12.3950   24.1050 C.3   335  THR335      0.0378
     16  N          4.2380  -10.5320   15.3690 N.3   340  SER340     -0.1217
     17  CA         4.1150  -11.5580   14.3260 C.3   340  SER340      0.1889
     18  C          4.3060  -11.0010   12.9210 C.2   340  SER340      0.2288
     19  O          4.9300  -11.6440   12.0980 O.2   340  SER340     -0.2866
     20  CB         2.7730  -12.2990   14.4320 C.3   340  SER340      0.2089
     21  OG         2.5590  -12.7610   15.7600 O.3   340  SER340     -0.2183
     22  N          2.1350  -18.0790   12.6610 N.3   532  ASN532     -0.1240
     23  CA         2.4600  -19.2150   13.5320 C.3   532  ASN532      0.1653
     24  C          3.7210  -20.0010   13.1440 C.2   532  ASN532      0.2266
     25  O          4.0680  -20.9760   13.8180 O.2   532  ASN532     -0.2867
     26  CB         1.2530  -20.1500   13.6320 C.3   532  ASN532      0.1155
     27  CG         0.0870  -19.5200   14.3750 C.2   532  ASN532      0.2627
     28  OD1        0.2680  -18.7070   15.2890 O.2   532  ASN532     -0.2716
     29  ND2       -1.1230  -19.9050   13.9920 N.am  532  ASN532     -0.0877
     30  N          7.8740  -20.4130   12.3620 N.3   534  TRP534     -0.1241
     31  CA         9.1130  -19.9990   12.9660 C.3   534  TRP534      0.1605
     32  C         10.2410  -20.6350   12.1780 C.2   534  TRP534      0.2264
     33  O         10.0390  -21.6680   11.5210 O.2   534  TRP534     -0.2867
     34  CB         9.1290  -20.4680   14.4150 C.3   534  TRP534      0.0550
     35  CG         7.9560  -19.9840   15.1900 C.ar  534  TRP534      0.0003
     36  CD1        6.7360  -20.5800   15.2980 C.ar  534  TRP534      0.0946
     37  CD2        7.8810  -18.7800   15.9430 C.ar  534  TRP534      0.0152
     38  NE1        5.9100  -19.8340   16.0980 N.ar  534  TRP534     -0.2442
     39  CE2        6.5880  -18.7220   16.5110 C.ar  534  TRP534      0.0810
     40  CE3        8.7890  -17.7520   16.2160 C.ar  534  TRP534      0.0012
     41  CZ2        6.1740  -17.6660   17.3220 C.ar  534  TRP534      0.0191
     42  CZ3        8.3870  -16.7130   17.0210 C.ar  534  TRP534      0.0001
     43  CH2        7.0830  -16.6730   17.5710 C.ar  534  TRP534      0.0015
     44  N          2.9430  -22.2380   17.9910 N.3   562  GLY562     -0.1210
     45  CA         2.0770  -21.1670   18.4900 C.3   562  GLY562      0.1956
     46  C          2.9000  -19.9860   18.9700 C.2   562  GLY562      0.2611
     47  O          3.5680  -19.3110   18.1820 O.2   562  GLY562     -0.2717
     48  N          2.8840  -19.7790   20.2760 N.am  563  TYR563     -0.1976
     49  CA         3.3580  -18.5510   20.8990 C.3   563  TYR563      0.1639
     50  C          4.8300  -18.2290   20.6030 C.2   563  TYR563      0.2290
     51  O          5.1560  -17.0710   20.3120 O.2   563  TYR563     -0.2864
     52  CB         3.1190  -18.6560   22.4040 C.3   563  TYR563      0.0560
     53  CG         3.4480  -17.4170   23.1850 C.ar  563  TYR563     -0.0198
     54  CD1        2.6470  -16.2910   23.1000 C.ar  563  TYR563     -0.0009
     55  CD2        4.5510  -17.3840   24.0300 C.ar  563  TYR563     -0.0009
     56  CE1        2.9340  -15.1560   23.8240 C.ar  563  TYR563      0.0417
     57  CE2        4.8480  -16.2550   24.7720 C.ar  563  TYR563      0.0417
     58  CZ         4.0320  -15.1510   24.6610 C.ar  563  TYR563      0.1957
     59  OH         4.3270  -14.0310   25.3730 O.3   563  TYR563     -0.2866
     60  N          1.1690  -20.7500   25.0480 N.3   582  ASN582     -0.1225
     61  CA         0.1260  -20.0790   25.8100 C.3   582  ASN582      0.1785
     62  C         -1.2510  -20.6970   25.5350 C.2   582  ASN582      0.2597
     63  O         -2.2800  -20.1220   25.8820 O.2   582  ASN582     -0.2718
     64  CB         0.1400  -18.5700   25.5020 C.3   582  ASN582      0.1169
     65  CG        -0.4330  -18.2200   24.1310 C.2   582  ASN582      0.2627
     66  OD1       -0.4420  -19.0360   23.1970 O.2   582  ASN582     -0.2716
     67  ND2       -0.9150  -16.9760   24.0090 N.am  582  ASN582     -0.0877
     68  N         -1.2510  -21.8700   24.9070 N.am  583  ALA583     -0.1979
     69  CA        -2.4690  -22.5810   24.5410 C.3   583  ALA583      0.1597
     70  C         -2.0740  -23.9530   24.0150 C.2   583  ALA583      0.2287
     71  O         -0.9150  -24.1850   23.6840 O.2   583  ALA583     -0.2864
     72  CB        -3.2540  -21.8120   23.4790 C.3   583  ALA583      0.0319
     73  N         -2.0440  -14.3100   31.2140 N.3   943  THR943     -0.1218
     74  CA        -1.8920  -15.6860   30.7520 C.3   943  THR943      0.1862
     75  C         -0.5690  -16.3340   31.1530 C.2   943  THR943      0.2287
     76  O          0.4850  -15.8600   30.7470 O.2   943  THR943     -0.2866
     77  CB        -2.0140  -15.7750   29.2250 C.3   943  THR943      0.1770
     78  OG1       -3.2420  -15.1570   28.8110 O.3   943  THR943     -0.2211
     79  CG2       -1.9830  -17.2540   28.7630 C.3   943  THR943      0.0375
@<TRIPOS>BOND
     1    33    32    2
     2    19    18    2
     3    32    31    1
     4    30    31    1
     5    22    23    1
     6    18    17    1
     7    31    34    1
     8    24    23    1
     9    24    25    2
    10    23    26    1
    11    26    27    1
    12    29    27   am
    13    17    20    1
    14    17    16    1
    15    27    28    2
    16    34    35    1
    17    20    21    1
    18    35    36   ar
    19    35    37   ar
    20    36    38   ar
    21    37    40   ar
    22    37    39   ar
    23    38    39   ar
    24    40    42   ar
    25    39    41   ar
    26    42    43   ar
    27    41    43   ar
    28    44    45    1
    29    47    46    2
    30    45    46    1
    31    46    48   am
    32    12    11    2
    33    48    49    1
    34    51    50    2
    35    50    49    1
    36     4     3    2
    37    49    52    1
    38    11    10    1
    39     8     6    1
    40     5     6    1
    41     5     7    1
    42     5     2    1
    43     3     2    1
    44     3     9   am
    45    10     9    1
    46    10    13    1
    47    52    53    1
    48     2     1    1
    49    13    14    1
    50    13    15    1
    51    54    53   ar
    52    54    56   ar
    53    53    55   ar
    54    66    65    2
    55    72    69    1
    56    71    70    2
    57    56    58   ar
    58    67    65   am
    59    70    69    1
    60    55    57   ar
    61    65    64    1
    62    69    68    1
    63    58    57   ar
    64    58    59    1
    65    68    62   am
    66    60    61    1
    67    64    61    1
    68    62    61    1
    69    62    63    2
    70    79    77    1
    71    78    77    1
    72    77    74    1
    73    76    75    2
    74    74    75    1
    75    74    73    1
