@<TRIPOS>MOLECULE
tmp/5mgcA06.pdb
 146 142 0 0 0
SMALL
GASTEIGER

@<TRIPOS>ATOM
      1  N         21.8860    1.1140   25.0610 N.3    56  TYR56      -0.1241
      2  CA        22.5280    2.2160   25.7690 C.3    56  TYR56       0.1605
      3  C         23.0810    1.6840   27.1020 C.2    56  TYR56       0.2264
      4  O         22.5970    0.6900   27.6230 O.2    56  TYR56      -0.2867
      5  CB        21.5150    3.3220   26.1020 C.3    56  TYR56       0.0534
      6  CG        21.0470    4.2240   24.9890 C.ar   56  TYR56      -0.0201
      7  CD1       21.9300    4.7670   24.0710 C.ar   56  TYR56      -0.0009
      8  CD2       19.7150    4.6180   24.9150 C.ar   56  TYR56      -0.0009
      9  CE1       21.4870    5.6350   23.0740 C.ar   56  TYR56       0.0417
     10  CE2       19.2630    5.4770   23.9310 C.ar   56  TYR56       0.0417
     11  CZ        20.1560    5.9950   23.0160 C.ar   56  TYR56       0.1957
     12  OH        19.7060    6.8590   22.0320 O.3    56  TYR56      -0.2866
     13  N         20.3110   10.4030   26.1140 N.3   100  ASN100     -0.1225
     14  CA        18.9270   10.8820   26.0110 C.3   100  ASN100      0.1785
     15  C         18.0040    9.7960   26.5900 C.2   100  ASN100      0.2597
     16  O         17.9410    9.6630   27.8230 O.2   100  ASN100     -0.2718
     17  CB        18.5960   11.3510   24.5690 C.3   100  ASN100      0.1169
     18  CG        17.4120   12.3090   24.5160 C.2   100  ASN100      0.2627
     19  OD1       17.4800   13.4340   25.0300 O.2   100  ASN100     -0.2716
     20  ND2       16.3330   11.8880   23.8790 N.am  100  ASN100     -0.0877
     21  N         17.3090    9.0300   25.7380 N.am  101  ALA101     -0.1966
     22  CA        16.6780    7.7660   26.1220 C.3   101  ALA101      0.1728
     23  C         15.5270    7.8640   27.1160 C.2   101  ALA101      0.2616
     24  O         15.1850    6.8670   27.7510 O.2   101  ALA101     -0.2715
     25  CB        17.7300    6.7890   26.6510 C.3   101  ALA101      0.0334
     26  N         14.9160    9.0430   27.2270 N.am  102  GLU102     -0.1977
     27  CA        13.9100    9.3110   28.2440 C.3   102  GLU102      0.1602
     28  C         14.3890    8.9080   29.6530 C.2   102  GLU102      0.2287
     29  O         13.6100    8.3800   30.4430 O.2   102  GLU102     -0.2864
     30  CB        12.5830    8.6250   27.8890 C.3   102  GLU102      0.0415
     31  CG        11.8120    9.3000   26.7650 C.3   102  GLU102      0.1163
     32  CD        12.4200    9.0160   25.4190 C.2   102  GLU102      0.3649
     33  OE1       12.1770    7.9070   24.8950 O.co2 102  GLU102     -0.2457
     34  OE2       13.1550    9.9020   24.9130 O.co2 102  GLU102     -0.2457
     35  N         25.2240   10.9160   21.0090 N.3   159  ASN159     -0.1225
     36  CA        23.8560   10.5550   20.6560 C.3   159  ASN159      0.1785
     37  C         23.1660   11.7820   20.1020 C.2   159  ASN159      0.2597
     38  O         23.0770   12.8030   20.7810 O.2   159  ASN159     -0.2718
     39  CB        23.0960   10.0370   21.8800 C.3   159  ASN159      0.1169
     40  CG        21.7180    9.5230   21.5260 C.2   159  ASN159      0.2627
     41  OD1       21.5750    8.4280   21.0040 O.2   159  ASN159     -0.2716
     42  ND2       20.6990   10.3220   21.7910 N.am  159  ASN159     -0.0877
     43  N         22.7090   11.6770   18.8600 N.am  160  GLU160     -0.1979
     44  CA        21.9970   12.7520   18.1790 C.3   160  GLU160      0.1602
     45  C         22.6880   14.1100   18.3650 C.2   160  GLU160      0.2287
     46  O         22.0920   15.0600   18.8500 O.2   160  GLU160     -0.2864
     47  CB        20.5240   12.7470   18.6130 C.3   160  GLU160      0.0415
     48  CG        19.7620   11.5510   18.0360 C.3   160  GLU160      0.1163
     49  CD        18.3190   11.4350   18.5070 C.2   160  GLU160      0.3649
     50  OE1       18.0230   11.7470   19.6870 O.co2 160  GLU160     -0.2457
     51  OE2       17.4740   11.0020   17.6860 O.co2 160  GLU160     -0.2457
     52  N         19.8560   13.0800   14.4920 N.3   197  ALA197     -0.1245
     53  CA        18.4180   13.0840   14.8500 C.3   197  ALA197      0.1562
     54  C         17.5000   13.1810   13.6350 C.2   197  ALA197      0.2260
     55  O         16.3950   12.6370   13.6420 O.2   197  ALA197     -0.2867
     56  CB        18.1090   14.2090   15.8120 C.3   197  ALA197      0.0290
     57  N         18.2630    9.0860   12.3920 N.3   218  ASP218     -0.1239
     58  CA        17.0770    8.5630   13.0560 C.3   218  ASP218      0.1674
     59  C         15.8040    9.0340   12.3580 C.2   218  ASP218      0.2266
     60  O         15.8370    9.9410   11.5050 O.2   218  ASP218     -0.2867
     61  CB        17.0880    9.0020   14.5130 C.3   218  ASP218      0.1410
     62  CG        18.2580    8.3960   15.3080 C.2   218  ASP218      0.3668
     63  OD1       18.8820    7.4010   14.8500 O.co2 218  ASP218     -0.2456
     64  OD2       18.5310    8.8930   16.4230 O.co2 218  ASP218     -0.2456
     65  N         11.3300    9.1730   13.3100 N.3   220  TYR220     -0.1241
     66  CA        10.0490    8.8740   13.9630 C.3   220  TYR220      0.1605
     67  C          8.9340    9.5020   13.1250 C.2   220  TYR220      0.2264
     68  O          8.2710   10.4420   13.5590 O.2   220  TYR220     -0.2867
     69  CB        10.0530    9.3700   15.4120 C.3   220  TYR220      0.0534
     70  CG        11.0730    8.6500   16.2880 C.ar  220  TYR220     -0.0201
     71  CD1       12.4370    8.9600   16.1990 C.ar  220  TYR220     -0.0009
     72  CD2       10.6800    7.6560   17.1930 C.ar  220  TYR220     -0.0009
     73  CE1       13.3800    8.3090   16.9730 C.ar  220  TYR220      0.0417
     74  CE2       11.6190    6.9910   17.9870 C.ar  220  TYR220      0.0417
     75  CZ        12.9730    7.3280   17.8760 C.ar  220  TYR220      0.1957
     76  OH        13.9300    6.6990   18.6410 O.3   220  TYR220     -0.2866
     77  N          4.0310   11.0080   17.7370 N.3   224  PHE224     -0.1241
     78  CA         3.7810   10.5310   19.0930 C.3   224  PHE224      0.1605
     79  C          2.3680   10.8300   19.5940 C.2   224  PHE224      0.2264
     80  O          2.1390   10.8520   20.8060 O.2   224  PHE224     -0.2867
     81  CB         4.8380   11.1520   20.0240 C.3   224  PHE224      0.0534
     82  CG         6.2410   10.9980   19.5060 C.ar  224  PHE224     -0.0203
     83  CD1        6.9140    9.7790   19.6350 C.ar  224  PHE224     -0.0042
     84  CD2        6.8700   12.0400   18.8300 C.ar  224  PHE224     -0.0042
     85  CE1        8.1960    9.6090   19.1310 C.ar  224  PHE224     -0.0003
     86  CE2        8.1570   11.8780   18.3320 C.ar  224  PHE224     -0.0003
     87  CZ         8.8180   10.6570   18.4840 C.ar  224  PHE224     -0.0000
     88  N         17.9560    4.7460   14.7640 N.3   258  GLN258     -0.1245
     89  CA        16.7210    4.6730   15.5540 C.3   258  GLN258      0.1566
     90  C         15.5470    4.9100   14.6330 C.2   258  GLN258      0.2260
     91  O         15.2420    6.0580   14.3340 O.2   258  GLN258     -0.2867
     92  CB        16.7020    5.7110   16.6790 C.3   258  GLN258      0.0367
     93  CG        17.6950    5.4470   17.7890 C.3   258  GLN258      0.0905
     94  CD        17.8910    6.6330   18.7140 C.2   258  GLN258      0.2608
     95  OE1       19.0240    6.9710   19.0720 O.2   258  GLN258     -0.2717
     96  NE2       16.7980    7.2720   19.1060 N.am  258  GLN258     -0.0878
     97  N          6.9060    7.2440   23.2620 N.3   264  TYR264     -0.1241
     98  CA         6.8970    7.6270   24.6680 C.3   264  TYR264      0.1605
     99  C          5.4710    8.0260   25.0780 C.2   264  TYR264      0.2264
    100  O          4.6180    8.2890   24.2230 O.2   264  TYR264     -0.2867
    101  CB         7.8910    8.7670   24.9440 C.3   264  TYR264      0.0534
    102  CG         7.5520   10.1060   24.2990 C.ar  264  TYR264     -0.0201
    103  CD1        6.6850   11.0100   24.9160 C.ar  264  TYR264     -0.0009
    104  CD2        8.1190   10.4790   23.0790 C.ar  264  TYR264     -0.0009
    105  CE1        6.3760   12.2350   24.3300 C.ar  264  TYR264      0.0417
    106  CE2        7.8210   11.7010   22.4830 C.ar  264  TYR264      0.0417
    107  CZ         6.9480   12.5760   23.1120 C.ar  264  TYR264      0.1957
    108  OH         6.6580   13.7880   22.5250 O.3   264  TYR264     -0.2866
    109  N         13.6940    1.3680   17.5890 N.3   302  TYR302     -0.1241
    110  CA        13.6730    1.9380   18.9330 C.3   302  TYR302      0.1605
    111  C         12.2020    1.9850   19.3770 C.2   302  TYR302      0.2264
    112  O         11.4330    2.7030   18.7550 O.2   302  TYR302     -0.2867
    113  CB        14.2970    3.3630   18.9180 C.3   302  TYR302      0.0534
    114  CG        14.5060    3.9710   20.3010 C.ar  302  TYR302     -0.0201
    115  CD1       13.4360    4.5280   21.0200 C.ar  302  TYR302     -0.0009
    116  CD2       15.7590    3.9660   20.9020 C.ar  302  TYR302     -0.0009
    117  CE1       13.6200    5.0560   22.2990 C.ar  302  TYR302      0.0417
    118  CE2       15.9550    4.4860   22.1800 C.ar  302  TYR302      0.0417
    119  CZ        14.8850    5.0350   22.8750 C.ar  302  TYR302      0.1957
    120  OH        15.0680    5.5580   24.1380 O.3   302  TYR302     -0.2866
    121  N          6.4500    1.4860   25.8860 N.3   324  TYR324     -0.1241
    122  CA         6.7400    2.1220   24.5930 C.3   324  TYR324      0.1605
    123  C          5.8330    1.6660   23.4290 C.2   324  TYR324      0.2264
    124  O          6.0350    2.0800   22.3000 O.2   324  TYR324     -0.2867
    125  CB         8.2410    1.9450   24.2340 C.3   324  TYR324      0.0534
    126  CG         8.8410    3.0770   23.4140 C.ar  324  TYR324     -0.0201
    127  CD1        9.2430    4.2720   24.0140 C.ar  324  TYR324     -0.0009
    128  CD2        9.0250    2.9440   22.0320 C.ar  324  TYR324     -0.0009
    129  CE1        9.7880    5.3090   23.2690 C.ar  324  TYR324      0.0417
    130  CE2        9.5720    3.9750   21.2830 C.ar  324  TYR324      0.0417
    131  CZ         9.9410    5.1570   21.9000 C.ar  324  TYR324      0.1957
    132  OH        10.4780    6.1650   21.1350 O.3   324  TYR324     -0.2866
    133  N         19.0950   17.8620   25.1160 N.3   766  TRP766     -0.1241
    134  CA        19.0280   17.5380   23.6930 C.3   766  TRP766      0.1605
    135  C         19.7640   18.5590   22.8120 C.2   766  TRP766      0.2264
    136  O         20.5300   18.1780   21.9330 O.2   766  TRP766     -0.2867
    137  CB        17.5730   17.3980   23.2590 C.3   766  TRP766      0.0550
    138  CG        17.4020   16.6010   22.0180 C.ar  766  TRP766      0.0003
    139  CD1       17.3200   15.2320   21.9120 C.ar  766  TRP766      0.0946
    140  CD2       17.2810   17.1150   20.6970 C.ar  766  TRP766      0.0152
    141  NE1       17.1510   14.8710   20.5990 N.ar  766  TRP766     -0.2442
    142  CE2       17.1260   16.0060   19.8300 C.ar  766  TRP766      0.0810
    143  CE3       17.2860   18.4070   20.1560 C.ar  766  TRP766      0.0012
    144  CZ2       16.9770   16.1510   18.4500 C.ar  766  TRP766      0.0191
    145  CZ3       17.1390   18.5550   18.7740 C.ar  766  TRP766      0.0001
    146  CH2       16.9870   17.4300   17.9370 C.ar  766  TRP766      0.0015
@<TRIPOS>BOND
     1    60    59    2
     2    59    58    1
     3    57    58    1
     4    58    61    1
     5    67    68    2
     6    67    66    1
     7    65    66    1
     8    54    55    2
     9    54    53    1
    10    66    69    1
    11    91    90    2
    12    52    53    1
    13    61    62    1
    14    90    89    1
    15    88    89    1
    16    63    62   ar
    17    53    56    1
    18    62    64   ar
    19    69    70    1
    20    89    92    1
    21    71    70   ar
    22    71    73   ar
    23    70    72   ar
    24    92    93    1
    25    73    75   ar
    26    72    74   ar
    27   109   110    1
    28    51    49   ar
    29    77    78    1
    30    93    94    1
    31    75    74   ar
    32    75    76    1
    33   146   144   ar
    34   146   145   ar
    35    48    49    1
    36    48    47    1
    37    44    45    1
    38    44    47    1
    39    44    43    1
    40    86    87   ar
    41    86    84   ar
    42    45    46    2
    43   144   142   ar
    44    87    85   ar
    45    49    50   ar
    46    94    95    2
    47    94    96   am
    48   112   111    2
    49   145   143   ar
    50    84    82   ar
    51    43    37   am
    52   113   110    1
    53   113   114    1
    54   110   111    1
    55    78    79    1
    56    78    81    1
    57    85    83   ar
    58    82    83   ar
    59    82    81    1
    60    79    80    2
    61   142   141   ar
    62   142   140   ar
    63    37    36    1
    64    37    38    2
    65   143   140   ar
    66   114   116   ar
    67   114   115   ar
    68   141   139   ar
    69    36    35    1
    70    36    39    1
    71   140   138   ar
    72   116   118   ar
    73    41    40    2
    74   115   117   ar
    75   132   131    1
    76   130   131   ar
    77   130   128   ar
    78    40    42   am
    79    40    39    1
    80   131   129   ar
    81   139   138   ar
    82   136   135    2
    83   138   137    1
    84   128   126   ar
    85    12    11    1
    86   118   119   ar
    87   117   119   ar
    88   124   123    2
    89   106   104   ar
    90   106   107   ar
    91   108   107    1
    92   135   134    1
    93   119   120    1
    94    11     9   ar
    95    11    10   ar
    96     9     7   ar
    97   104   102   ar
    98   107   105   ar
    99   137   134    1
   100    97    98    1
   101   129   127   ar
   102   126   127   ar
   103   126   125    1
   104   123   122    1
   105   134   133    1
   106    20    18   am
   107    10     8   ar
   108     7     6   ar
   109   100    99    2
   110   125   122    1
   111   102   103   ar
   112   102   101    1
   113   105   103   ar
   114    18    17    1
   115    18    19    2
   116    17    14    1
   117   122   121    1
   118    98   101    1
   119    98    99    1
   120    33    32   ar
   121    34    32   ar
   122     8     6   ar
   123     6     5    1
   124     1     2    1
   125    32    31    1
   126    21    22    1
   127    21    15   am
   128     2     5    1
   129     2     3    1
   130    14    13    1
   131    14    15    1
   132    22    25    1
   133    22    23    1
   134    15    16    2
   135    31    30    1
   136     3     4    2
   137    23    26   am
   138    23    24    2
   139    26    27    1
   140    30    27    1
   141    27    28    1
   142    28    29    2
