@<TRIPOS>MOLECULE
tmp/5mgeA00.pdb
 106 104 0 0 0
SMALL
GASTEIGER

@<TRIPOS>ATOM
      1  N        -28.6280  -17.7830    3.2970 N.3    32  TRP32      -0.1228
      2  CA       -29.5420  -16.9080    2.5660 C.3    32  TRP32       0.1722
      3  C        -28.9130  -15.6450    1.9460 C.2    32  TRP32       0.2437
      4  O        -29.3220  -15.2510    0.8530 O.2    32  TRP32      -0.2733
      5  CB       -30.7250  -16.5090    3.4680 C.3    32  TRP32       0.0563
      6  CG       -30.3660  -15.8180    4.7340 C.ar   32  TRP32       0.0003
      7  CD1      -30.1030  -16.4030    5.9400 C.ar   32  TRP32       0.0946
      8  CD2      -30.2520  -14.4020    4.9400 C.ar   32  TRP32       0.0152
      9  NE1      -29.8120  -15.4430    6.8740 N.ar   32  TRP32      -0.2442
     10  CE2      -29.8950  -14.2060    6.2880 C.ar   32  TRP32       0.0810
     11  CE3      -30.3920  -13.2830    4.1070 C.ar   32  TRP32       0.0012
     12  CZ2      -29.6900  -12.9370    6.8330 C.ar   32  TRP32       0.0191
     13  CZ3      -30.1840  -12.0230    4.6470 C.ar   32  TRP32       0.0001
     14  CH2      -29.8390  -11.8610    6.0020 C.ar   32  TRP32       0.0015
     15  N        -27.9200  -15.0060    2.6090 N.am   33  PRO33      -0.2718
     16  CA       -27.4290  -13.8190    1.9020 C.3    33  PRO33       0.1535
     17  C        -26.5520  -14.1530    0.6870 C.2    33  PRO33       0.2598
     18  O        -26.1690  -13.2400   -0.0350 O.2    33  PRO33      -0.2715
     19  CB       -26.5910  -13.0870    2.9600 C.3    33  PRO33       0.0310
     20  CG       -26.8990  -13.7760    4.2930 C.3    33  PRO33       0.0237
     21  CD       -27.2320  -15.1830    3.9020 C.3    33  PRO33       0.0939
     22  N        -26.2430  -15.4270    0.4700 N.am   34  PHE34      -0.1974
     23  CA       -25.2000  -15.7840   -0.4890 C.3    34  PHE34       0.1639
     24  C        -25.6780  -16.6870   -1.6130 C.2    34  PHE34       0.2290
     25  O        -24.8710  -17.1350   -2.4320 O.2    34  PHE34      -0.2864
     26  CB       -24.0350  -16.4510    0.2480 C.3    34  PHE34       0.0560
     27  CG       -23.6330  -15.7220    1.5030 C.ar   34  PHE34      -0.0200
     28  CD1      -23.0560  -14.4640    1.4280 C.ar   34  PHE34      -0.0042
     29  CD2      -23.8510  -16.2870    2.7530 C.ar   34  PHE34      -0.0042
     30  CE1      -22.6960  -13.7740    2.5770 C.ar   34  PHE34      -0.0003
     31  CE2      -23.4940  -15.6080    3.9130 C.ar   34  PHE34      -0.0003
     32  CZ       -22.9150  -14.3500    3.8240 C.ar   34  PHE34      -0.0000
     33  N        -25.7940  -10.4840   -5.4440 N.3    38  VAL38      -0.1231
     34  CA       -26.3530   -9.2680   -4.8680 C.3    38  VAL38       0.1692
     35  C        -26.9490   -8.4620   -6.0200 C.2    38  VAL38       0.2592
     36  O        -26.3250   -8.3340   -7.0700 O.2    38  VAL38      -0.2718
     37  CB       -25.2850   -8.4480   -4.1120 C.3    38  VAL38       0.0266
     38  CG1      -25.8440   -7.1050   -3.6480 C.3    38  VAL38       0.0020
     39  CG2      -24.7450   -9.2480   -2.9330 C.3    38  VAL38       0.0020
     40  N        -28.1680   -7.9610   -5.8390 N.am   39  ASN39      -0.1974
     41  CA       -28.8500   -7.2210   -6.8930 C.3    39  ASN39       0.1688
     42  C        -28.2310   -5.8320   -7.0260 C.2    39  ASN39       0.2292
     43  O        -28.4150   -4.9770   -6.1590 O.2    39  ASN39      -0.2864
     44  CB       -30.3490   -7.1310   -6.5970 C.3    39  ASN39       0.1181
     45  CG       -31.1550   -6.6320   -7.7860 C.2    39  ASN39       0.2629
     46  OD1      -30.7120   -5.7590   -8.5330 O.2    39  ASN39      -0.2716
     47  ND2      -32.3480   -7.1920   -7.9660 N.am   39  ASN39      -0.0877
     48  N        -29.2000   -2.5330   -4.5550 N.3    43  VAL43      -0.1245
     49  CA       -28.2870   -2.3810   -3.4270 C.3    43  VAL43       0.1561
     50  C        -27.2790   -1.2780   -3.6790 C.2    43  VAL43       0.2260
     51  O        -26.3840   -1.4270   -4.5150 O.2    43  VAL43      -0.2867
     52  CB       -27.5510   -3.6950   -3.1260 C.3    43  VAL43       0.0252
     53  CG1      -26.6100   -3.5180   -1.9460 C.3    43  VAL43       0.0019
     54  CG2      -28.5640   -4.7970   -2.8380 C.3    43  VAL43       0.0019
     55  N        -22.8790   -1.3440   -3.8690 N.3    46  TYR46      -0.1241
     56  CA       -22.2480   -2.6540   -4.0740 C.3    46  TYR46       0.1605
     57  C        -21.3940   -2.7190   -5.3300 C.2    46  TYR46       0.2264
     58  O        -20.2590   -3.1940   -5.2860 O.2    46  TYR46      -0.2867
     59  CB       -23.2840   -3.7780   -4.1210 C.3    46  TYR46       0.0534
     60  CG       -22.6780   -5.1060   -3.7020 C.ar   46  TYR46      -0.0201
     61  CD1      -22.2510   -6.0370   -4.6460 C.ar   46  TYR46      -0.0009
     62  CD2      -22.4850   -5.3990   -2.3590 C.ar   46  TYR46      -0.0009
     63  CE1      -21.6780   -7.2520   -4.2540 C.ar   46  TYR46       0.0417
     64  CE2      -21.9150   -6.6010   -1.9530 C.ar   46  TYR46       0.0417
     65  CZ       -21.5130   -7.5180   -2.8990 C.ar   46  TYR46       0.1957
     66  OH       -20.9500   -8.7000   -2.4660 O.3    46  TYR46      -0.2866
     67  N        -16.5780  -14.9690   -1.6690 N.3    81  VAL81      -0.1245
     68  CA       -17.9080  -14.6770   -1.1380 C.3    81  VAL81       0.1561
     69  C        -17.8530  -14.0740    0.2730 C.2    81  VAL81       0.2260
     70  O        -18.5140  -13.0730    0.5610 O.2    81  VAL81      -0.2867
     71  CB       -18.7870  -15.9380   -1.1010 C.3    81  VAL81       0.0252
     72  CG1      -20.1440  -15.6170   -0.4790 C.3    81  VAL81       0.0019
     73  CG2      -18.9410  -16.5370   -2.5210 C.3    81  VAL81       0.0019
     74  N        -18.3000  -10.1510    1.7030 N.3    85  CYS85      -0.1235
     75  CA       -19.2530   -9.9380    2.7850 C.3    85  CYS85       0.1677
     76  C        -18.6280   -9.0860    3.8790 C.2    85  CYS85       0.2270
     77  O        -19.2670   -8.1650    4.3890 O.2    85  CYS85      -0.2867
     78  CB       -19.7360  -11.2760    3.3700 C.3    85  CYS85       0.0956
     79  SG       -21.0780  -11.1270    4.6010 S.3    85  CYS85      -0.0801
     80  N        -18.3200   -5.3660    2.9800 N.3    88  PHE88      -0.1227
     81  CA       -19.5300   -4.5730    2.7760 C.3    88  PHE88       0.1736
     82  C        -20.4170   -4.4790    4.0150 C.2    88  PHE88       0.2595
     83  O        -21.2360   -3.5660    4.1310 O.2    88  PHE88      -0.2718
     84  CB       -20.3410   -5.1470    1.5990 C.3    88  PHE88       0.0547
     85  CG       -21.3290   -4.1640    1.0140 C.ar   88  PHE88      -0.0202
     86  CD1      -20.8950   -3.1250    0.2080 C.ar   88  PHE88      -0.0042
     87  CD2      -22.6870   -4.2750    1.2820 C.ar   88  PHE88      -0.0042
     88  CE1      -21.7980   -2.2120   -0.3350 C.ar   88  PHE88      -0.0003
     89  CE2      -23.5950   -3.3790    0.7390 C.ar   88  PHE88      -0.0003
     90  CZ       -23.1520   -2.3430   -0.0670 C.ar   88  PHE88      -0.0000
     91  N        -20.2450   -5.4130    4.9450 N.am   89  ASN89      -0.1974
     92  CA       -21.1400   -5.5290    6.0940 C.3    89  ASN89       0.1688
     93  C        -20.4160   -5.4340    7.4260 C.2    89  ASN89       0.2292
     94  O        -19.3040   -5.9480    7.5720 O.2    89  ASN89      -0.2864
     95  CB       -21.9040   -6.8610    6.0370 C.3    89  ASN89       0.1181
     96  CG       -22.6960   -7.0280    4.7540 C.2    89  ASN89       0.2629
     97  OD1      -23.8610   -6.6360    4.6810 O.2    89  ASN89      -0.2716
     98  ND2      -22.0760   -7.6340    3.7400 N.am   89  ASN89      -0.0877
     99  N        -26.2380  -10.1840    8.1960 N.3    95  ILE95      -0.1245
    100  CA       -25.4700  -10.6700    7.0540 C.3    95  ILE95       0.1561
    101  C        -23.9930  -10.8370    7.4200 C.2    95  ILE95       0.2260
    102  O        -23.3600  -11.8250    7.0440 O.2    95  ILE95      -0.2867
    103  CB       -25.6040   -9.7190    5.8430 C.3    95  ILE95       0.0252
    104  CG1      -27.0610   -9.6630    5.3780 C.3    95  ILE95       0.0019
    105  CG2      -24.6980  -10.1670    4.7060 C.3    95  ILE95       0.0019
    106  CD1      -27.3020   -8.7420    4.2100 C.3    95  ILE95       0.0001
@<TRIPOS>BOND
     1    46    45    2
     2    47    45   am
     3    45    44    1
     4    36    35    2
     5    42    41    1
     6    42    43    2
     7    41    44    1
     8    41    40    1
     9    35    40   am
    10    35    34    1
    11    33    34    1
    12    57    58    2
    13    57    56    1
    14    34    37    1
    15    61    63   ar
    16    61    60   ar
    17    48    49    1
    18    51    50    2
    19    63    65   ar
    20    59    56    1
    21    59    60    1
    22    37    38    1
    23    37    39    1
    24    56    55    1
    25    60    62   ar
    26    50    49    1
    27    49    52    1
    28    52    54    1
    29    52    53    1
    30    65    66    1
    31    65    64   ar
    32    73    71    1
    33    25    24    2
    34    62    64   ar
    35    67    68    1
    36    24    23    1
    37    68    71    1
    38    68    69    1
    39    71    72    1
    40    23    26    1
    41    23    22    1
    42    88    90   ar
    43    88    86   ar
    44    90    89   ar
    45    18    17    2
    46    86    85   ar
    47    26    27    1
    48    69    70    2
    49    22    17   am
    50    17    16    1
    51    89    87   ar
    52     4     3    2
    53    85    87   ar
    54    85    84    1
    55    28    27   ar
    56    28    30   ar
    57    27    29   ar
    58    84    81    1
    59    74    75    1
    60    16    15    1
    61    16    19    1
    62     3     2    1
    63     3    15   am
    64     2     1    1
    65     2     5    1
    66    30    32   ar
    67    15    21    1
    68    29    31   ar
    69    81    80    1
    70    81    82    1
    71    75    78    1
    72    75    76    1
    73    19    20    1
    74    78    79    1
    75     5     6    1
    76    98    96   am
    77    32    31   ar
    78    76    77    2
    79    21    20    1
    80    82    83    2
    81    82    91   am
    82    11    13   ar
    83    11     8   ar
    84   106   104    1
    85    13    14   ar
    86    97    96    2
    87   105   103    1
    88     6     8   ar
    89     6     7   ar
    90    96    95    1
    91     8    10   ar
    92    91    92    1
    93   104   103    1
    94   103   100    1
    95     7     9   ar
    96    14    12   ar
    97    95    92    1
    98    92    93    1
    99    10    12   ar
   100    10     9   ar
   101   102   101    2
   102   100   101    1
   103   100    99    1
   104    93    94    2
