@<TRIPOS>MOLECULE
tmp/5mgfA00.pdb
 99 96 0 0 0
SMALL
GASTEIGER

@<TRIPOS>ATOM
      1  N        -28.6540  -15.3000    2.3170 N.3    33  PRO33      -0.2102
      2  CA       -28.1630  -14.0690    1.6810 C.3    33  PRO33       0.1504
      3  C        -27.3000  -14.3260    0.4350 C.2    33  PRO33       0.2575
      4  O        -27.0520  -13.3920   -0.3180 O.2    33  PRO33      -0.2718
      5  CB       -27.3110  -13.4110    2.7810 C.3    33  PRO33       0.0282
      6  CG       -27.7100  -14.1000    4.0710 C.3    33  PRO33       0.0208
      7  CD       -28.0330  -15.4960    3.6440 C.3    33  PRO33       0.0893
      8  N        -26.8730  -15.5700    0.2330 N.am   34  PHE34      -0.1977
      9  CA       -25.8190  -15.8990   -0.7260 C.3    34  PHE34       0.1639
     10  C        -26.2740  -16.8070   -1.8700 C.2    34  PHE34       0.2290
     11  O        -25.4600  -17.2080   -2.6970 O.2    34  PHE34      -0.2864
     12  CB       -24.6480  -16.5670    0.0070 C.3    34  PHE34       0.0560
     13  CG       -24.2510  -15.8450    1.2750 C.ar   34  PHE34      -0.0200
     14  CD1      -23.6830  -14.5780    1.2110 C.ar   34  PHE34      -0.0042
     15  CD2      -24.4840  -16.4110    2.5160 C.ar   34  PHE34      -0.0042
     16  CE1      -23.3370  -13.8780    2.3760 C.ar   34  PHE34      -0.0003
     17  CE2      -24.1320  -15.7360    3.6760 C.ar   34  PHE34      -0.0003
     18  CZ       -23.5610  -14.4700    3.6110 C.ar   34  PHE34      -0.0000
     19  N        -26.6450  -10.5740   -5.5870 N.3    38  VAL38      -0.1245
     20  CA       -27.2440   -9.3600   -5.0390 C.3    38  VAL38       0.1561
     21  C        -27.8700   -8.5900   -6.1960 C.2    38  VAL38       0.2260
     22  O        -27.2800   -8.5190   -7.2800 O.2    38  VAL38      -0.2867
     23  CB       -26.1980   -8.4860   -4.3060 C.3    38  VAL38       0.0252
     24  CG1      -26.7730   -7.1010   -3.9440 C.3    38  VAL38       0.0019
     25  CG2      -25.6820   -9.2000   -3.0610 C.3    38  VAL38       0.0019
     26  N        -31.4880   -2.9190   -6.8420 N.3    42  LEU42      -0.1231
     27  CA       -32.2850   -2.7400   -5.6340 C.3    42  LEU42       0.1693
     28  C        -31.4060   -2.4240   -4.4380 C.2    42  LEU42       0.2592
     29  O        -31.8930   -1.9410   -3.4170 O.2    42  LEU42      -0.2718
     30  CB       -33.1270   -3.9810   -5.3320 C.3    42  LEU42       0.0284
     31  CG       -34.1030   -4.4560   -6.4090 C.3    42  LEU42       0.0019
     32  CD1      -34.9870   -5.5780   -5.8730 C.3    42  LEU42       0.0001
     33  CD2      -34.9390   -3.2970   -6.9240 C.3    42  LEU42       0.0001
     34  N        -30.1120   -2.7000   -4.5520 N.am   43  VAL43      -0.1966
     35  CA       -29.2290   -2.5290   -3.4090 C.3    43  VAL43       0.1712
     36  C        -28.2160   -1.4350   -3.6830 C.2    43  VAL43       0.2458
     37  O        -27.2930   -1.6170   -4.4830 O.2    43  VAL43      -0.2730
     38  CB       -28.4970   -3.8320   -3.0510 C.3    43  VAL43       0.0289
     39  CG1      -27.6770   -3.6430   -1.7820 C.3    43  VAL43       0.0023
     40  CG2      -29.5020   -4.9780   -2.8940 C.3    43  VAL43       0.0023
     41  N        -28.4040   -0.2810   -3.0210 N.am   44  PRO44      -0.2727
     42  CA       -27.5640    0.9140   -3.1540 C.3    44  PRO44       0.1402
     43  C        -26.1400    0.6420   -2.6930 C.2    44  PRO44       0.2269
     44  O        -25.9410   -0.0360   -1.6860 O.2    44  PRO44      -0.2865
     45  CB       -28.2490    1.9390   -2.2350 C.3    44  PRO44       0.0296
     46  CG       -29.6240    1.4020   -1.9930 C.3    44  PRO44       0.0237
     47  CD       -29.4860   -0.0840   -2.0420 C.3    44  PRO44       0.0939
     48  N        -23.8910   -1.3600   -3.8520 N.3    46  TYR46      -0.1241
     49  CA       -23.2660   -2.6690   -4.0960 C.3    46  TYR46       0.1605
     50  C        -22.4090   -2.7120   -5.3480 C.2    46  TYR46       0.2264
     51  O        -21.2570   -3.1530   -5.3010 O.2    46  TYR46      -0.2867
     52  CB       -24.2960   -3.8030   -4.1770 C.3    46  TYR46       0.0534
     53  CG       -23.6590   -5.1130   -3.7340 C.ar   46  TYR46      -0.0201
     54  CD1      -23.1190   -6.0060   -4.6630 C.ar   46  TYR46      -0.0009
     55  CD2      -23.5300   -5.4120   -2.3790 C.ar   46  TYR46      -0.0009
     56  CE1      -22.5080   -7.2000   -4.2480 C.ar   46  TYR46       0.0417
     57  CE2      -22.9230   -6.5920   -1.9540 C.ar   46  TYR46       0.0417
     58  CZ       -22.4140   -7.4800   -2.8900 C.ar   46  TYR46       0.1957
     59  OH       -21.8040   -8.6430   -2.4580 O.3    46  TYR46      -0.2866
     60  N        -17.2450  -14.7790   -1.8340 N.3    81  VAL81      -0.1245
     61  CA       -18.5970  -14.5480   -1.3450 C.3    81  VAL81       0.1561
     62  C        -18.5620  -13.9380    0.0700 C.2    81  VAL81       0.2260
     63  O        -19.2210  -12.9270    0.3620 O.2    81  VAL81      -0.2867
     64  CB       -19.4190  -15.8500   -1.3040 C.3    81  VAL81       0.0252
     65  CG1      -20.7380  -15.6190   -0.5690 C.3    81  VAL81       0.0019
     66  CG2      -19.6600  -16.3940   -2.7080 C.3    81  VAL81       0.0019
     67  N        -19.1530  -10.0950    1.6500 N.3    85  CYS85      -0.1235
     68  CA       -20.1710   -9.9440    2.6720 C.3    85  CYS85       0.1677
     69  C        -19.6300   -9.1040    3.8170 C.2    85  CYS85       0.2270
     70  O        -20.3330   -8.2500    4.3600 O.2    85  CYS85      -0.2867
     71  CB       -20.6330  -11.3170    3.1890 C.3    85  CYS85       0.0956
     72  SG       -21.8970  -11.2320    4.5000 S.3    85  CYS85      -0.0801
     73  N        -19.3100   -5.3300    2.8800 N.3    88  PHE88      -0.1227
     74  CA       -20.5370   -4.5600    2.7160 C.3    88  PHE88       0.1736
     75  C        -21.4350   -4.5230    3.9440 C.2    88  PHE88       0.2595
     76  O        -22.3210   -3.6680    4.0360 O.2    88  PHE88      -0.2718
     77  CB       -21.3410   -5.1090    1.5340 C.3    88  PHE88       0.0547
     78  CG       -22.3240   -4.1170    0.9540 C.ar   88  PHE88      -0.0202
     79  CD1      -21.8890   -3.1020    0.1100 C.ar   88  PHE88      -0.0042
     80  CD2      -23.6770   -4.2140    1.2350 C.ar   88  PHE88      -0.0042
     81  CE1      -22.7870   -2.1960   -0.4430 C.ar   88  PHE88      -0.0003
     82  CE2      -24.5820   -3.3160    0.6850 C.ar   88  PHE88      -0.0003
     83  CZ       -24.1370   -2.3050   -0.1550 C.ar   88  PHE88      -0.0000
     84  N        -21.2220   -5.4420    4.8800 N.am   89  ASN89      -0.1974
     85  CA       -22.1430   -5.5920    5.9980 C.3    89  ASN89       0.1688
     86  C        -21.4470   -5.5030    7.3380 C.2    89  ASN89       0.2292
     87  O        -20.3280   -5.9880    7.5080 O.2    89  ASN89      -0.2864
     88  CB       -22.8890   -6.9310    5.9230 C.3    89  ASN89       0.1181
     89  CG       -23.6430   -7.1170    4.6230 C.2    89  ASN89       0.2629
     90  OD1      -24.7720   -6.6490    4.4720 O.2    89  ASN89      -0.2716
     91  ND2      -23.0390   -7.8420    3.6880 N.am   89  ASN89      -0.0877
     92  N        -27.1110  -10.4620    8.0840 N.3    95  ILE95      -0.1245
     93  CA       -26.3350  -10.9010    6.9310 C.3    95  ILE95       0.1561
     94  C        -24.8580  -11.0320    7.3070 C.2    95  ILE95       0.2260
     95  O        -24.1960  -11.9950    6.9240 O.2    95  ILE95      -0.2867
     96  CB       -26.5110   -9.9280    5.7460 C.3    95  ILE95       0.0252
     97  CG1      -27.9370  -10.0280    5.2020 C.3    95  ILE95       0.0019
     98  CG2      -25.4980  -10.2100    4.6580 C.3    95  ILE95       0.0019
     99  CD1      -28.2830   -8.9460    4.1870 C.3    95  ILE95       0.0001
@<TRIPOS>BOND
     1    22    21    2
     2    33    31    1
     3    26    27    1
     4    31    32    1
     5    31    30    1
     6    21    20    1
     7    27    30    1
     8    27    28    1
     9    19    20    1
    10    50    51    2
    11    50    49    1
    12    20    23    1
    13    54    56   ar
    14    54    53   ar
    15    34    28   am
    16    34    35    1
    17    37    36    2
    18    28    29    2
    19    23    24    1
    20    23    25    1
    21    56    58   ar
    22    52    49    1
    23    52    53    1
    24    49    48    1
    25    53    55   ar
    26    36    35    1
    27    36    41   am
    28    35    38    1
    29    42    41    1
    30    42    43    1
    31    42    45    1
    32    38    40    1
    33    38    39    1
    34    41    47    1
    35    58    59    1
    36    58    57   ar
    37    66    64    1
    38    11    10    2
    39    43    44    2
    40    55    57   ar
    41    45    46    1
    42    47    46    1
    43    10     9    1
    44    60    61    1
    45    61    64    1
    46    61    62    1
    47    64    65    1
    48     9    12    1
    49     9     8    1
    50    81    83   ar
    51    81    79   ar
    52     4     3    2
    53    83    82   ar
    54    12    13    1
    55    62    63    2
    56    79    78   ar
    57     8     3   am
    58     3     2    1
    59    82    80   ar
    60    78    80   ar
    61    78    77    1
    62    14    13   ar
    63    14    16   ar
    64    13    15   ar
    65    77    74    1
    66    67    68    1
    67     2     1    1
    68     2     5    1
    69     1     7    1
    70    16    18   ar
    71    15    17   ar
    72    68    71    1
    73    68    69    1
    74    74    73    1
    75    74    75    1
    76     5     6    1
    77    71    72    1
    78    18    17   ar
    79     7     6    1
    80    91    89   am
    81    69    70    2
    82    75    76    2
    83    75    84   am
    84    99    97    1
    85    90    89    2
    86    89    88    1
    87    98    96    1
    88    84    85    1
    89    97    96    1
    90    96    93    1
    91    88    85    1
    92    85    86    1
    93    95    94    2
    94    93    94    1
    95    93    92    1
    96    86    87    2
