@<TRIPOS>MOLECULE
tmp/5mggA00.pdb
 84 80 0 0 0
SMALL
GASTEIGER

@<TRIPOS>ATOM
      1  N         28.4520   15.4050    2.6210 N.3    33  PRO33      -0.2102
      2  CA        28.0050   14.1810    1.9390 C.3    33  PRO33       0.1504
      3  C         27.1100   14.4580    0.7210 C.2    33  PRO33       0.2575
      4  O         26.7560   13.5060    0.0250 O.2    33  PRO33      -0.2718
      5  CB        27.1920   13.4370    3.0140 C.3    33  PRO33       0.0282
      6  CG        27.5120   14.1470    4.3470 C.3    33  PRO33       0.0208
      7  CD        27.7970   15.5650    3.9330 C.3    33  PRO33       0.0893
      8  N         26.7430   15.7190    0.4930 N.am   34  PHE34      -0.1977
      9  CA        25.6930   16.0550   -0.4780 C.3    34  PHE34       0.1639
     10  C         26.1340   16.9730   -1.6220 C.2    34  PHE34       0.2290
     11  O         25.3140   17.3840   -2.4540 O.2    34  PHE34      -0.2864
     12  CB        24.5200   16.7010    0.2650 C.3    34  PHE34       0.0560
     13  CG        24.1640   15.9870    1.5440 C.ar   34  PHE34      -0.0200
     14  CD1       23.5610   14.7310    1.5030 C.ar   34  PHE34      -0.0042
     15  CD2       24.4600   16.5580    2.7920 C.ar   34  PHE34      -0.0042
     16  CE1       23.2500   14.0570    2.6720 C.ar   34  PHE34      -0.0003
     17  CE2       24.1530   15.8910    3.9680 C.ar   34  PHE34      -0.0003
     18  CZ        23.5480   14.6440    3.9230 C.ar   34  PHE34      -0.0000
     19  N         26.4010   10.7390   -5.4970 N.3    38  VAL38      -0.1245
     20  CA        26.9820    9.5230   -4.9420 C.3    38  VAL38       0.1561
     21  C         27.5960    8.7270   -6.1000 C.2    38  VAL38       0.2260
     22  O         26.9790    8.5780   -7.1570 O.2    38  VAL38      -0.2867
     23  CB        25.9340    8.6870   -4.1700 C.3    38  VAL38       0.0252
     24  CG1       26.4380    7.2670   -3.9260 C.3    38  VAL38       0.0019
     25  CG2       25.5650    9.3810   -2.8490 C.3    38  VAL38       0.0019
     26  N         29.8470    2.8570   -4.4830 N.3    43  VAL43      -0.1245
     27  CA        28.9720    2.6610   -3.3380 C.3    43  VAL43       0.1561
     28  C         28.0280    1.5120   -3.6110 C.2    43  VAL43       0.2260
     29  O         27.1290    1.6160   -4.4480 O.2    43  VAL43      -0.2867
     30  CB        28.1670    3.9240   -2.9920 C.3    43  VAL43       0.0252
     31  CG1       27.3160    3.6750   -1.7490 C.3    43  VAL43       0.0019
     32  CG2       29.1120    5.1010   -2.7750 C.3    43  VAL43       0.0019
     33  N         23.6880    1.3830   -3.8190 N.3    46  TYR46      -0.1241
     34  CA        23.0260    2.6880   -3.9830 C.3    46  TYR46       0.1605
     35  C         22.1670    2.7870   -5.2550 C.2    46  TYR46       0.2264
     36  O         21.0030    3.1960   -5.1990 O.2    46  TYR46      -0.2867
     37  CB        24.0530    3.8240   -3.9790 C.3    46  TYR46       0.0534
     38  CG        23.4500    5.1440   -3.5290 C.ar   46  TYR46      -0.0201
     39  CD1       22.9270    6.0470   -4.4560 C.ar   46  TYR46      -0.0009
     40  CD2       23.3790    5.4690   -2.1750 C.ar   46  TYR46      -0.0009
     41  CE1       22.3640    7.2500   -4.0510 C.ar   46  TYR46       0.0417
     42  CE2       22.8160    6.6770   -1.7540 C.ar   46  TYR46       0.0417
     43  CZ        22.3090    7.5590   -2.7000 C.ar   46  TYR46       0.1957
     44  OH        21.7500    8.7530   -2.2980 O.3    46  TYR46      -0.2866
     45  N         17.1540   14.8700   -1.5650 N.3    81  VAL81      -0.1245
     46  CA        18.5150   14.6470   -1.1120 C.3    81  VAL81       0.1561
     47  C         18.4980   14.0370    0.2970 C.2    81  VAL81       0.2260
     48  O         19.1610   13.0330    0.5680 O.2    81  VAL81      -0.2867
     49  CB        19.3320   15.9590   -1.0950 C.3    81  VAL81       0.0252
     50  CG1       20.6510   15.7450   -0.3610 C.3    81  VAL81       0.0019
     51  CG2       19.5700   16.5090   -2.5470 C.3    81  VAL81       0.0019
     52  N         19.0750   10.1700    1.7760 N.3    85  CYS85      -0.1235
     53  CA        20.0530   10.0010    2.8420 C.3    85  CYS85       0.1677
     54  C         19.4800    9.1400    3.9660 C.2    85  CYS85       0.2270
     55  O         20.1550    8.2450    4.4730 O.2    85  CYS85      -0.2867
     56  CB        20.5020   11.3560    3.3860 C.3    85  CYS85       0.0956
     57  SG        21.8050   11.2580    4.6420 S.3    85  CYS85      -0.0801
     58  N         19.1420    5.4120    3.0730 N.3    88  PHE88      -0.1227
     59  CA        20.3540    4.6320    2.8820 C.3    88  PHE88       0.1736
     60  C         21.2510    4.5890    4.1120 C.2    88  PHE88       0.2595
     61  O         22.0010    3.6320    4.3100 O.2    88  PHE88      -0.2718
     62  CB        21.1560    5.1820    1.6900 C.3    88  PHE88       0.0547
     63  CG        22.1130    4.1770    1.1040 C.ar   88  PHE88      -0.0202
     64  CD1       21.6470    3.1450    0.2980 C.ar   88  PHE88      -0.0042
     65  CD2       23.4700    4.2560    1.3650 C.ar   88  PHE88      -0.0042
     66  CE1       22.5180    2.2010   -0.2510 C.ar   88  PHE88      -0.0003
     67  CE2       24.3470    3.3310    0.8200 C.ar   88  PHE88      -0.0003
     68  CZ        23.8690    2.2930    0.0130 C.ar   88  PHE88      -0.0000
     69  N         21.1790    5.6280    4.9330 N.am   89  ASN89      -0.1974
     70  CA        22.1080    5.7730    6.0400 C.3    89  ASN89       0.1688
     71  C         21.4090    5.6410    7.3900 C.2    89  ASN89       0.2292
     72  O         20.2760    6.0990    7.5580 O.2    89  ASN89      -0.2864
     73  CB        22.8290    7.1210    5.9480 C.3    89  ASN89       0.1181
     74  CG        23.6140    7.2860    4.6470 C.2    89  ASN89       0.2629
     75  OD1       24.7520    6.8290    4.5440 O.2    89  ASN89      -0.2716
     76  ND2       23.0190    7.9730    3.6580 N.am   89  ASN89      -0.0877
     77  N         26.9280   10.4430    8.2530 N.3    95  ILE95      -0.1245
     78  CA        26.1810   10.9110    7.0840 C.3    95  ILE95       0.1561
     79  C         24.6970   11.0610    7.4200 C.2    95  ILE95       0.2260
     80  O         24.0730   12.0650    7.0740 O.2    95  ILE95      -0.2867
     81  CB        26.3500    9.9640    5.8750 C.3    95  ILE95       0.0252
     82  CG1       27.8100    9.9400    5.4330 C.3    95  ILE95       0.0019
     83  CG2       25.4530   10.3990    4.7240 C.3    95  ILE95       0.0019
     84  CD1       28.0730    9.0210    4.2700 C.3    95  ILE95       0.0001
@<TRIPOS>BOND
     1    22    21    2
     2    21    20    1
     3    19    20    1
     4    35    36    2
     5    35    34    1
     6    20    23    1
     7    26    27    1
     8    39    41   ar
     9    39    38   ar
    10    29    28    2
    11    23    24    1
    12    23    25    1
    13    41    43   ar
    14    34    37    1
    15    34    33    1
    16    37    38    1
    17    28    27    1
    18    38    40   ar
    19    27    30    1
    20    30    32    1
    21    30    31    1
    22    43    44    1
    23    43    42   ar
    24    51    49    1
    25    11    10    2
    26    40    42   ar
    27    10     9    1
    28    45    46    1
    29    46    49    1
    30    46    47    1
    31    49    50    1
    32     9    12    1
    33     9     8    1
    34    66    68   ar
    35    66    64   ar
    36    68    67   ar
    37     4     3    2
    38    12    13    1
    39    47    48    2
    40    64    63   ar
    41     8     3   am
    42     3     2    1
    43    67    65   ar
    44    63    65   ar
    45    63    62    1
    46    14    13   ar
    47    14    16   ar
    48    13    15   ar
    49    62    59    1
    50    52    53    1
    51     2     1    1
    52     2     5    1
    53     1     7    1
    54    16    18   ar
    55    15    17   ar
    56    53    56    1
    57    53    54    1
    58    59    58    1
    59    59    60    1
    60     5     6    1
    61    56    57    1
    62    76    74   am
    63    18    17   ar
    64     7     6    1
    65    54    55    2
    66    60    61    2
    67    60    69   am
    68    84    82    1
    69    75    74    2
    70    74    73    1
    71    83    81    1
    72    69    70    1
    73    82    81    1
    74    81    78    1
    75    73    70    1
    76    70    71    1
    77    80    79    2
    78    78    79    1
    79    78    77    1
    80    71    72    2
