@<TRIPOS>MOLECULE
tmp/5mgiA00.pdb
 104 96 0 0 0
SMALL
GASTEIGER

@<TRIPOS>ATOM
      1  N         -5.5390    5.0690   -6.5950 N.3    44  SER44      -0.1217
      2  CA        -4.8100    3.8180   -6.7640 C.3    44  SER44       0.1889
      3  C         -4.4290    3.5120   -8.2000 C.2    44  SER44       0.2288
      4  O         -3.6980    2.5410   -8.4140 O.2    44  SER44      -0.2866
      5  CB        -5.6170    2.6240   -6.2530 C.3    44  SER44       0.2089
      6  OG        -5.5700    2.5870   -4.8390 O.3    44  SER44      -0.2183
      7  N         -0.8890    2.5460   -9.3100 N.3    47  LYS47      -0.1245
      8  CA        -0.2700    1.2520   -9.0440 C.3    47  LYS47       0.1561
      9  C         -0.0120    0.4560  -10.3220 C.2    47  LYS47       0.2260
     10  O          0.8830   -0.4040  -10.3430 O.2    47  LYS47      -0.2867
     11  CB        -1.1630    0.4580   -8.0820 C.3    47  LYS47       0.0271
     12  CG        -1.2350    1.0570   -6.6790 C.3    47  LYS47       0.0035
     13  CD        -2.3920    0.4720   -5.8770 C.3    47  LYS47       0.0206
     14  CE        -2.4000    1.0810   -4.4750 C.3    47  LYS47       0.1093
     15  NZ        -3.7010    0.9230   -3.7390 N.3    47  LYS47      -0.1314
     16  N         -6.4190   -2.2430    3.8490 N.3    79  TRP79      -0.1241
     17  CA        -6.7160   -2.7980    2.5250 C.3    79  TRP79       0.1605
     18  C         -5.4400   -3.2930    1.8340 C.2    79  TRP79       0.2264
     19  O         -5.0630   -2.8550    0.7310 O.2    79  TRP79      -0.2867
     20  CB        -7.4770   -1.7960    1.6480 C.3    79  TRP79       0.0550
     21  CG        -8.7360   -1.2460    2.2800 C.ar   79  TRP79       0.0003
     22  CD1       -9.9350   -1.8930    2.4540 C.ar   79  TRP79       0.0946
     23  CD2       -8.9060    0.0670    2.8160 C.ar   79  TRP79       0.0152
     24  NE1      -10.8410   -1.0540    3.0660 N.ar   79  TRP79      -0.2442
     25  CE2      -10.2370    0.1580    3.2950 C.ar   79  TRP79       0.0810
     26  CE3       -8.0660    1.1840    2.9270 C.ar   79  TRP79       0.0012
     27  CZ2      -10.7450    1.3240    3.8760 C.ar   79  TRP79       0.0191
     28  CZ3       -8.5670    2.3350    3.5050 C.ar   79  TRP79       0.0001
     29  CH2       -9.8980    2.3970    3.9720 C.ar   79  TRP79       0.0015
     30  N         -5.2710   -3.8840   -5.7900 N.3   104  SER104     -0.1217
     31  CA        -4.9480   -2.5780   -5.2620 C.3   104  SER104      0.1889
     32  C         -4.2880   -2.6430   -3.8840 C.2   104  SER104      0.2288
     33  O         -4.4130   -1.7730   -3.1350 O.2   104  SER104     -0.2866
     34  CB        -6.2050   -1.6930   -5.1360 C.3   104  SER104      0.2089
     35  OG        -6.4720   -1.0470   -6.3100 O.3   104  SER104     -0.2183
     36  N         -2.3410   -2.1120   -0.7830 N.3   106  ASN106     -0.1240
     37  CA        -1.6380   -0.8830   -0.4130 C.3   106  ASN106      0.1653
     38  C         -0.2390   -1.1580    0.1280 C.2   106  ASN106      0.2266
     39  O          0.7080   -0.4420   -0.2160 O.2   106  ASN106     -0.2867
     40  CB        -2.4650   -0.0840    0.5980 C.3   106  ASN106      0.1155
     41  CG        -3.5890    0.6820   -0.0580 C.2   106  ASN106      0.2627
     42  OD1       -3.3810    1.3680   -1.0560 O.2   106  ASN106     -0.2716
     43  ND2       -4.7940    0.5620    0.4890 N.am  106  ASN106     -0.0877
     44  N          0.8200    5.7360   -0.1190 N.3   140  GLU140     -0.1231
     45  CA        -0.4680    5.3030    0.4460 C.3   140  GLU140      0.1699
     46  C         -0.3900    5.4830    1.9690 C.2   140  GLU140      0.2592
     47  O          0.6530    5.1530    2.5500 O.2   140  GLU140     -0.2718
     48  CB        -0.7740    3.8450    0.0850 C.3   140  GLU140      0.0402
     49  CG        -1.0980    3.6090   -1.3870 C.3   140  GLU140      0.1161
     50  CD        -2.4710    4.1310   -1.7950 C.2   140  GLU140      0.3649
     51  OE1       -3.1630    4.7600   -0.9670 O.co2 140  GLU140     -0.2457
     52  OE2       -2.8780    3.8980   -2.9600 O.co2 140  GLU140     -0.2457
     53  N         -1.4330    5.9970    2.6430 N.am  141  LEU141     -0.1980
     54  CA        -2.7370    6.3980    2.0850 C.3   141  LEU141      0.1596
     55  C         -2.8790    7.9110    1.8180 C.2   141  LEU141      0.2287
     56  O         -3.9310    8.3550    1.3490 O.2   141  LEU141     -0.2864
     57  CB        -3.8640    5.9800    3.0440 C.3   141  LEU141      0.0297
     58  CG        -3.9870    4.4890    3.3640 C.3   141  LEU141      0.0022
     59  CD1       -4.8440    4.2750    4.6170 C.3   141  LEU141      0.0001
     60  CD2       -4.5780    3.7330    2.1820 C.3   141  LEU141      0.0001
     61  N         -4.4420   10.0160   -1.3930 N.3   144  ASN144     -0.1240
     62  CA        -5.8500    9.9660   -1.7690 C.3   144  ASN144      0.1653
     63  C         -6.6330   11.2270   -1.4100 C.2   144  ASN144      0.2266
     64  O         -7.8580   11.2320   -1.5710 O.2   144  ASN144     -0.2867
     65  CB        -6.5420    8.7670   -1.1020 C.3   144  ASN144      0.1155
     66  CG        -6.0200    7.4310   -1.5970 C.2   144  ASN144      0.2627
     67  OD1       -6.3660    6.9860   -2.6960 O.2   144  ASN144     -0.2716
     68  ND2       -5.2020    6.7690   -0.7770 N.am  144  ASN144     -0.0877
     69  N        -10.7740   -5.6750   -9.5500 N.3   190  THR190     -0.1218
     70  CA       -11.4620   -4.5390   -8.9260 C.3   190  THR190      0.1862
     71  C        -12.3020   -3.7120   -9.8870 C.2   190  THR190      0.2287
     72  O        -12.9310   -2.7390   -9.4510 O.2   190  THR190     -0.2866
     73  CB       -10.4510   -3.5910   -8.2690 C.3   190  THR190      0.1770
     74  OG1       -9.6770   -2.9560   -9.2910 O.3   190  THR190     -0.2211
     75  CG2       -9.5160   -4.3240   -7.3290 C.3   190  THR190      0.0375
     76  N        -16.7480   -0.9090  -13.9540 N.3   194  ARG194     -0.1245
     77  CA       -16.2920    0.3320  -14.5690 C.3   194  ARG194      0.1563
     78  C        -16.1330    0.1110  -16.0730 C.2   194  ARG194      0.2260
     79  O        -17.1220   -0.2150  -16.7360 O.2   194  ARG194     -0.2867
     80  CB       -15.0320    0.8170  -13.8410 C.3   194  ARG194      0.0307
     81  CG       -15.3770    1.2280  -12.4100 C.3   194  ARG194      0.0489
     82  CD       -14.2360    1.8230  -11.6000 C.3   194  ARG194      0.2205
     83  NE       -14.5920    1.8740  -10.1700 N.pl3 194  ARG194     -0.0865
     84  CZ       -13.9160    2.5270   -9.2220 C.cat 194  ARG194      0.5346
     85  NH1      -12.8180    3.2190   -9.5100 N.pl3 194  ARG194      0.1354
     86  NH2      -14.3510    2.4940   -7.9670 N.pl3 194  ARG194      0.1354
     87  N         -8.0830    0.3130  -11.6700 N.3   209  THR209     -0.1203
     88  CA        -8.9870    1.2580  -11.0280 C.3   209  THR209      0.1994
     89  C         -8.2670    2.1920  -10.0540 C.2   209  THR209      0.2618
     90  O         -7.1620    1.9190   -9.5710 O.2   209  THR209     -0.2717
     91  CB       -10.0700    0.5080  -10.2500 C.3   209  THR209      0.1784
     92  OG1       -9.4440   -0.4230   -9.3470 O.3   209  THR209     -0.2211
     93  CG2      -10.9920   -0.2320  -11.1880 C.3   209  THR209      0.0376
     94  N         -8.9330    3.3040   -9.7580 N.am  210  GLY210     -0.1942
     95  CA        -8.5370    4.1180   -8.6190 C.3   210  GLY210      0.2014
     96  C         -9.7540    4.6890   -7.9250 C.2   210  GLY210      0.2639
     97  O        -10.7310    5.0390   -8.5940 O.2   210  GLY210     -0.2714
     98  N         -9.7180    4.8020   -6.5940 N.am  211  THR211     -0.1950
     99  CA       -10.8350    5.3680   -5.8390 C.3   211  THR211      0.1897
    100  C        -10.2470    6.1570   -4.6720 C.2   211  THR211      0.2313
    101  O         -9.6950    5.5690   -3.7330 O.2   211  THR211     -0.2863
    102  CB       -11.7990    4.2840   -5.3300 C.3   211  THR211      0.1794
    103  OG1      -12.1920    3.4170   -6.4030 O.3   211  THR211     -0.2208
    104  CG2      -13.0710    4.9150   -4.7330 C.3   211  THR211      0.0378
@<TRIPOS>BOND
     1    79    78    2
     2    78    77    1
     3    77    76    1
     4    77    80    1
     5    80    81    1
     6    81    82    1
     7    87    88    1
     8    82    83    1
     9    93    91    1
    10    88    91    1
    11    88    89    1
    12    10     9    2
    13     9     8    1
    14    91    92    1
    15    83    84    2
    16    89    94   am
    17    89    90    2
    18    71    72    2
    19    71    70    1
    20    94    95    1
    21    69    70    1
    22    85    84    1
    23     7     8    1
    24    74    73    1
    25    84    86    1
    26     8    11    1
    27    70    73    1
    28    95    96    1
    29    97    96    2
    30     4     3    2
    31    73    75    1
    32     3     2    1
    33    11    12    1
    34    96    98   am
    35     2     1    1
    36     2     5    1
    37    12    13    1
    38    98    99    1
    39   103   102    1
    40    35    34    1
    41     5     6    1
    42    13    14    1
    43    99   102    1
    44    99   100    1
    45    30    31    1
    46   102   104    1
    47    31    34    1
    48    31    32    1
    49   100   101    2
    50    14    15    1
    51    32    33    2
    52    52    50   ar
    53    67    66    2
    54    50    49    1
    55    50    51   ar
    56    62    63    1
    57    62    61    1
    58    62    65    1
    59    66    65    1
    60    66    68   am
    61    64    63    2
    62    49    48    1
    63    42    41    2
    64    36    37    1
    65    37    38    1
    66    37    40    1
    67    39    38    2
    68    44    45    1
    69    41    43   am
    70    41    40    1
    71    48    45    1
    72    45    46    1
    73    19    18    2
    74    56    55    2
    75    20    21    1
    76    20    17    1
    77    55    54    1
    78    18    17    1
    79    46    47    2
    80    46    53   am
    81    54    53    1
    82    54    57    1
    83    60    58    1
    84    21    22   ar
    85    21    23   ar
    86    22    24   ar
    87    17    16    1
    88    23    26   ar
    89    23    25   ar
    90    26    28   ar
    91    57    58    1
    92    24    25   ar
    93    25    27   ar
    94    58    59    1
    95    28    29   ar
    96    27    29   ar
