@<TRIPOS>MOLECULE
tmp/5mgjA00.pdb
 122 118 0 0 0
SMALL
GASTEIGER

@<TRIPOS>ATOM
      1  N         39.1270  -36.2440   36.5210 N.3    21  TRP21      -0.1228
      2  CA        40.0350  -36.6280   35.4310 C.3    21  TRP21       0.1722
      3  C         39.3540  -36.9250   34.0560 C.2    21  TRP21       0.2437
      4  O         39.9620  -36.6730   33.0170 O.2    21  TRP21      -0.2733
      5  CB        40.8970  -37.8280   35.8810 C.3    21  TRP21       0.0563
      6  CG        40.0920  -39.0340   36.2760 C.ar   21  TRP21       0.0003
      7  CD1       39.6030  -39.3250   37.5120 C.ar   21  TRP21       0.0946
      8  CD2       39.6560  -40.0910   35.4140 C.ar   21  TRP21       0.0152
      9  NE1       38.8960  -40.5030   37.4820 N.ar   21  TRP21      -0.2442
     10  CE2       38.9020  -40.9920   36.1980 C.ar   21  TRP21       0.0810
     11  CE3       39.8160  -40.3600   34.0460 C.ar   21  TRP21       0.0012
     12  CZ2       38.3220  -42.1450   35.6770 C.ar   21  TRP21       0.0191
     13  CZ3       39.2410  -41.5060   33.5220 C.ar   21  TRP21       0.0001
     14  CH2       38.5010  -42.3880   34.3350 C.ar   21  TRP21       0.0015
     15  N         38.0930  -37.4280   34.0250 N.am   22  PRO22      -0.2718
     16  CA        37.5580  -37.6220   32.6630 C.3    22  PRO22       0.1535
     17  C         37.1100  -36.3490   31.9630 C.2    22  PRO22       0.2598
     18  O         36.8670  -36.3900   30.7480 O.2    22  PRO22      -0.2715
     19  CB        36.3380  -38.5300   32.8850 C.3    22  PRO22       0.0310
     20  CG        36.5190  -39.1200   34.2540 C.3    22  PRO22       0.0237
     21  CD        37.2150  -38.0520   35.0360 C.3    22  PRO22       0.0939
     22  N         37.0050  -35.2460   32.7010 N.am   23  PHE23      -0.1974
     23  CA        36.2770  -34.0670   32.2200 C.3    23  PHE23       0.1639
     24  C         37.1520  -32.8250   32.0790 C.2    23  PHE23       0.2290
     25  O         36.6670  -31.7450   31.7430 O.2    23  PHE23      -0.2864
     26  CB        35.1020  -33.7780   33.1610 C.3    23  PHE23       0.0560
     27  CG        34.3190  -35.0060   33.5190 C.ar   23  PHE23      -0.0200
     28  CD1       33.5730  -35.6670   32.5480 C.ar   23  PHE23      -0.0042
     29  CD2       34.3710  -35.5360   34.8100 C.ar   23  PHE23      -0.0042
     30  CE1       32.8840  -36.8080   32.8450 C.ar   23  PHE23      -0.0003
     31  CE2       33.6580  -36.6930   35.1350 C.ar   23  PHE23      -0.0003
     32  CZ        32.9160  -37.3300   34.1540 C.ar   23  PHE23      -0.0000
     33  N         39.6160  -32.2830   29.9070 N.3    25  GLU25      -0.1245
     34  CA        39.9130  -31.9650   28.5050 C.3    25  GLU25       0.1567
     35  C         38.8530  -32.5330   27.5690 C.2    25  GLU25       0.2260
     36  O         38.2130  -33.5250   27.9160 O.2    25  GLU25      -0.2867
     37  CB        41.2920  -32.5200   28.1170 C.3    25  GLU25       0.0388
     38  CG        42.4660  -31.8410   28.8210 C.3    25  GLU25       0.1160
     39  CD        42.6610  -30.3990   28.3730 C.2    25  GLU25       0.3649
     40  OE1       42.4490  -30.1190   27.1680 O.co2  25  GLU25      -0.2457
     41  OE2       43.0210  -29.5500   29.2270 O.co2  25  GLU25      -0.2457
     42  N         36.9810  -34.7610   24.9830 N.3    27  VAL27      -0.1245
     43  CA        37.1690  -36.1550   24.6160 C.3    27  VAL27       0.1561
     44  C         37.8040  -36.2280   23.2290 C.2    27  VAL27       0.2260
     45  O         37.4000  -35.5160   22.3140 O.2    27  VAL27      -0.2867
     46  CB        35.8340  -36.9320   24.6380 C.3    27  VAL27       0.0252
     47  CG1       35.9980  -38.3180   24.0340 C.3    27  VAL27       0.0019
     48  CG2       35.3100  -37.0260   26.0790 C.3    27  VAL27       0.0019
     49  N         38.3610  -42.4990   21.3170 N.3    32  VAL32      -0.1245
     50  CA        37.1450  -43.0550   21.8810 C.3    32  VAL32       0.1561
     51  C         36.1230  -43.3840   20.7980 C.2    32  VAL32       0.2260
     52  O         35.3910  -42.5180   20.3110 O.2    32  VAL32      -0.2867
     53  CB        36.5340  -42.1050   22.9240 C.3    32  VAL32       0.0252
     54  CG1       35.3560  -42.7540   23.5780 C.3    32  VAL32       0.0019
     55  CG2       37.5820  -41.7400   23.9850 C.3    32  VAL32       0.0019
     56  N         32.3320  -42.0110   19.8870 N.3    35  TYR35      -0.1241
     57  CA        32.0110  -40.8060   20.6460 C.3    35  TYR35       0.1605
     58  C         31.3940  -39.7320   19.7510 C.2    35  TYR35       0.2264
     59  O         30.3640  -39.1520   20.0970 O.2    35  TYR35      -0.2867
     60  CB        33.2400  -40.2480   21.3800 C.3    35  TYR35       0.0534
     61  CG        32.8330  -39.2680   22.4610 C.ar   35  TYR35      -0.0201
     62  CD1       32.3980  -39.7180   23.7040 C.ar   35  TYR35      -0.0009
     63  CD2       32.8350  -37.9000   22.2260 C.ar   35  TYR35      -0.0009
     64  CE1       31.9960  -38.8310   24.6930 C.ar   35  TYR35       0.0417
     65  CE2       32.4310  -37.0080   23.2020 C.ar   35  TYR35       0.0417
     66  CZ        32.0190  -37.4780   24.4340 C.ar   35  TYR35       0.1957
     67  OH        31.6090  -36.5960   25.4040 O.3    35  TYR35      -0.2866
     68  N         31.3280  -31.3030   25.7270 N.3    43  MET43      -0.1245
     69  CA        31.6330  -30.2230   26.6490 C.3    43  MET43       0.1570
     70  C         32.5860  -30.7320   27.7260 C.2    43  MET43       0.2261
     71  O         32.5710  -31.9160   28.0730 O.2    43  MET43      -0.2867
     72  CB        30.3500  -29.6480   27.2570 C.3    43  MET43       0.0387
     73  CG        30.5660  -28.4240   28.1620 C.3    43  MET43       0.0595
     74  SD        31.4930  -27.0730   27.3610 S.3    43  MET43      -0.1393
     75  CE        30.3940  -26.6260   26.0140 C.3    43  MET43       0.0692
     76  N         28.0640  -31.5770   30.5030 N.3    70  VAL70      -0.1245
     77  CA        29.1780  -32.4830   30.7690 C.3    70  VAL70       0.1561
     78  C         28.6510  -33.8320   31.3000 C.2    70  VAL70       0.2260
     79  O         28.9830  -34.8950   30.7740 O.2    70  VAL70      -0.2867
     80  CB        30.1810  -31.8800   31.7810 C.3    70  VAL70       0.0252
     81  CG1       31.2450  -32.9000   32.1530 C.3    70  VAL70       0.0019
     82  CG2       30.8290  -30.6070   31.2210 C.3    70  VAL70       0.0019
     83  N         26.1440  -35.7870   28.8590 N.3    73  ASN73      -0.1225
     84  CA        27.0300  -36.4940   27.9250 C.3    73  ASN73       0.1785
     85  C         27.6400  -37.7290   28.5400 C.2    73  ASN73       0.2597
     86  O         27.7150  -38.7810   27.9060 O.2    73  ASN73      -0.2718
     87  CB        28.1690  -35.6030   27.4480 C.3    73  ASN73       0.1169
     88  CG        27.7130  -34.5180   26.4910 C.2    73  ASN73       0.2627
     89  OD1       26.6330  -34.5910   25.9180 O.2    73  ASN73      -0.2716
     90  ND2       28.5580  -33.5160   26.2970 N.am   73  ASN73      -0.0877
     91  N         28.1070  -37.5840   29.7770 N.am   74  CYS74      -0.1970
     92  CA        28.7730  -38.6800   30.4610 C.3    74  CYS74       0.1712
     93  C         27.8380  -39.8800   30.6000 C.2    74  CYS74       0.2296
     94  O         28.2100  -41.0210   30.3010 O.2    74  CYS74      -0.2864
     95  CB        29.2620  -38.2340   31.8400 C.3    74  CYS74       0.0983
     96  SG        30.1790  -39.5130   32.6670 S.3    74  CYS74      -0.0798
     97  N         27.0180  -41.5580   27.1610 N.3    77  PHE77      -0.1227
     98  CA        28.0430  -42.3860   26.5410 C.3    77  PHE77       0.1736
     99  C         28.5760  -43.5220   27.3930 C.2    77  PHE77       0.2595
    100  O         29.0680  -44.5120   26.8600 O.2    77  PHE77      -0.2718
    101  CB        29.2360  -41.5400   26.1060 C.3    77  PHE77       0.0547
    102  CG        30.2480  -42.3180   25.3220 C.ar   77  PHE77      -0.0202
    103  CD1       30.0150  -42.6180   23.9840 C.ar   77  PHE77      -0.0042
    104  CD2       31.4020  -42.7860   25.9190 C.ar   77  PHE77      -0.0042
    105  CE1       30.9310  -43.3580   23.2570 C.ar   77  PHE77      -0.0003
    106  CE2       32.3200  -43.5160   25.1990 C.ar   77  PHE77      -0.0003
    107  CZ        32.0860  -43.7990   23.8650 C.ar   77  PHE77      -0.0000
    108  N         28.5240  -43.3730   28.7110 N.am   78  ASN78      -0.1974
    109  CA        29.1490  -44.3530   29.5940 C.3    78  ASN78       0.1688
    110  C         28.1580  -45.0980   30.4650 C.2    78  ASN78       0.2292
    111  O         27.2110  -44.5040   30.9660 O.2    78  ASN78      -0.2864
    112  CB        30.1770  -43.6730   30.5010 C.3    78  ASN78       0.1181
    113  CG        31.2220  -42.9230   29.7210 C.2    78  ASN78       0.2629
    114  OD1       32.1870  -43.5120   29.2500 O.2    78  ASN78      -0.2716
    115  ND2       31.0320  -41.6170   29.5730 N.am   78  ASN78      -0.0877
    116  N         34.5540  -44.2380   34.0840 N.3    84  VAL84      -0.1245
    117  CA        34.1680  -42.8670   33.7370 C.3    84  VAL84       0.1561
    118  C         32.7810  -42.5160   34.2760 C.2    84  VAL84       0.2260
    119  O         32.5690  -41.4350   34.8240 O.2    84  VAL84      -0.2867
    120  CB        34.1670  -42.6400   32.1950 C.3    84  VAL84       0.0252
    121  CG1       33.5630  -41.3010   31.8670 C.3    84  VAL84       0.0019
    122  CG2       35.5840  -42.7430   31.6350 C.3    84  VAL84       0.0019
@<TRIPOS>BOND
     1    58    59    2
     2    58    57    1
     3    56    57    1
     4    52    51    2
     5    57    60    1
     6    51    50    1
     7    49    50    1
     8    60    61    1
     9    50    53    1
    10    63    61   ar
    11    63    65   ar
    12    45    44    2
    13    61    62   ar
    14    53    54    1
    15    53    55    1
    16    65    66   ar
    17    44    43    1
    18   105   107   ar
    19   105   103   ar
    20    62    64   ar
    21   107   106   ar
    22   103   102   ar
    23    47    46    1
    24    66    64   ar
    25    66    67    1
    26    43    46    1
    27    43    42    1
    28    46    48    1
    29   106   104   ar
    30   102   104   ar
    31   102   101    1
    32    68    69    1
    33    89    88    2
    34    75    74    1
    35   101    98    1
    36    90    88   am
    37    88    87    1
    38    98    97    1
    39    98    99    1
    40    69    72    1
    41    69    70    1
    42   100    99    2
    43    40    39   ar
    44    72    73    1
    45    74    73    1
    46    99   108   am
    47    87    84    1
    48    35    36    2
    49    35    34    1
    50    70    71    2
    51    86    85    2
    52    84    85    1
    53    84    83    1
    54    37    34    1
    55    37    38    1
    56    39    38    1
    57    39    41   ar
    58    34    33    1
    59    85    91   am
    60   108   109    1
    61   114   113    2
    62   115   113   am
    63   109   110    1
    64   109   112    1
    65   113   112    1
    66    91    92    1
    67    94    93    2
    68    92    93    1
    69    92    95    1
    70   110   111    2
    71    76    77    1
    72    18    17    2
    73    77    78    1
    74    77    80    1
    75    79    78    2
    76    82    80    1
    77   122   120    1
    78    25    24    2
    79    80    81    1
    80    95    96    1
    81   121   120    1
    82    17    16    1
    83    17    22   am
    84    24    23    1
    85   120   117    1
    86    23    22    1
    87    23    26    1
    88    28    30   ar
    89    28    27   ar
    90    16    19    1
    91    16    15    1
    92    30    32   ar
    93    19    20    1
    94     4     3    2
    95    26    27    1
    96    27    29   ar
    97    13    11   ar
    98    13    14   ar
    99   117   116    1
   100   117   118    1
   101    15     3   am
   102    15    21    1
   103    11     8   ar
   104     3     2    1
   105    32    31   ar
   106    20    21    1
   107   118   119    2
   108    14    12   ar
   109    29    31   ar
   110     8    10   ar
   111     8     6   ar
   112     2     5    1
   113     2     1    1
   114    12    10   ar
   115     5     6    1
   116    10     9   ar
   117     6     7   ar
   118     9     7   ar
