@<TRIPOS>MOLECULE
tmp/5mgkA00.pdb
 127 124 0 0 0
SMALL
GASTEIGER

@<TRIPOS>ATOM
      1  N       -104.0020   46.4770   36.5550 N.3    21  TRP21      -0.1228
      2  CA      -103.0880   46.0560   35.4930 C.3    21  TRP21       0.1722
      3  C       -103.7290   45.7470   34.1220 C.2    21  TRP21       0.2437
      4  O       -103.0730   45.9340   33.0980 O.2    21  TRP21      -0.2733
      5  CB      -102.2700   44.8410   35.9600 C.3    21  TRP21       0.0563
      6  CG      -103.0810   43.6660   36.4090 C.ar   21  TRP21       0.0003
      7  CD1     -103.5670   43.4360   37.6630 C.ar   21  TRP21       0.0946
      8  CD2     -103.4890   42.5500   35.6080 C.ar   21  TRP21       0.0152
      9  NE1     -104.2600   42.2490   37.6910 N.ar   21  TRP21      -0.2442
     10  CE2     -104.2290   41.6870   36.4420 C.ar   21  TRP21       0.0810
     11  CE3     -103.3100   42.2020   34.2660 C.ar   21  TRP21       0.0012
     12  CZ2     -104.7840   40.4960   35.9790 C.ar   21  TRP21       0.0191
     13  CZ3     -103.8630   41.0190   33.8080 C.ar   21  TRP21       0.0001
     14  CH2     -104.5910   40.1800   34.6620 C.ar   21  TRP21       0.0015
     15  N       -104.9960   45.2830   34.0760 N.am   22  PRO22      -0.2718
     16  CA      -105.4820   45.0630   32.7080 C.3    22  PRO22       0.1535
     17  C       -105.9530   46.3400   32.0110 C.2    22  PRO22       0.2598
     18  O       -106.1970   46.3120   30.8040 O.2    22  PRO22      -0.2715
     19  CB      -106.6680   44.1030   32.9000 C.3    22  PRO22       0.0310
     20  CG      -106.5790   43.6190   34.3190 C.3    22  PRO22       0.0237
     21  CD      -105.9380   44.7350   35.0670 C.3    22  PRO22       0.0939
     22  N       -106.0700   47.4380   32.7520 N.am   23  PHE23      -0.1974
     23  CA      -106.7190   48.6350   32.2240 C.3    23  PHE23       0.1639
     24  C       -105.8050   49.8560   32.1530 C.2    23  PHE23       0.2290
     25  O       -106.2590   50.9570   31.8440 O.2    23  PHE23      -0.2864
     26  CB      -107.9480   48.9650   33.0710 C.3    23  PHE23       0.0560
     27  CG      -108.7590   47.7600   33.4450 C.ar   23  PHE23      -0.0200
     28  CD1     -109.5690   47.1380   32.5110 C.ar   23  PHE23      -0.0042
     29  CD2     -108.7020   47.2420   34.7280 C.ar   23  PHE23      -0.0042
     30  CE1     -110.3120   46.0260   32.8490 C.ar   23  PHE23      -0.0003
     31  CE2     -109.4430   46.1290   35.0730 C.ar   23  PHE23      -0.0003
     32  CZ      -110.2480   45.5210   34.1300 C.ar   23  PHE23      -0.0000
     33  N       -105.9760   47.8670   25.0620 N.3    27  VAL27      -0.1245
     34  CA      -105.8310   46.4770   24.6520 C.3    27  VAL27       0.1561
     35  C       -105.2280   46.3970   23.2530 C.2    27  VAL27       0.2260
     36  O       -105.6750   47.0880   22.3400 O.2    27  VAL27      -0.2867
     37  CB      -107.1840   45.7410   24.6710 C.3    27  VAL27       0.0252
     38  CG1     -107.0360   44.3300   24.1250 C.3    27  VAL27       0.0019
     39  CG2     -107.7540   45.7170   26.0800 C.3    27  VAL27       0.0019
     40  N       -102.6320   41.1960   19.7930 N.3    31  LEU31      -0.1231
     41  CA      -102.2950   40.1920   20.7960 C.3    31  LEU31       0.1693
     42  C       -103.5320   39.5130   21.3690 C.2    31  LEU31       0.2592
     43  O       -103.4430   38.4370   21.9610 O.2    31  LEU31      -0.2718
     44  CB      -101.4860   40.8280   21.9260 C.3    31  LEU31       0.0284
     45  CG      -100.1440   41.4340   21.5190 C.3    31  LEU31       0.0019
     46  CD1      -99.5270   42.2030   22.6770 C.3    31  LEU31       0.0001
     47  CD2      -99.2070   40.3450   21.0330 C.3    31  LEU31       0.0001
     48  N       -104.6860   40.1470   21.1970 N.am   32  VAL32      -0.1966
     49  CA      -105.9250   39.6290   21.7590 C.3    32  VAL32       0.1727
     50  C       -106.9290   39.3070   20.6580 C.2    32  VAL32       0.2616
     51  O       -107.5570   40.2020   20.0920 O.2    32  VAL32      -0.2715
     52  CB      -106.5450   40.6260   22.7510 C.3    32  VAL32       0.0290
     53  CG1     -107.7700   40.0240   23.4000 C.3    32  VAL32       0.0023
     54  CG2     -105.5240   41.0160   23.8090 C.3    32  VAL32       0.0023
     55  N       -107.0730   38.0180   20.3660 N.am   33  SER33      -0.1950
     56  CA      -107.9270   37.5580   19.2770 C.3    33  SER33       0.1924
     57  C       -109.4030   37.8550   19.5230 C.2    33  SER33       0.2314
     58  O       -109.9620   37.4720   20.5510 O.2    33  SER33      -0.2863
     59  CB      -107.7340   36.0560   19.0540 C.3    33  SER33       0.2116
     60  OG      -108.6270   35.5660   18.0690 O.3    33  SER33      -0.2180
     61  N       -110.8830   40.7780   19.9060 N.3    35  TYR35      -0.1241
     62  CA      -111.1760   41.9910   20.6650 C.3    35  TYR35       0.1605
     63  C       -111.6690   43.1190   19.7630 C.2    35  TYR35       0.2264
     64  O       -112.6000   43.8440   20.1160 O.2    35  TYR35      -0.2867
     65  CB      -109.9460   42.4530   21.4460 C.3    35  TYR35       0.0534
     66  CG      -110.2740   43.4370   22.5460 C.ar   35  TYR35      -0.0201
     67  CD1     -110.6730   42.9950   23.8010 C.ar   35  TYR35      -0.0009
     68  CD2     -110.1990   44.8060   22.3270 C.ar   35  TYR35      -0.0009
     69  CE1     -110.9810   43.8880   24.8090 C.ar   35  TYR35       0.0417
     70  CE2     -110.5060   45.7070   23.3290 C.ar   35  TYR35       0.0417
     71  CZ      -110.8950   45.2430   24.5680 C.ar   35  TYR35       0.1957
     72  OH      -111.2010   46.1350   25.5700 O.3    35  TYR35      -0.2866
     73  N       -111.7400   51.4540   25.7430 N.3    43  MET43      -0.1245
     74  CA      -111.4200   52.5250   26.6770 C.3    43  MET43       0.1570
     75  C       -110.5250   52.0030   27.7950 C.2    43  MET43       0.2261
     76  O       -110.6870   50.8730   28.2540 O.2    43  MET43      -0.2867
     77  CB      -112.7020   53.1340   27.2530 C.3    43  MET43       0.0387
     78  CG      -112.4760   54.3360   28.1580 C.3    43  MET43       0.0595
     79  SD      -111.4930   55.6290   27.3770 S.3    43  MET43      -0.1393
     80  CE      -112.5600   56.0900   26.0140 C.3    43  MET43       0.0692
     81  N       -115.0240   51.1890   30.4850 N.3    70  VAL70      -0.1245
     82  CA      -113.8900   50.2960   30.7010 C.3    70  VAL70       0.1561
     83  C       -114.3520   48.9610   31.2770 C.2    70  VAL70       0.2260
     84  O       -113.9280   47.8950   30.8290 O.2    70  VAL70      -0.2867
     85  CB      -112.8480   50.9240   31.6530 C.3    70  VAL70       0.0252
     86  CG1     -111.7540   49.9230   31.9860 C.3    70  VAL70       0.0019
     87  CG2     -112.2560   52.1820   31.0410 C.3    70  VAL70       0.0019
     88  N       -116.8050   46.9730   28.8530 N.3    73  ASN73      -0.1225
     89  CA      -116.0160   46.2550   27.8600 C.3    73  ASN73       0.1785
     90  C       -115.3640   45.0180   28.4650 C.2    73  ASN73       0.2597
     91  O       -115.2930   43.9670   27.8280 O.2    73  ASN73      -0.2718
     92  CB      -114.9430   47.1670   27.2600 C.3    73  ASN73       0.1169
     93  CG      -115.5260   48.2610   26.3880 C.2    73  ASN73       0.2627
     94  OD1     -116.6470   48.1450   25.8940 O.2    73  ASN73      -0.2716
     95  ND2     -114.7640   49.3300   26.1900 N.am   73  ASN73      -0.0877
     96  N       -114.8930   45.1550   29.7000 N.am   74  CYS74      -0.1970
     97  CA      -114.2320   44.0600   30.3980 C.3    74  CYS74       0.1712
     98  C       -115.1720   42.8750   30.5960 C.2    74  CYS74       0.2296
     99  O       -114.7920   41.7260   30.3730 O.2    74  CYS74      -0.2864
    100  CB      -113.6960   44.5350   31.7500 C.3    74  CYS74       0.0983
    101  SG      -112.8550   43.2520   32.7040 S.3    74  CYS74      -0.0798
    102  N       -116.0590   41.1500   27.0890 N.3    77  PHE77      -0.1227
    103  CA      -115.0500   40.3150   26.4480 C.3    77  PHE77       0.1736
    104  C       -114.5350   39.1890   27.3390 C.2    77  PHE77       0.2595
    105  O       -114.2130   38.1050   26.8520 O.2    77  PHE77      -0.2718
    106  CB      -113.8670   41.1680   25.9850 C.3    77  PHE77       0.0547
    107  CG      -112.8630   40.4050   25.1720 C.ar   77  PHE77      -0.0202
    108  CD1     -113.0590   40.2150   23.8160 C.ar   77  PHE77      -0.0042
    109  CD2     -111.7310   39.8660   25.7630 C.ar   77  PHE77      -0.0042
    110  CE1     -112.1460   39.5090   23.0620 C.ar   77  PHE77      -0.0003
    111  CE2     -110.8140   39.1580   25.0140 C.ar   77  PHE77      -0.0003
    112  CZ      -111.0230   38.9780   23.6610 C.ar   77  PHE77      -0.0000
    113  N       -114.4500   39.4440   28.6400 N.am   78  ASN78      -0.1974
    114  CA      -113.8260   38.4910   29.5480 C.3    78  ASN78       0.1688
    115  C       -114.8180   37.7690   30.4510 C.2    78  ASN78       0.2292
    116  O       -115.8000   38.3530   30.9100 O.2    78  ASN78      -0.2864
    117  CB      -112.7750   39.1980   30.4060 C.3    78  ASN78       0.1181
    118  CG      -111.7580   39.9530   29.5740 C.2    78  ASN78       0.2629
    119  OD1     -110.7760   39.3800   29.1040 O.2    78  ASN78      -0.2716
    120  ND2     -111.9890   41.2480   29.3880 N.am   78  ASN78      -0.0877
    121  N       -108.5640   38.5320   34.0840 N.3    84  VAL84      -0.1245
    122  CA      -108.9260   39.8970   33.7190 C.3    84  VAL84       0.1561
    123  C       -110.3060   40.2490   34.2650 C.2    84  VAL84       0.2260
    124  O       -110.5150   41.3390   34.7990 O.2    84  VAL84      -0.2867
    125  CB      -108.9110   40.1000   32.1900 C.3    84  VAL84       0.0252
    126  CG1     -109.4350   41.4820   31.8270 C.3    84  VAL84       0.0019
    127  CG2     -107.5070   39.8970   31.6420 C.3    84  VAL84       0.0019
@<TRIPOS>BOND
     1    60    59    1
     2    59    56    1
     3    56    57    1
     4    56    55    1
     5    57    58    2
     6    63    64    2
     7    63    62    1
     8    40    41    1
     9    61    62    1
    10    51    50    2
    11    55    50   am
    12    50    49    1
    13    62    65    1
    14    41    42    1
    15    41    44    1
    16    47    45    1
    17    48    42   am
    18    48    49    1
    19    42    43    2
    20    65    66    1
    21    45    44    1
    22    45    46    1
    23    49    52    1
    24    68    66   ar
    25    68    70   ar
    26    36    35    2
    27    66    67   ar
    28    52    53    1
    29    52    54    1
    30   110   112   ar
    31   110   108   ar
    32    35    34    1
    33    70    71   ar
    34   112   111   ar
    35    67    69   ar
    36   108   107   ar
    37    38    37    1
    38    71    69   ar
    39    71    72    1
    40    34    37    1
    41    34    33    1
    42    37    39    1
    43   111   109   ar
    44   107   109   ar
    45   107   106    1
    46    73    74    1
    47    94    93    2
    48   106   103    1
    49    80    79    1
    50    95    93   am
    51    93    92    1
    52   103   102    1
    53   103   104    1
    54    74    77    1
    55    74    75    1
    56   105   104    2
    57    77    78    1
    58    92    89    1
    59   104   113   am
    60    79    78    1
    61    75    76    2
    62    91    90    2
    63    89    90    1
    64    89    88    1
    65    90    96   am
    66   113   114    1
    67   119   118    2
    68   120   118   am
    69   114   117    1
    70   114   115    1
    71   118   117    1
    72    96    97    1
    73    99    98    2
    74    97    98    1
    75    97   100    1
    76   115   116    2
    77    81    82    1
    78    82    83    1
    79    82    85    1
    80    18    17    2
    81    84    83    2
    82    87    85    1
    83   127   125    1
    84    85    86    1
    85   100   101    1
    86   126   125    1
    87    25    24    2
    88    17    16    1
    89    17    22   am
    90    24    23    1
    91   125   122    1
    92    23    22    1
    93    23    26    1
    94    28    30   ar
    95    28    27   ar
    96    16    19    1
    97    16    15    1
    98    30    32   ar
    99    19    20    1
   100    26    27    1
   101     4     3    2
   102    27    29   ar
   103   122   121    1
   104   122   123    1
   105    13    11   ar
   106    13    14   ar
   107    15     3   am
   108    15    21    1
   109     3     2    1
   110    32    31   ar
   111   123   124    2
   112    11     8   ar
   113    20    21    1
   114    14    12   ar
   115    29    31   ar
   116     2     5    1
   117     2     1    1
   118     8     6   ar
   119     8    10   ar
   120     5     6    1
   121    12    10   ar
   122     6     7   ar
   123    10     9   ar
   124     7     9   ar
