@<TRIPOS>MOLECULE
tmp/5mglA00.pdb
 83 79 0 0 0
SMALL
GASTEIGER

@<TRIPOS>ATOM
      1  N         57.4250   37.6590    1.1900 N.3    19  PRO19      -0.2102
      2  CA        57.9270   37.8990   -0.1690 C.3    19  PRO19       0.1504
      3  C         58.3990   36.6350   -0.8880 C.2    19  PRO19       0.2575
      4  O         58.6620   36.6890   -2.0880 O.2    19  PRO19      -0.2718
      5  CB        59.1140   38.8510    0.0530 C.3    19  PRO19       0.0282
      6  CG        58.9920   39.3290    1.4630 C.3    19  PRO19       0.0208
      7  CD        58.3440   38.2110    2.1990 C.3    19  PRO19       0.0893
      8  N         58.5000   35.5170   -0.1750 N.am   20  PHE20      -0.1977
      9  CA        59.1470   34.3320   -0.7340 C.3    20  PHE20       0.1639
     10  C         58.2470   33.0980   -0.7710 C.2    20  PHE20       0.2290
     11  O         58.7170   31.9920   -1.0370 O.2    20  PHE20      -0.2864
     12  CB        60.4190   34.0200    0.0570 C.3    20  PHE20       0.0560
     13  CG        61.1590   35.2430    0.5110 C.ar   20  PHE20      -0.0200
     14  CD1       61.9410   35.9630   -0.3750 C.ar   20  PHE20      -0.0042
     15  CD2       61.0650   35.6780    1.8240 C.ar   20  PHE20      -0.0042
     16  CE1       62.6180   37.0900    0.0370 C.ar   20  PHE20      -0.0003
     17  CE2       61.7420   36.8060    2.2410 C.ar   20  PHE20      -0.0003
     18  CZ        62.5170   37.5120    1.3450 C.ar   20  PHE20      -0.0000
     19  N         58.3420   35.1420   -7.8890 N.3    24  VAL24      -0.1245
     20  CA        58.1920   36.5280   -8.3140 C.3    24  VAL24       0.1561
     21  C         57.5800   36.5920   -9.7080 C.2    24  VAL24       0.2260
     22  O         58.0390   35.9090  -10.6240 O.2    24  VAL24      -0.2867
     23  CB        59.5460   37.2670   -8.3120 C.3    24  VAL24       0.0252
     24  CG1       59.4100   38.6400   -8.9490 C.3    24  VAL24       0.0019
     25  CG2       60.0920   37.3780   -6.8950 C.3    24  VAL24       0.0019
     26  N         56.9690   42.8400  -11.6880 N.3    29  VAL29      -0.1245
     27  CA        58.2080   43.3760  -11.1400 C.3    29  VAL29       0.1561
     28  C         59.1940   43.7330  -12.2480 C.2    29  VAL29       0.2260
     29  O         59.8310   42.8580  -12.8350 O.2    29  VAL29      -0.2867
     30  CB        58.8640   42.3780  -10.1700 C.3    29  VAL29       0.0252
     31  CG1       60.0650   43.0090   -9.4990 C.3    29  VAL29       0.0019
     32  CG2       57.8560   41.9190   -9.1270 C.3    29  VAL29       0.0019
     33  N         63.1340   42.3120  -13.1180 N.3    32  TYR32      -0.1241
     34  CA        63.4610   41.1200  -12.3420 C.3    32  TYR32       0.1605
     35  C         63.9550   39.9830  -13.2290 C.2    32  TYR32       0.2264
     36  O         64.8330   39.2180  -12.8310 O.2    32  TYR32      -0.2867
     37  CB        62.2530   40.6550  -11.5240 C.3    32  TYR32       0.0534
     38  CG        62.6230   39.6960  -10.4180 C.ar   32  TYR32      -0.0201
     39  CD1       63.0270   40.1670   -9.1760 C.ar   32  TYR32      -0.0009
     40  CD2       62.5820   38.3200  -10.6170 C.ar   32  TYR32      -0.0009
     41  CE1       63.3740   39.2990   -8.1590 C.ar   32  TYR32       0.0417
     42  CE2       62.9280   37.4420   -9.6050 C.ar   32  TYR32       0.0417
     43  CZ        63.3240   37.9390   -8.3770 C.ar   32  TYR32       0.1957
     44  OH        63.6720   37.0760   -7.3630 O.3    32  TYR32      -0.2866
     45  N         67.3720   31.9500   -2.5170 N.3    67  VAL67      -0.1245
     46  CA        66.2420   32.8420   -2.2770 C.3    67  VAL67       0.1561
     47  C         66.7130   34.1730   -1.7010 C.2    67  VAL67       0.2260
     48  O         66.2800   35.2430   -2.1330 O.2    67  VAL67      -0.2867
     49  CB        65.2190   32.2060   -1.3090 C.3    67  VAL67       0.0252
     50  CG1       64.1710   33.2240   -0.8840 C.3    67  VAL67       0.0019
     51  CG2       64.5660   30.9910   -1.9440 C.3    67  VAL67       0.0019
     52  N         67.2220   37.9660   -3.2440 N.3    71  CYS71      -0.1235
     53  CA        66.5740   39.0700   -2.5460 C.3    71  CYS71       0.1677
     54  C         67.5380   40.2320   -2.3540 C.2    71  CYS71       0.2270
     55  O         67.1730   41.3920   -2.5330 O.2    71  CYS71      -0.2867
     56  CB        66.0380   38.6020   -1.1940 C.3    71  CYS71       0.0956
     57  SG        65.1000   39.8510   -0.2820 S.3    71  CYS71      -0.0801
     58  N         68.3490   41.9960   -5.9160 N.3    74  PHE74      -0.1227
     59  CA        67.3350   42.8350   -6.5370 C.3    74  PHE74       0.1736
     60  C         66.8310   43.9440   -5.6140 C.2    74  PHE74       0.2595
     61  O         66.5170   45.0410   -6.0750 O.2    74  PHE74      -0.2718
     62  CB        66.1560   41.9820   -7.0090 C.3    74  PHE74       0.0547
     63  CG        65.1590   42.7420   -7.8340 C.ar   74  PHE74      -0.0202
     64  CD1       65.3340   42.8790   -9.2020 C.ar   74  PHE74      -0.0042
     65  CD2       64.0510   43.3280   -7.2420 C.ar   74  PHE74      -0.0042
     66  CE1       64.4210   43.5820   -9.9640 C.ar   74  PHE74      -0.0003
     67  CE2       63.1370   44.0320   -7.9980 C.ar   74  PHE74      -0.0003
     68  CZ        63.3220   44.1600   -9.3620 C.ar   74  PHE74      -0.0000
     69  N         66.7340   43.6570   -4.3200 N.am   75  ASN75      -0.1974
     70  CA        66.1540   44.6120   -3.3790 C.3    75  ASN75       0.1688
     71  C         67.1710   45.3130   -2.4810 C.2    75  ASN75       0.2292
     72  O         68.2020   44.7410   -2.1250 O.2    75  ASN75      -0.2864
     73  CB        65.0850   43.9300   -2.5210 C.3    75  ASN75       0.1181
     74  CG        63.9510   43.3580   -3.3480 C.2    75  ASN75       0.2629
     75  OD1       63.0960   44.0930   -3.8420 O.2    75  ASN75      -0.2716
     76  ND2       63.9390   42.0400   -3.5050 N.am   75  ASN75      -0.0877
     77  N         60.8940   44.3810    1.1430 N.3    81  VAL81      -0.1245
     78  CA        61.2720   43.0130    0.8070 C.3    81  VAL81       0.1561
     79  C         62.6550   42.7020    1.3710 C.2    81  VAL81       0.2260
     80  O         62.8890   41.6210    1.9140 O.2    81  VAL81      -0.2867
     81  CB        61.2650   42.7790   -0.7180 C.3    81  VAL81       0.0252
     82  CG1       61.8740   41.4270   -1.0600 C.3    81  VAL81       0.0019
     83  CG2       59.8500   42.8860   -1.2630 C.3    81  VAL81       0.0019
@<TRIPOS>BOND
     1    35    36    2
     2    35    34    1
     3    33    34    1
     4    29    28    2
     5    34    37    1
     6    28    27    1
     7    26    27    1
     8    37    38    1
     9    27    30    1
    10    22    21    2
    11    40    38   ar
    12    40    42   ar
    13    38    39   ar
    14    30    31    1
    15    30    32    1
    16    66    68   ar
    17    66    64   ar
    18    21    20    1
    19    42    43   ar
    20    68    67   ar
    21    64    63   ar
    22    39    41   ar
    23    24    23    1
    24    43    41   ar
    25    43    44    1
    26    20    23    1
    27    20    19    1
    28    23    25    1
    29    67    65   ar
    30    63    65   ar
    31    63    62    1
    32    62    59    1
    33    59    58    1
    34    59    60    1
    35    61    60    2
    36    60    69   am
    37    69    70    1
    38    75    74    2
    39    76    74   am
    40    70    73    1
    41    70    71    1
    42    74    73    1
    43    52    53    1
    44    53    54    1
    45    53    56    1
    46    55    54    2
    47    45    46    1
    48    71    72    2
    49    46    47    1
    50    46    49    1
    51    48    47    2
    52     4     3    2
    53    51    49    1
    54    49    50    1
    55    83    81    1
    56    56    57    1
    57    82    81    1
    58    11    10    2
    59     3     8   am
    60     3     2    1
    61    10     9    1
    62     9     8    1
    63     9    12    1
    64    81    78    1
    65    14    16   ar
    66    14    13   ar
    67     2     5    1
    68     2     1    1
    69    16    18   ar
    70     5     6    1
    71    12    13    1
    72    13    15   ar
    73    78    77    1
    74    78    79    1
    75     1     7    1
    76    18    17   ar
    77    79    80    2
    78     6     7    1
    79    15    17   ar
