@<TRIPOS>MOLECULE
tmp/5mgmA00.pdb
 137 136 0 0 0
SMALL
GASTEIGER

@<TRIPOS>ATOM
      1  N       -103.5970   46.4240   36.3350 N.3    18  TRP18      -0.1228
      2  CA      -102.6570   46.0040   35.2880 C.3    18  TRP18       0.1722
      3  C       -103.2580   45.7180   33.8980 C.2    18  TRP18       0.2437
      4  O       -102.6250   46.0510   32.8930 O.2    18  TRP18      -0.2733
      5  CB      -101.7810   44.8380   35.7680 C.3    18  TRP18       0.0563
      6  CG      -102.5230   43.5890   36.1040 C.ar   18  TRP18       0.0003
      7  CD1     -102.9450   43.1970   37.3390 C.ar   18  TRP18       0.0946
      8  CD2     -102.9230   42.5550   35.1940 C.ar   18  TRP18       0.0152
      9  NE1     -103.5890   41.9850   37.2570 N.ar   18  TRP18      -0.2442
     10  CE2     -103.5900   41.5690   35.9510 C.ar   18  TRP18       0.0810
     11  CE3     -102.7930   42.3730   33.8100 C.ar   18  TRP18       0.0012
     12  CZ2     -104.1230   40.4110   35.3720 C.ar   18  TRP18       0.0191
     13  CZ3     -103.3230   41.2210   33.2340 C.ar   18  TRP18       0.0001
     14  CH2     -103.9790   40.2560   34.0170 C.ar   18  TRP18       0.0015
     15  N       -104.4620   45.1070   33.8210 N.am   19  PRO19      -0.2718
     16  CA      -104.9920   44.8560   32.4760 C.3    19  PRO19       0.1535
     17  C       -105.5500   46.0800   31.7380 C.2    19  PRO19       0.2599
     18  O       -105.8880   45.9670   30.5570 O.2    19  PRO19      -0.2715
     19  CB      -106.1220   43.8370   32.7250 C.3    19  PRO19       0.0310
     20  CG      -106.0980   43.5180   34.1860 C.3    19  PRO19       0.0237
     21  CD      -105.4160   44.6720   34.8550 C.3    19  PRO19       0.0939
     22  N       -105.6400   47.2240   32.4210 N.am   20  PHE20      -0.1960
     23  CA      -106.3160   48.4140   31.8850 C.3    20  PHE20       0.1771
     24  C       -105.4260   49.6590   31.8610 C.2    20  PHE20       0.2619
     25  O       -105.9220   50.7710   31.6670 O.2    20  PHE20      -0.2715
     26  CB      -107.5750   48.6940   32.7180 C.3    20  PHE20       0.0574
     27  CG      -108.3270   47.4490   33.1030 C.ar   20  PHE20      -0.0200
     28  CD1     -109.1080   46.7770   32.1690 C.ar   20  PHE20      -0.0042
     29  CD2     -108.2300   46.9280   34.3870 C.ar   20  PHE20      -0.0042
     30  CE1     -109.7890   45.6190   32.5130 C.ar   20  PHE20      -0.0003
     31  CE2     -108.9090   45.7720   34.7360 C.ar   20  PHE20      -0.0003
     32  CZ      -109.6890   45.1170   33.7980 C.ar   20  PHE20      -0.0000
     33  N       -104.1190   49.4680   32.0450 N.am   21  LEU21      -0.1963
     34  CA      -103.1630   50.5780   32.0960 C.3    21  LEU21       0.1728
     35  C       -102.8680   51.1130   30.7040 C.2    21  LEU21       0.2616
     36  O       -102.8290   52.3270   30.4990 O.2    21  LEU21      -0.2715
     37  CB      -101.8520   50.1380   32.7540 C.3    21  LEU21       0.0311
     38  CG      -101.8810   49.8870   34.2640 C.3    21  LEU21       0.0022
     39  CD1     -100.6250   49.1520   34.7070 C.3    21  LEU21       0.0001
     40  CD2     -102.0340   51.1920   35.0300 C.3    21  LEU21       0.0001
     41  N       -102.6400   50.1960   29.7630 N.am   22  GLU22      -0.1964
     42  CA      -102.4050   50.5370   28.3580 C.3    22  GLU22       0.1718
     43  C       -103.4760   49.8810   27.4770 C.2    22  GLU22       0.2458
     44  O       -104.1120   48.9140   27.9020 O.2    22  GLU22      -0.2730
     45  CB      -101.0050   50.0780   27.9240 C.3    22  GLU22       0.0428
     46  CG       -99.8540   50.7590   28.6630 C.3    22  GLU22       0.1163
     47  CD       -99.8110   52.2700   28.4580 C.2    22  GLU22       0.3649
     48  OE1     -100.2550   52.7500   27.3890 O.co2  22  GLU22      -0.2457
     49  OE2      -99.3260   52.9830   29.3670 O.co2  22  GLU22      -0.2457
     50  N       -103.6840   50.4060   26.2500 N.am   23  PRO23      -0.2716
     51  CA      -104.7160   49.8370   25.3790 C.3    23  PRO23       0.1536
     52  C       -104.4040   48.4050   24.9630 C.2    23  PRO23       0.2598
     53  O       -103.2380   48.0500   24.7820 O.2    23  PRO23      -0.2715
     54  CB      -104.7060   50.7630   24.1520 C.3    23  PRO23       0.0310
     55  CG      -103.9880   51.9940   24.5820 C.3    23  PRO23       0.0237
     56  CD      -102.9930   51.5340   25.6010 C.3    23  PRO23       0.0939
     57  N       -105.4440   47.5930   24.8150 N.am   24  VAL24      -0.1964
     58  CA      -105.2700   46.2030   24.4140 C.3    24  VAL24       0.1727
     59  C       -104.6900   46.1750   23.0050 C.2    24  VAL24       0.2616
     60  O       -105.1520   46.9040   22.1250 O.2    24  VAL24      -0.2715
     61  CB      -106.6050   45.4260   24.4470 C.3    24  VAL24       0.0290
     62  CG1     -106.4270   44.0170   23.8890 C.3    24  VAL24       0.0023
     63  CG2     -107.1580   45.3790   25.8680 C.3    24  VAL24       0.0023
     64  N       -103.6640   45.3520   22.8060 N.am   25  ASN25      -0.1972
     65  CA      -103.0560   45.1780   21.4910 C.3    25  ASN25       0.1688
     66  C       -103.7820   44.0550   20.7380 C.2    25  ASN25       0.2292
     67  O       -103.6280   42.8800   21.0810 O.2    25  ASN25      -0.2864
     68  CB      -101.5650   44.8580   21.6380 C.3    25  ASN25       0.1181
     69  CG      -100.8240   44.8470   20.3090 C.2    25  ASN25       0.2629
     70  OD1     -101.4230   44.9600   19.2380 O.2    25  ASN25      -0.2716
     71  ND2      -99.5050   44.7040   20.3770 N.am   25  ASN25      -0.0877
     72  N       -103.9650   40.0420   21.2820 N.3    29  VAL29      -0.1245
     73  CA      -105.2130   39.4840   21.8040 C.3    29  VAL29       0.1561
     74  C       -106.1420   39.0840   20.6570 C.2    29  VAL29       0.2260
     75  O       -106.7100   39.9380   19.9680 O.2    29  VAL29      -0.2867
     76  CB      -105.9210   40.4760   22.7500 C.3    29  VAL29       0.0252
     77  CG1     -107.1450   39.8270   23.3840 C.3    29  VAL29       0.0019
     78  CG2     -104.9570   40.9550   23.8280 C.3    29  VAL29       0.0019
     79  N       -110.1960   40.4550   19.7960 N.3    32  TYR32      -0.1241
     80  CA      -110.5470   41.6830   20.5200 C.3    32  TYR32       0.1605
     81  C       -111.0800   42.7800   19.6000 C.2    32  TYR32       0.2264
     82  O       -112.0270   43.4860   19.9510 O.2    32  TYR32      -0.2867
     83  CB      -109.3400   42.2140   21.3090 C.3    32  TYR32       0.0534
     84  CG      -109.7190   43.2360   22.3580 C.ar   32  TYR32      -0.0201
     85  CD1     -110.1910   42.8360   23.6080 C.ar   32  TYR32      -0.0009
     86  CD2     -109.6280   44.5970   22.0990 C.ar   32  TYR32      -0.0009
     87  CE1     -110.5510   43.7670   24.5720 C.ar   32  TYR32       0.0417
     88  CE2     -109.9870   45.5350   23.0540 C.ar   32  TYR32       0.0417
     89  CZ      -110.4470   45.1190   24.2900 C.ar   32  TYR32       0.1957
     90  OH      -110.8040   46.0560   25.2370 O.3    32  TYR32      -0.2866
     91  N       -111.3170   51.1400   25.4130 N.3    40  MET40      -0.1245
     92  CA      -111.0010   52.2150   26.3470 C.3    40  MET40       0.1570
     93  C       -110.0930   51.6870   27.4540 C.2    40  MET40       0.2261
     94  O       -110.1930   50.5220   27.8420 O.2    40  MET40      -0.2867
     95  CB      -112.2920   52.7860   26.9440 C.3    40  MET40       0.0387
     96  CG      -112.1100   54.0100   27.8300 C.3    40  MET40       0.0595
     97  SD      -111.1270   55.3250   27.0790 S.3    40  MET40      -0.1393
     98  CE      -111.9990   55.6000   25.5380 C.3    40  MET40       0.0692
     99  N       -114.5910   50.8800   30.1210 N.3    67  VAL67      -0.1245
    100  CA      -113.4610   49.9820   30.3530 C.3    67  VAL67       0.1561
    101  C       -113.9780   48.6490   30.8800 C.2    67  VAL67       0.2260
    102  O       -113.6680   47.5910   30.3310 O.2    67  VAL67      -0.2867
    103  CB      -112.4460   50.5640   31.3680 C.3    67  VAL67       0.0252
    104  CG1     -111.3730   49.5360   31.7120 C.3    67  VAL67       0.0019
    105  CG2     -111.7970   51.8290   30.8230 C.3    67  VAL67       0.0019
    106  N       -114.3380   44.9370   29.3520 N.3    71  CYS71      -0.1235
    107  CA      -113.6810   43.8650   30.1030 C.3    71  CYS71       0.1677
    108  C       -114.6020   42.6700   30.2880 C.2    71  CYS71       0.2270
    109  O       -114.2290   41.5390   29.9830 O.2    71  CYS71      -0.2867
    110  CB      -113.2380   44.3670   31.4770 C.3    71  CYS71       0.0956
    111  SG      -112.5080   43.0830   32.5200 S.3    71  CYS71      -0.0801
    112  N       -115.5310   41.0000   26.8440 N.3    74  PHE74      -0.1227
    113  CA      -114.4890   40.1760   26.2310 C.3    74  PHE74       0.1736
    114  C       -113.9950   39.0440   27.1290 C.2    74  PHE74       0.2595
    115  O       -113.6880   37.9580   26.6370 O.2    74  PHE74      -0.2718
    116  CB      -113.2960   41.0360   25.7990 C.3    74  PHE74       0.0547
    117  CG      -112.2290   40.2580   25.0750 C.ar   74  PHE74      -0.0202
    118  CD1     -112.4000   39.8950   23.7440 C.ar   74  PHE74      -0.0042
    119  CD2     -111.0650   39.8680   25.7270 C.ar   74  PHE74      -0.0042
    120  CE1     -111.4300   39.1690   23.0760 C.ar   74  PHE74      -0.0003
    121  CE2     -110.0900   39.1430   25.0630 C.ar   74  PHE74      -0.0003
    122  CZ      -110.2740   38.7930   23.7360 C.ar   74  PHE74      -0.0000
    123  N       -113.8930   39.3020   28.4300 N.am   75  ASN75      -0.1974
    124  CA      -113.3380   38.3200   29.3650 C.3    75  ASN75       0.1688
    125  C       -114.4080   37.6220   30.1940 C.2    75  ASN75       0.2292
    126  O       -115.4480   38.2070   30.5100 O.2    75  ASN75      -0.2864
    127  CB      -112.3320   38.9880   30.2970 C.3    75  ASN75       0.1181
    128  CG      -111.1740   39.6090   29.5480 C.2    75  ASN75       0.2629
    129  OD1     -110.2250   38.9200   29.1750 O.2    75  ASN75      -0.2716
    130  ND2     -111.2430   40.9170   29.3220 N.am   75  ASN75      -0.0877
    131  N       -108.0160   38.4010   33.8280 N.3    81  VAL81      -0.1245
    132  CA      -108.3300   39.7920   33.4930 C.3    81  VAL81       0.1561
    133  C       -109.7100   40.1700   34.0310 C.2    81  VAL81       0.2260
    134  O       -109.8930   41.2720   34.5570 O.2    81  VAL81      -0.2867
    135  CB      -108.2800   40.0410   31.9660 C.3    81  VAL81       0.0252
    136  CG1     -108.7380   41.4560   31.6260 C.3    81  VAL81       0.0019
    137  CG2     -106.8750   39.7920   31.4260 C.3    81  VAL81       0.0019
@<TRIPOS>BOND
     1    70    69    2
     2    81    82    2
     3    81    80    1
     4    79    80    1
     5    75    74    2
     6    69    71   am
     7    69    68    1
     8    80    83    1
     9    74    73    1
    10    66    67    2
    11    66    65    1
    12    72    73    1
    13    83    84    1
    14    65    68    1
    15    65    64    1
    16    73    76    1
    17    86    84   ar
    18    86    88   ar
    19    60    59    2
    20    84    85   ar
    21    76    77    1
    22    76    78    1
    23    64    59   am
    24    59    58    1
    25    88    89   ar
    26   120   122   ar
    27   120   118   ar
    28    85    87   ar
    29   122   121   ar
    30   118   117   ar
    31    62    61    1
    32    54    55    1
    33    54    51    1
    34    89    87   ar
    35    89    90    1
    36    58    61    1
    37    58    57    1
    38    61    63    1
    39    55    56    1
    40    53    52    2
    41    57    52   am
    42    52    51    1
    43   121   119   ar
    44   117   119   ar
    45   117   116    1
    46    51    50    1
    47    91    92    1
    48    98    97    1
    49    56    50    1
    50   116   113    1
    51   113   112    1
    52   113   114    1
    53    50    43   am
    54    92    95    1
    55    92    93    1
    56   115   114    2
    57    95    96    1
    58    97    96    1
    59   114   123   am
    60    48    47   ar
    61    93    94    2
    62    43    44    2
    63    43    42    1
    64    45    42    1
    65    45    46    1
    66    42    41    1
    67   123   124    1
    68    47    46    1
    69    47    49   ar
    70   129   128    2
    71   130   128   am
    72   106   107    1
    73   124   125    1
    74   124   127    1
    75   128   127    1
    76    41    35   am
    77   109   108    2
    78   107   108    1
    79   107   110    1
    80    99   100    1
    81   125   126    2
    82   102   101    2
    83   100   101    1
    84   100   103    1
    85    36    35    2
    86    18    17    2
    87    35    34    1
    88   105   103    1
    89   103   104    1
    90   137   135    1
    91   110   111    1
    92   136   135    1
    93    25    24    2
    94    17    22   am
    95    17    16    1
    96    24    23    1
    97    24    33   am
    98    23    22    1
    99    23    26    1
   100   135   132    1
   101    33    34    1
   102    34    37    1
   103    28    30   ar
   104    28    27   ar
   105    16    19    1
   106    16    15    1
   107    30    32   ar
   108    26    27    1
   109    19    20    1
   110    37    38    1
   111     4     3    2
   112    27    29   ar
   113    13    11   ar
   114    13    14   ar
   115   132   131    1
   116   132   133    1
   117    32    31   ar
   118    11     8   ar
   119    15     3   am
   120    15    21    1
   121     3     2    1
   122    14    12   ar
   123   133   134    2
   124    20    21    1
   125    38    39    1
   126    38    40    1
   127    29    31   ar
   128     8    10   ar
   129     8     6   ar
   130     2     5    1
   131     2     1    1
   132    12    10   ar
   133     5     6    1
   134    10     9   ar
   135     6     7   ar
   136     9     7   ar
