@<TRIPOS>MOLECULE
tmp/5mgnA01.pdb
 168 164 0 0 0
SMALL
GASTEIGER

@<TRIPOS>ATOM
      1  N        124.5200   32.8810  -12.5930 N.3     1  PRO1       -0.2116
      2  CA       124.2800   32.7290  -14.0420 C.3     1  PRO1        0.1372
      3  C        125.5200   32.9490  -14.9000 C.2     1  PRO1        0.2244
      4  O        125.7300   32.2610  -15.9120 O.2     1  PRO1       -0.2868
      5  CB       123.2500   33.8230  -14.3400 C.3     1  PRO1        0.0268
      6  CG       123.4800   34.8690  -13.2830 C.3     1  PRO1        0.0207
      7  CD       124.0240   34.1690  -12.0700 C.3     1  PRO1        0.0892
      8  N        129.3050   25.3870  -15.4770 N.3     6  LYS6       -0.1245
      9  CA       128.5240   24.6240  -16.4530 C.3     6  LYS6        0.1561
     10  C        129.1750   23.2480  -16.7600 C.2     6  LYS6        0.2260
     11  O        128.7720   22.5780  -17.6960 O.2     6  LYS6       -0.2867
     12  CB       128.4050   25.4190  -17.7260 C.3     6  LYS6        0.0271
     13  CG       128.3040   26.9220  -17.5990 C.3     6  LYS6        0.0035
     14  CD       126.9040   27.4110  -17.3300 C.3     6  LYS6        0.0206
     15  CE       126.8290   28.8940  -17.5970 C.3     6  LYS6        0.1093
     16  NZ       125.6560   29.2610  -18.4060 N.3     6  LYS6       -0.1314
     17  N        118.9570   15.6880  -21.5540 N.3    44  ALA44      -0.1245
     18  CA       118.7280   16.4280  -22.7950 C.3    44  ALA44       0.1562
     19  C        119.0100   15.7130  -24.0750 C.2    44  ALA44       0.2260
     20  O        118.3330   16.0000  -25.0870 O.2    44  ALA44      -0.2867
     21  CB       119.4320   17.8010  -22.7810 C.3    44  ALA44       0.0290
     22  N        115.6200   19.7070  -30.4360 N.3    52  ILE52      -0.1231
     23  CA       116.0430   20.4430  -29.2300 C.3    52  ILE52       0.1678
     24  C        117.5290   20.1730  -28.9580 C.2    52  ILE52       0.2434
     25  O        117.9250   19.0680  -28.7530 O.2    52  ILE52      -0.2733
     26  CB       115.0880   20.1280  -28.0440 C.3    52  ILE52       0.0265
     27  CG1      113.6290   20.3870  -28.5540 C.3    52  ILE52       0.0019
     28  CG2      115.4280   21.0660  -26.8760 C.3    52  ILE52       0.0020
     29  CD1      112.5220   20.0380  -27.6140 C.3    52  ILE52       0.0001
     30  N        118.3800   21.1940  -29.0080 N.am   53  PRO53      -0.2729
     31  CA       119.7490   20.9410  -28.7270 C.3    53  PRO53       0.1401
     32  C        119.9720   20.5940  -27.1720 C.2    53  PRO53       0.2269
     33  O        119.0920   20.9310  -26.3140 O.2    53  PRO53      -0.2865
     34  CB       120.4210   22.2640  -29.0630 C.3    53  PRO53       0.0296
     35  CG       119.4070   23.2810  -28.7290 C.3    53  PRO53       0.0237
     36  CD       118.0310   22.6090  -28.9290 C.3    53  PRO53       0.0939
     37  N        122.7380   20.5430  -23.6510 N.3    55  PHE55      -0.1241
     38  CA       123.6150   21.5180  -23.0580 C.3    55  PHE55       0.1605
     39  C        125.1730   21.4000  -23.3890 C.2    55  PHE55       0.2264
     40  O        125.8780   22.4280  -23.5080 O.2    55  PHE55      -0.2867
     41  CB       123.3480   21.4580  -21.4810 C.3    55  PHE55       0.0534
     42  CG       121.9710   21.8730  -21.1210 C.ar   55  PHE55      -0.0203
     43  CD1      121.6490   23.1960  -21.0300 C.ar   55  PHE55      -0.0042
     44  CD2      120.8980   20.9280  -21.0440 C.ar   55  PHE55      -0.0042
     45  CE1      120.3520   23.6050  -20.7390 C.ar   55  PHE55      -0.0003
     46  CE2      119.6260   21.3510  -20.6510 C.ar   55  PHE55      -0.0003
     47  CZ       119.3540   22.6980  -20.5420 C.ar   55  PHE55      -0.0000
     48  N        123.9650   24.1120  -25.8700 N.3    61  VAL61      -0.1231
     49  CA       123.7720   25.4900  -25.5030 C.3    61  VAL61       0.1692
     50  C        125.0590   25.9790  -24.7460 C.2    61  VAL61       0.2592
     51  O        125.6520   26.9340  -25.1710 O.2    61  VAL61      -0.2718
     52  CB       122.4830   25.7240  -24.6710 C.3    61  VAL61       0.0266
     53  CG1      122.3490   27.2210  -24.4040 C.3    61  VAL61       0.0020
     54  CG2      121.2080   25.3180  -25.4310 C.3    61  VAL61       0.0020
     55  N        125.5530   25.2550  -23.7310 N.am   62  TRP62      -0.1976
     56  CA       126.7690   25.7340  -23.0140 C.3    62  TRP62       0.1640
     57  C        128.0440   25.5990  -23.8750 C.2    62  TRP62       0.2290
     58  O        128.8510   26.5460  -24.0010 O.2    62  TRP62      -0.2864
     59  CB       127.0020   25.0650  -21.6580 C.3    62  TRP62       0.0576
     60  CG       125.8530   24.9670  -20.6190 C.ar   62  TRP62       0.0006
     61  CD1      125.6920   23.9460  -19.7220 C.ar   62  TRP62       0.0946
     62  CD2      124.7980   25.8870  -20.3410 C.ar   62  TRP62       0.0152
     63  NE1      124.6280   24.1480  -18.9100 N.ar   62  TRP62      -0.2442
     64  CE2      124.0360   25.3280  -19.2710 C.ar   62  TRP62       0.0810
     65  CE3      124.4230   27.1390  -20.8660 C.ar   62  TRP62       0.0012
     66  CZ2      122.9410   25.9380  -18.7480 C.ar   62  TRP62       0.0191
     67  CZ3      123.2800   27.7380  -20.3740 C.ar   62  TRP62       0.0001
     68  CH2      122.5370   27.1350  -19.3140 C.ar   62  TRP62       0.0015
     69  N        128.1010   28.4890  -26.4150 N.3    65  GLU65      -0.1245
     70  CA       128.3500   29.7100  -25.6930 C.3    65  GLU65       0.1567
     71  C        129.8560   29.9240  -25.3900 C.2    65  GLU65       0.2260
     72  O        130.3840   31.0210  -25.5560 O.2    65  GLU65      -0.2867
     73  CB       127.5580   29.6610  -24.4080 C.3    65  GLU65       0.0388
     74  CG       128.0030   30.7130  -23.4240 C.3    65  GLU65       0.1160
     75  CD       127.2150   30.6790  -22.1320 C.2    65  GLU65       0.3649
     76  OE1      127.7850   30.2530  -21.0820 O.co2  65  GLU65      -0.2457
     77  OE2      126.0340   31.0570  -22.1610 O.co2  65  GLU65      -0.2457
     78  N        117.7760   25.5160  -32.6020 N.3    73  PHE73      -0.1241
     79  CA       116.5290   24.7290  -32.4410 C.3    73  PHE73       0.1605
     80  C        115.9590   24.5830  -33.8110 C.2    73  PHE73       0.2264
     81  O        115.9990   25.5570  -34.5900 O.2    73  PHE73      -0.2867
     82  CB       115.5520   25.4980  -31.6210 C.3    73  PHE73       0.0534
     83  CG       115.9130   25.6290  -30.1390 C.ar   73  PHE73      -0.0203
     84  CD1      116.8750   26.5140  -29.7250 C.ar   73  PHE73      -0.0042
     85  CD2      115.2350   24.8990  -29.1750 C.ar   73  PHE73      -0.0042
     86  CE1      117.2460   26.6340  -28.3560 C.ar   73  PHE73      -0.0003
     87  CE2      115.5440   25.0380  -27.8060 C.ar   73  PHE73      -0.0003
     88  CZ       116.5400   25.9580  -27.4090 C.ar   73  PHE73      -0.0000
     89  N        109.2750   24.6150  -28.6370 N.3    77  PHE77      -0.1241
     90  CA       108.8770   23.6340  -27.6650 C.3    77  PHE77       0.1605
     91  C        107.4340   23.1120  -27.8760 C.2    77  PHE77       0.2264
     92  O        107.1220   21.9370  -27.6170 O.2    77  PHE77      -0.2867
     93  CB       109.0450   24.2230  -26.2450 C.3    77  PHE77       0.0534
     94  CG       110.4890   24.4380  -25.8600 C.ar   77  PHE77      -0.0203
     95  CD1      111.2890   23.3350  -25.5500 C.ar   77  PHE77      -0.0042
     96  CD2      111.0400   25.7380  -25.7270 C.ar   77  PHE77      -0.0042
     97  CE1      112.6200   23.5160  -25.1860 C.ar   77  PHE77      -0.0003
     98  CE2      112.3560   25.9340  -25.3120 C.ar   77  PHE77      -0.0003
     99  CZ       113.1620   24.7910  -25.0630 C.ar   77  PHE77      -0.0000
    100  N        113.4550   19.9730  -18.8430 N.3   106  VAL106     -0.1231
    101  CA       112.3580   20.8770  -18.6620 C.3   106  VAL106      0.1692
    102  C        111.4210   21.0010  -19.9500 C.2   106  VAL106      0.2592
    103  O        110.5460   21.9020  -20.0470 O.2   106  VAL106     -0.2718
    104  CB       112.8790   22.2790  -18.2550 C.3   106  VAL106      0.0266
    105  CG1      113.5220   22.2850  -16.8460 C.3   106  VAL106      0.0020
    106  CG2      113.7820   22.8080  -19.3470 C.3   106  VAL106      0.0020
    107  N        111.7240   20.2270  -20.9630 N.am  107  ASP107     -0.1974
    108  CA       111.1220   20.3720  -22.3110 C.3   107  ASP107      0.1709
    109  C        109.6410   19.8830  -22.3880 C.2   107  ASP107      0.2293
    110  O        108.9540   20.1110  -23.3940 O.2   107  ASP107     -0.2864
    111  CB       111.9010   19.6150  -23.3620 C.3   107  ASP107      0.1436
    112  CG       112.0880   18.1380  -23.0940 C.2   107  ASP107      0.3671
    113  OD1      111.1740   17.4040  -22.6640 O.co2 107  ASP107     -0.2456
    114  OD2      113.1910   17.6730  -23.3610 O.co2 107  ASP107     -0.2456
    115  N        108.5000   23.2500  -18.4770 N.3   127  MET127     -0.1245
    116  CA       108.1950   24.6010  -19.0000 C.3   127  MET127      0.1570
    117  C        106.7230   24.8190  -19.2420 C.2   127  MET127      0.2261
    118  O        106.2660   25.9460  -19.3640 O.2   127  MET127     -0.2867
    119  CB       108.9460   24.8760  -20.2650 C.3   127  MET127      0.0387
    120  CG       110.3240   25.5210  -20.0520 C.3   127  MET127      0.0595
    121  SD       111.5130   25.3040  -21.4120 S.3   127  MET127     -0.1393
    122  CE       110.4300   24.6620  -22.6990 C.3   127  MET127      0.0692
    123  N        110.8480   31.9180  -15.9600 N.3   148  MET148     -0.1245
    124  CA       111.7800   30.9280  -15.4160 C.3   148  MET148      0.1570
    125  C        112.2810   31.4790  -14.0720 C.2   148  MET148      0.2261
    126  O        112.2080   32.7030  -13.8000 O.2   148  MET148     -0.2867
    127  CB       112.9070   30.4790  -16.4260 C.3   148  MET148      0.0387
    128  CG       114.3520   31.0340  -16.2980 C.3   148  MET148      0.0595
    129  SD       115.7500   29.9600  -15.7830 S.3   148  MET148     -0.1393
    130  CE       115.8460   30.2820  -14.0380 C.3   148  MET148      0.0692
    131  N        110.3780   26.3740  -13.2920 N.3   169  ILE169     -0.1231
    132  CA       111.7790   26.2680  -13.7710 C.3   169  ILE169      0.1692
    133  C        112.7800   26.7450  -12.7150 C.2   169  ILE169      0.2592
    134  O        112.7450   27.8840  -12.3460 O.2   169  ILE169     -0.2718
    135  CB       112.0440   26.9910  -15.0680 C.3   169  ILE169      0.0266
    136  CG1      110.9830   26.5880  -16.1220 C.3   169  ILE169      0.0019
    137  CG2      113.4690   26.6050  -15.5370 C.3   169  ILE169      0.0020
    138  CD1      111.1760   25.1620  -16.6460 C.3   169  ILE169      0.0001
    139  N        113.6290   25.8320  -12.2530 N.am  170  LEU170     -0.1966
    140  CA       114.6530   26.1200  -11.3160 C.3   170  LEU170      0.1728
    141  C        115.7070   26.9780  -11.9840 C.2   170  LEU170      0.2616
    142  O        116.0820   26.8230  -13.1770 O.2   170  LEU170     -0.2715
    143  CB       115.3800   24.8930  -10.8210 C.3   170  LEU170      0.0311
    144  CG       114.6040   23.8130  -10.1270 C.3   170  LEU170      0.0022
    145  CD1      115.5660   22.7390   -9.6440 C.3   170  LEU170      0.0001
    146  CD2      113.7730   24.3280   -8.9950 C.3   170  LEU170      0.0001
    147  N        116.2340   27.8490  -11.1670 N.am  171  ASP171     -0.1957
    148  CA       117.3970   28.6940  -11.5140 C.3   171  ASP171      0.1840
    149  C        118.6160   28.0230  -10.8650 C.2   171  ASP171      0.2622
    150  O        118.4690   27.0810  -10.0360 O.2   171  ASP171     -0.2715
    151  CB       117.1570   30.0670  -10.9280 C.3   171  ASP171      0.1450
    152  CG       117.9540   31.1560  -11.6160 C.2   171  ASP171      0.3671
    153  OD1      118.9060   30.8530  -12.4180 O.co2 171  ASP171     -0.2456
    154  OD2      117.6430   32.3370  -11.3020 O.co2 171  ASP171     -0.2456
    155  N        119.8030   28.5370  -11.1710 N.am  172  TRP172     -0.1974
    156  CA       121.0170   28.0010  -10.5720 C.3   172  TRP172      0.1640
    157  C        120.9050   27.9580   -9.0570 C.2   172  TRP172      0.2290
    158  O        121.3530   26.9790   -8.4890 O.2   172  TRP172     -0.2864
    159  CB       122.2400   28.7970  -11.0290 C.3   172  TRP172      0.0576
    160  CG       122.5790   28.6120  -12.5660 C.ar  172  TRP172      0.0006
    161  CD1      122.3520   29.5180  -13.6030 C.ar  172  TRP172      0.0946
    162  CD2      123.1890   27.4480  -13.1850 C.ar  172  TRP172      0.0152
    163  NE1      122.8060   28.9870  -14.8070 N.ar  172  TRP172     -0.2442
    164  CE2      123.3030   27.7180  -14.5730 C.ar  172  TRP172      0.0810
    165  CE3      123.6540   26.1980  -12.6890 C.ar  172  TRP172      0.0012
    166  CZ2      123.8680   26.7880  -15.4620 C.ar  172  TRP172      0.0191
    167  CZ3      124.2390   25.2860  -13.5790 C.ar  172  TRP172      0.0001
    168  CH2      124.3400   25.5920  -14.9410 C.ar  172  TRP172      0.0015
@<TRIPOS>BOND
     1    81    80    2
     2    80    79    1
     3    78    79    1
     4    79    82    1
     5    82    83    1
     6    22    23    1
     7    83    84   ar
     8    83    85   ar
     9    84    86   ar
    10    23    24    1
    11    23    26    1
    12    85    87   ar
    13    34    35    1
    14    34    31    1
    15    30    24   am
    16    30    36    1
    17    30    31    1
    18    24    25    2
    19    36    35    1
    20    31    32    1
    21    89    90    1
    22    27    26    1
    23    27    29    1
    24    86    88   ar
    25    26    28    1
    26    91    90    1
    27    91    92    2
    28    87    88   ar
    29    90    93    1
    30    32    33    2
    31    69    70    1
    32    93    94    1
    33    48    49    1
    34    94    96   ar
    35    94    95   ar
    36    96    98   ar
    37    70    71    1
    38    70    73    1
    39    72    71    2
    40    95    97   ar
    41    49    50    1
    42    49    52    1
    43    54    52    1
    44    98    99   ar
    45    97    99   ar
    46    51    50    2
    47    20    19    2
    48    50    55   am
    49    52    53    1
    50    73    74    1
    51    19    18    1
    52    58    57    2
    53    57    56    1
    54    55    56    1
    55    37    38    1
    56    40    39    2
    57    74    75    1
    58   110   109    2
    59    39    38    1
    60   111   112    1
    61   111   108    1
    62   114   112   ar
    63   112   113   ar
    64    38    41    1
    65    56    59    1
    66    18    21    1
    67    18    17    1
    68   122   121    1
    69   109   108    1
    70   108   107    1
    71    77    75   ar
    72    75    76   ar
    73    59    60    1
    74    41    42    1
    75   121   120    1
    76    42    44   ar
    77    42    43   ar
    78    44    46   ar
    79    43    45   ar
    80   107   102   am
    81    65    67   ar
    82    65    62   ar
    83    45    47   ar
    84    46    47   ar
    85    60    62   ar
    86    60    61   ar
    87    67    68   ar
    88    62    64   ar
    89   119   120    1
    90   119   116    1
    91   103   102    2
    92   102   101    1
    93    61    63   ar
    94   118   117    2
    95   106   104    1
    96    68    66   ar
    97    64    63   ar
    98    64    66   ar
    99   117   116    1
   100   116   115    1
   101   100   101    1
   102   101   104    1
   103    16    15    1
   104   104   105    1
   105    12    13    1
   106    12     9    1
   107    11    10    2
   108    13    14    1
   109    15    14    1
   110    10     9    1
   111   138   136    1
   112     9     8    1
   113   127   128    1
   114   127   124    1
   115   128   129    1
   116   136   135    1
   117   123   124    1
   118     4     3    2
   119   129   130    1
   120   137   135    1
   121   166   168   ar
   122   166   164   ar
   123   124   125    1
   124   135   132    1
   125   168   167   ar
   126     3     2    1
   127   163   164   ar
   128   163   161   ar
   129   164   162   ar
   130     5     2    1
   131     5     6    1
   132   125   126    2
   133     2     1    1
   134   132   131    1
   135   132   133    1
   136   161   160   ar
   137   167   165   ar
   138     6     7    1
   139   162   165   ar
   140   162   160   ar
   141   142   141    2
   142   133   134    2
   143   133   139   am
   144     1     7    1
   145   160   159    1
   146   153   152   ar
   147   139   140    1
   148   141   140    1
   149   141   147   am
   150   152   154   ar
   151   152   151    1
   152   148   147    1
   153   148   151    1
   154   148   149    1
   155   140   143    1
   156   155   149   am
   157   155   156    1
   158   159   156    1
   159   149   150    2
   160   143   144    1
   161   156   157    1
   162   144   145    1
   163   144   146    1
   164   157   158    2
