@<TRIPOS>MOLECULE
tmp/5mgrA02.pdb
 87 85 0 0 0
SMALL
GASTEIGER

@<TRIPOS>ATOM
      1  N        -31.8220  -12.8480   -1.3660 N.3    26  TRP26      -0.1241
      2  CA       -31.2360  -11.7440   -0.5970 C.3    26  TRP26       0.1605
      3  C        -32.3550  -10.8770    0.0120 C.2    26  TRP26       0.2264
      4  O        -32.3070  -10.5210    1.1970 O.2    26  TRP26      -0.2867
      5  CB       -30.2950  -10.9200   -1.4630 C.3    26  TRP26       0.0550
      6  CG       -29.5230   -9.8370   -0.7080 C.ar   26  TRP26       0.0003
      7  CD1      -28.3160   -9.9530   -0.1210 C.ar   26  TRP26       0.0946
      8  CD2      -29.9680   -8.5020   -0.4490 C.ar   26  TRP26       0.0152
      9  NE1      -27.9510   -8.7610    0.4700 N.ar   26  TRP26      -0.2442
     10  CE2      -28.9690   -7.8650    0.2910 C.ar   26  TRP26       0.0810
     11  CE3      -31.1120   -7.7780   -0.7910 C.ar   26  TRP26       0.0012
     12  CZ2      -29.0760   -6.5260    0.6810 C.ar   26  TRP26       0.0191
     13  CZ3      -31.2280   -6.4620   -0.3750 C.ar   26  TRP26       0.0001
     14  CH2      -30.2010   -5.8580    0.3470 C.ar   26  TRP26       0.0015
     15  N        -32.8540   -9.9370    4.0200 N.3    30  LEU30      -0.1245
     16  CA       -33.0210   -8.5970    4.6000 C.3    30  LEU30       0.1561
     17  C        -34.2690   -8.4800    5.4330 C.2    30  LEU30       0.2260
     18  O        -34.2280   -7.9590    6.5400 O.2    30  LEU30      -0.2867
     19  CB       -32.9960   -7.5620    3.4740 C.3    30  LEU30       0.0270
     20  CG       -33.2070   -6.1230    3.9150 C.3    30  LEU30       0.0019
     21  CD1      -32.1340   -5.6210    4.8620 C.3    30  LEU30       0.0001
     22  CD2      -33.3180   -5.1640    2.6990 C.3    30  LEU30       0.0001
     23  N        -25.2690   -4.9080   -1.7180 N.3    68  ASN68      -0.1225
     24  CA       -25.6970   -5.3000   -3.0670 C.3    68  ASN68       0.1785
     25  C        -25.4230   -4.2640   -4.1140 C.2    68  ASN68       0.2597
     26  O        -25.0310   -3.1550   -3.7780 O.2    68  ASN68      -0.2718
     27  CB       -27.1500   -5.7700   -3.0860 C.3    68  ASN68       0.1169
     28  CG       -28.1590   -4.6700   -2.8340 C.2    68  ASN68       0.2627
     29  OD1      -27.8500   -3.5210   -2.8030 O.2    68  ASN68      -0.2716
     30  ND2      -29.3980   -5.0590   -2.6710 N.am   68  ASN68      -0.0877
     31  N        -25.6460   -4.6280   -5.3860 N.am   69  PHE69      -0.1962
     32  CA       -25.2490   -3.7150   -6.4700 C.3    69  PHE69       0.1771
     33  C        -26.3820   -2.7660   -6.7780 C.2    69  PHE69       0.2620
     34  O        -27.5140   -3.1960   -7.0340 O.2    69  PHE69      -0.2715
     35  CB       -24.9000   -4.5080   -7.7080 C.3    69  PHE69       0.0574
     36  CG       -24.1950   -3.6760   -8.7520 C.ar   69  PHE69      -0.0200
     37  CD1      -22.8610   -3.3480   -8.5960 C.ar   69  PHE69      -0.0042
     38  CD2      -24.8880   -3.2130   -9.8660 C.ar   69  PHE69      -0.0042
     39  CE1      -22.2060   -2.5580   -9.5350 C.ar   69  PHE69      -0.0003
     40  CE2      -24.2430   -2.4210  -10.8130 C.ar   69  PHE69      -0.0003
     41  CZ       -22.8990   -2.1350  -10.6540 C.ar   69  PHE69      -0.0000
     42  N        -26.1080   -1.4820   -6.6740 N.am   70  SER70      -0.1936
     43  CA       -27.0790   -0.4550   -7.0440 C.3    70  SER70       0.2055
     44  C        -26.8460   -0.1240   -8.5510 C.2    70  SER70       0.2643
     45  O        -25.8780    0.5160   -8.8880 O.2    70  SER70      -0.2714
     46  CB       -26.8390    0.7610   -6.1800 C.3    70  SER70       0.2130
     47  OG       -27.7940    1.7750   -6.3910 O.3    70  SER70      -0.2179
     48  N        -27.7120   -0.5980   -9.4370 N.am   71  LEU71      -0.1963
     49  CA       -27.5080   -0.4160  -10.9030 C.3    71  LEU71       0.1728
     50  C        -27.4540    1.0630  -11.2980 C.2    71  LEU71       0.2617
     51  O        -26.5680    1.4480  -12.0360 O.2    71  LEU71      -0.2715
     52  CB       -28.5850   -1.1160  -11.7530 C.3    71  LEU71       0.0311
     53  CG       -28.4900   -0.8980  -13.3010 C.3    71  LEU71       0.0022
     54  CD1      -27.1410   -1.3310  -13.8880 C.3    71  LEU71       0.0001
     55  CD2      -29.6300   -1.6210  -14.0140 C.3    71  LEU71       0.0001
     56  N        -28.3700    1.8720  -10.7960 N.am   72  SER72      -0.1936
     57  CA       -28.3660    3.3130  -11.1080 C.3    72  SER72       0.2055
     58  C        -27.0680    4.0290  -10.7380 C.2    72  SER72       0.2642
     59  O        -26.5770    4.8780  -11.4970 O.2    72  SER72      -0.2714
     60  CB       -29.5330    4.0000  -10.4090 C.3    72  SER72       0.2130
     61  OG       -29.3880    3.9390   -9.0180 O.3    72  SER72      -0.2179
     62  N        -26.5020    3.6820   -9.5760 N.am   73  GLU73      -0.1976
     63  CA       -25.2810    4.3150   -9.0930 C.3    73  GLU73       0.1602
     64  C        -24.0370    3.5550   -9.5110 C.2    73  GLU73       0.2287
     65  O        -22.9160    4.0130   -9.2880 O.2    73  GLU73      -0.2864
     66  CB       -25.3760    4.5490   -7.5790 C.3    73  GLU73       0.0415
     67  CG       -26.4730    5.5740   -7.2230 C.3    73  GLU73       0.1163
     68  CD       -27.2280    5.3130   -5.9100 C.2    73  GLU73       0.3649
     69  OE1      -27.6780    6.3060   -5.2980 O.co2  73  GLU73      -0.2457
     70  OE2      -27.3780    4.1410   -5.4670 O.co2  73  GLU73      -0.2457
     71  N        -23.4170   -1.1090   -2.7460 N.3    77  LYS77      -0.1245
     72  CA       -23.9270   -0.2210   -1.7340 C.3    77  LYS77       0.1561
     73  C        -24.3510   -1.0370   -0.4960 C.2    77  LYS77       0.2260
     74  O        -25.0890   -1.9840   -0.6470 O.2    77  LYS77      -0.2867
     75  CB       -25.1300    0.5720   -2.2340 C.3    77  LYS77       0.0271
     76  CG       -25.5050    1.7520   -1.3220 C.3    77  LYS77       0.0035
     77  CD       -26.6660    2.5850   -1.8460 C.3    77  LYS77       0.0206
     78  CE       -27.9780    1.8660   -1.6390 C.3    77  LYS77       0.1093
     79  NZ       -29.1430    2.7210   -2.0260 N.3    77  LYS77      -0.1314
     80  N        -26.4380   -1.6870    2.9770 N.3    79  ILE79      -0.1245
     81  CA       -27.8160   -1.3500    3.2730 C.3    79  ILE79       0.1561
     82  C        -27.9630   -0.1420    4.1750 C.2    79  ILE79       0.2260
     83  O        -29.0410    0.4020    4.2780 O.2    79  ILE79      -0.2867
     84  CB       -28.6380   -2.5390    3.8690 C.3    79  ILE79       0.0252
     85  CG1      -27.9850   -2.9920    5.1590 C.3    79  ILE79       0.0019
     86  CG2      -28.7420   -3.6440    2.8170 C.3    79  ILE79       0.0019
     87  CD1      -28.9920   -3.7710    5.9630 C.3    79  ILE79       0.0001
@<TRIPOS>BOND
     1    55    53    1
     2    54    53    1
     3    53    52    1
     4    51    50    2
     5    52    49    1
     6    59    58    2
     7    50    49    1
     8    50    56   am
     9    57    56    1
    10    57    58    1
    11    57    60    1
    12    49    48    1
    13    40    41   ar
    14    40    38   ar
    15    58    62   am
    16    41    39   ar
    17    60    61    1
    18    38    36   ar
    19    62    63    1
    20    39    37   ar
    21    64    65    2
    22    64    63    1
    23    48    44   am
    24    63    66    1
    25    45    44    2
    26    36    37   ar
    27    36    35    1
    28    44    43    1
    29    35    32    1
    30    66    67    1
    31    67    68    1
    32    43    42    1
    33    43    46    1
    34    34    33    2
    35    33    42   am
    36    33    32    1
    37    32    31    1
    38    47    46    1
    39    68    70   ar
    40    68    69   ar
    41    31    25   am
    42    25    26    2
    43    25    24    1
    44    27    24    1
    45    27    28    1
    46    24    23    1
    47    28    29    2
    48    28    30   am
    49    71    72    1
    50    75    72    1
    51    75    76    1
    52    79    78    1
    53    77    78    1
    54    77    76    1
    55    72    73    1
    56     5     6    1
    57     5     2    1
    58     1     2    1
    59    11     8   ar
    60    11    13   ar
    61     6     8   ar
    62     6     7   ar
    63    74    73    2
    64     2     3    1
    65     8    10   ar
    66    13    14   ar
    67     7     9   ar
    68     3     4    2
    69    10     9   ar
    70    10    12   ar
    71    14    12   ar
    72    22    20    1
    73    86    84    1
    74    80    81    1
    75    81    84    1
    76    81    82    1
    77    19    20    1
    78    19    16    1
    79    84    85    1
    80    20    21    1
    81    15    16    1
    82    82    83    2
    83    16    17    1
    84    85    87    1
    85    17    18    2
