@<TRIPOS>MOLECULE
tmp/5mgrA01.pdb
 96 95 0 0 0
SMALL
GASTEIGER

@<TRIPOS>ATOM
      1  N        -19.4510   -5.1820    7.0630 N.3    43  ILE43      -0.1231
      2  CA       -18.0600   -5.6040    7.2450 C.3    43  ILE43       0.1692
      3  C        -17.1900   -4.3830    6.9780 C.2    43  ILE43       0.2592
      4  O        -17.2100   -3.8420    5.8940 O.2    43  ILE43      -0.2718
      5  CB       -17.6630   -6.7200    6.2990 C.3    43  ILE43       0.0266
      6  CG1      -18.5640   -7.9410    6.4910 C.3    43  ILE43       0.0019
      7  CG2      -16.2070   -7.1680    6.5640 C.3    43  ILE43       0.0020
      8  CD1      -18.2610   -9.1370    5.6510 C.3    43  ILE43       0.0001
      9  N        -16.4390   -3.9630    7.9790 N.am   44  ARG44      -0.1966
     10  CA       -15.6920   -2.6900    7.9420 C.3    44  ARG44       0.1729
     11  C        -14.4030   -2.8340    7.1620 C.2    44  ARG44       0.2616
     12  O        -14.0170   -1.9270    6.3660 O.2    44  ARG44      -0.2715
     13  CB       -15.3780   -2.3340    9.3950 C.3    44  ARG44       0.0348
     14  CG       -14.6810   -1.0050    9.5840 C.3    44  ARG44       0.0492
     15  CD       -14.5750   -0.6620   11.0380 C.3    44  ARG44       0.2205
     16  NE       -13.4990   -1.3810   11.6920 N.pl3  44  ARG44      -0.0865
     17  CZ       -13.1710   -1.2240   12.9790 C.cat  44  ARG44       0.5346
     18  NH1      -13.8860   -0.4120   13.7610 N.pl3  44  ARG44       0.1354
     19  NH2      -12.1350   -1.9010   13.4940 N.pl3  44  ARG44       0.1354
     20  N        -13.7120   -3.9590    7.3670 N.am   45  ASP45      -0.1971
     21  CA       -12.3840   -4.1200    6.8210 C.3    45  ASP45       0.1709
     22  C        -11.9630   -5.5590    6.8100 C.2    45  ASP45       0.2293
     23  O        -12.7180   -6.4530    7.2160 O.2    45  ASP45      -0.2864
     24  CB       -11.3630   -3.2330    7.6140 C.3    45  ASP45       0.1436
     25  CG       -11.4400   -3.4400    9.0870 C.2    45  ASP45       0.3671
     26  OD1      -11.8000   -4.5840    9.5220 O.co2  45  ASP45      -0.2456
     27  OD2      -11.2450   -2.4470    9.8220 O.co2  45  ASP45      -0.2456
     28  N        -23.8580   -0.6460    0.6770 N.3    78  TRP78      -0.1241
     29  CA       -24.2810   -1.2520    1.9400 C.3    78  TRP78       0.1605
     30  C        -25.7000   -0.8480    2.2300 C.2    78  TRP78       0.2264
     31  O        -26.1550    0.2540    1.8340 O.2    78  TRP78      -0.2867
     32  CB       -23.3750   -0.7860    3.0870 C.3    78  TRP78       0.0550
     33  CG       -21.9490   -1.2410    3.0100 C.ar   78  TRP78       0.0003
     34  CD1      -20.8510   -0.4930    2.6770 C.ar   78  TRP78       0.0946
     35  CD2      -21.4520   -2.5340    3.3070 C.ar   78  TRP78       0.0152
     36  NE1      -19.7070   -1.2400    2.7640 N.ar   78  TRP78      -0.2442
     37  CE2      -20.0470   -2.5000    3.1540 C.ar   78  TRP78       0.0810
     38  CE3      -22.0540   -3.7320    3.7230 C.ar   78  TRP78       0.0012
     39  CZ2      -19.2470   -3.6190    3.3790 C.ar   78  TRP78       0.0191
     40  CZ3      -21.2810   -4.8120    3.9030 C.ar   78  TRP78       0.0001
     41  CH2      -19.8820   -4.7630    3.7240 C.ar   78  TRP78       0.0015
     42  N        -24.2530    3.6120    2.5850 N.3    82  SER82      -0.1202
     43  CA       -22.9130    3.9140    2.1290 C.3    82  SER82       0.2020
     44  C        -22.4410    3.0620    0.9840 C.2    82  SER82       0.2619
     45  O        -22.6700    1.8700    0.9220 O.2    82  SER82      -0.2717
     46  CB       -21.9190    3.7580    3.2560 C.3    82  SER82       0.2103
     47  OG       -22.2570    4.5900    4.3120 O.3    82  SER82      -0.2182
     48  N        -21.7420    3.6870    0.0280 N.am   83  PHE83      -0.1961
     49  CA       -21.0900    2.9070   -0.9850 C.3    83  PHE83       0.1771
     50  C        -19.8390    2.2250   -0.4950 C.2    83  PHE83       0.2619
     51  O        -19.1460    2.7170    0.4290 O.2    83  PHE83      -0.2715
     52  CB       -20.8060    3.7560   -2.1980 C.3    83  PHE83       0.0574
     53  CG       -22.0350    4.1060   -2.8840 C.ar   83  PHE83      -0.0200
     54  CD1      -22.6100    3.2130   -3.7540 C.ar   83  PHE83      -0.0042
     55  CD2      -22.7390    5.2240   -2.5080 C.ar   83  PHE83      -0.0042
     56  CE1      -23.8300    3.4810   -4.3310 C.ar   83  PHE83      -0.0003
     57  CE2      -23.9640    5.5030   -3.0780 C.ar   83  PHE83      -0.0003
     58  CZ       -24.4990    4.6300   -3.9970 C.ar   83  PHE83      -0.0000
     59  N        -19.5600    1.0800   -1.0990 N.am   84  LEU84      -0.1963
     60  CA       -18.3640    0.2760   -0.7290 C.3    84  LEU84       0.1728
     61  C        -17.1420    1.0910   -0.9940 C.2    84  LEU84       0.2616
     62  O        -16.9650    1.5490   -2.1190 O.2    84  LEU84      -0.2715
     63  CB       -18.2930   -0.9840   -1.5740 C.3    84  LEU84       0.0311
     64  CG       -17.0490   -1.8750   -1.3710 C.3    84  LEU84       0.0022
     65  CD1      -16.8470   -2.2840    0.0750 C.3    84  LEU84       0.0001
     66  CD2      -17.1650   -3.1140   -2.2480 C.3    84  LEU84       0.0001
     67  N        -16.2830    1.2410    0.0110 N.am   85  ASN85      -0.1958
     68  CA       -15.2210    2.2630   -0.0750 C.3    85  ASN85       0.1819
     69  C        -13.8080    1.7380   -0.3150 C.2    85  ASN85       0.2622
     70  O        -12.8420    2.5180   -0.2690 O.2    85  ASN85      -0.2715
     71  CB       -15.2340    3.1450    1.1790 C.3    85  ASN85       0.1195
     72  CG       -14.5400    2.4970    2.3560 C.2    85  ASN85       0.2630
     73  OD1      -14.2960    1.2870    2.3540 O.2    85  ASN85      -0.2716
     74  ND2      -14.1990    3.3010    3.3660 N.am   85  ASN85      -0.0877
     75  N        -13.6590    0.4390   -0.5460 N.am   86  SER86      -0.1950
     76  CA       -12.3060   -0.0780   -0.7680 C.3    86  SER86       0.1924
     77  C        -12.4340   -1.3490   -1.5060 C.2    86  SER86       0.2314
     78  O        -13.5510   -1.7650   -1.8640 O.2    86  SER86      -0.2863
     79  CB       -11.5420   -0.2950    0.5580 C.3    86  SER86       0.2116
     80  OG       -11.7520   -1.5980    1.1370 O.3    86  SER86      -0.2180
     81  N        -10.9610   -3.9620    0.1020 N.3    88  ASP88      -0.1225
     82  CA       -10.6320   -4.8660    1.2330 C.3    88  ASP88       0.1805
     83  C        -11.3330   -6.2240    1.1800 C.2    88  ASP88       0.2597
     84  O        -10.7850   -7.2370    1.6920 O.2    88  ASP88      -0.2718
     85  CB       -10.9580   -4.2270    2.6190 C.3    88  ASP88       0.1424
     86  CG        -9.7120   -3.6030    3.2950 C.2    88  ASP88       0.3668
     87  OD1       -9.0900   -2.7580    2.6050 O.co2  88  ASP88      -0.2456
     88  OD2       -9.3660   -3.9630    4.4740 O.co2  88  ASP88      -0.2456
     89  N        -12.5600   -6.2400    0.6420 N.am   89  LEU89      -0.1979
     90  CA       -13.3320   -7.4680    0.5960 C.3    89  LEU89       0.1596
     91  C        -12.9600   -8.3160   -0.5880 C.2    89  LEU89       0.2287
     92  O        -13.3020   -9.5220   -0.6490 O.2    89  LEU89      -0.2864
     93  CB       -14.8440   -7.1930    0.5070 C.3    89  LEU89       0.0297
     94  CG       -15.4780   -6.4570    1.6380 C.3    89  LEU89       0.0022
     95  CD1      -16.9800   -6.3510    1.3480 C.3    89  LEU89       0.0001
     96  CD2      -15.2130   -7.2900    2.8830 C.3    89  LEU89       0.0001
@<TRIPOS>BOND
     1    56    58   ar
     2    56    54   ar
     3    58    57   ar
     4    54    53   ar
     5    57    55   ar
     6    53    55   ar
     7    53    52    1
     8    66    64    1
     9    52    49    1
    10    62    61    2
    11    78    77    2
    12    63    64    1
    13    63    60    1
    14    77    76    1
    15    64    65    1
    16    59    60    1
    17    59    50   am
    18    61    60    1
    19    61    67   am
    20    49    50    1
    21    49    48    1
    22    76    75    1
    23    76    79    1
    24    92    91    2
    25    91    90    1
    26    75    69   am
    27    50    51    2
    28    69    70    2
    29    69    68    1
    30    68    67    1
    31    68    71    1
    32    48    44   am
    33    81    82    1
    34    93    90    1
    35    93    94    1
    36    79    80    1
    37    90    89    1
    38    89    83   am
    39    28    29    1
    40    45    44    2
    41    44    43    1
    42    71    72    1
    43    83    82    1
    44    83    84    2
    45    82    85    1
    46    95    94    1
    47    94    96    1
    48    31    30    2
    49    29    30    1
    50    29    32    1
    51    43    42    1
    52    43    46    1
    53    73    72    2
    54    72    74   am
    55    87    86   ar
    56    85    86    1
    57    34    36   ar
    58    34    33   ar
    59    36    37   ar
    60    33    32    1
    61    33    35   ar
    62    37    35   ar
    63    37    39   ar
    64    46    47    1
    65    86    88   ar
    66    35    38   ar
    67    39    41   ar
    68    38    40   ar
    69    41    40   ar
    70     8     6    1
    71     4     3    2
    72     5     6    1
    73     5     7    1
    74     5     2    1
    75    12    11    2
    76    22    21    1
    77    22    23    2
    78    21    20    1
    79    21    24    1
    80     3     2    1
    81     3     9   am
    82     1     2    1
    83    11    20   am
    84    11    10    1
    85    24    25    1
    86    10     9    1
    87    10    13    1
    88    25    26   ar
    89    25    27   ar
    90    13    14    1
    91    14    15    1
    92    15    16    1
    93    16    17    2
    94    17    19    1
    95    17    18    1
