@<TRIPOS>MOLECULE
tmp/5mgsH01.pdb
 100 99 0 0 0
SMALL
GASTEIGER

@<TRIPOS>ATOM
      1  N         33.2350  -28.7840  105.3610 N.3    26  TRP26      -0.1227
      2  CA        32.1090  -27.8740  105.4550 C.3    26  TRP26       0.1737
      3  C         32.4820  -26.5020  104.9440 C.2    26  TRP26       0.2595
      4  O         31.7400  -25.9290  104.1090 O.2    26  TRP26      -0.2718
      5  CB        31.5840  -27.8440  106.9020 C.3    26  TRP26       0.0564
      6  CG        30.2810  -27.0620  107.0560 C.ar   26  TRP26       0.0003
      7  CD1       29.0260  -27.5280  106.9240 C.ar   26  TRP26       0.0946
      8  CD2       30.1750  -25.7150  107.3830 C.ar   26  TRP26       0.0152
      9  NE1       28.1170  -26.5420  107.1910 N.ar   26  TRP26      -0.2442
     10  CE2       28.8130  -25.4050  107.4540 C.ar   26  TRP26       0.0810
     11  CE3       31.1160  -24.7000  107.5970 C.ar   26  TRP26       0.0012
     12  CZ2       28.3530  -24.1490  107.7150 C.ar   26  TRP26       0.0191
     13  CZ3       30.6530  -23.4400  107.8920 C.ar   26  TRP26       0.0001
     14  CH2       29.2540  -23.1760  107.9320 C.ar   26  TRP26       0.0015
     15  N         33.6730  -25.9930  105.3110 N.am   27  ASN27      -0.1974
     16  CA        34.0040  -24.6420  104.9290 C.3    27  ASN27       0.1688
     17  C         34.0880  -24.4550  103.4010 C.2    27  ASN27       0.2292
     18  O         33.6490  -23.4440  102.8580 O.2    27  ASN27      -0.2864
     19  CB        35.2470  -24.1260  105.6560 C.3    27  ASN27       0.1181
     20  CG        36.5160  -24.7840  105.1940 C.2    27  ASN27       0.2629
     21  OD1       36.5580  -25.9790  104.8690 O.2    27  ASN27      -0.2716
     22  ND2       37.5620  -23.9970  105.1570 N.am   27  ASN27      -0.0877
     23  N         30.5560  -24.3550  101.8900 N.3    30  LEU30      -0.1245
     24  CA        29.9980  -23.0020  101.9810 C.3    30  LEU30       0.1561
     25  C         30.5180  -22.0870  100.8660 C.2    30  LEU30       0.2260
     26  O         29.7390  -21.4130  100.2130 O.2    30  LEU30      -0.2867
     27  CB        30.3120  -22.3720  103.3360 C.3    30  LEU30       0.0270
     28  CG        30.1760  -20.8530  103.5120 C.3    30  LEU30       0.0019
     29  CD1       28.7730  -20.4170  103.2400 C.3    30  LEU30       0.0001
     30  CD2       30.5000  -20.5190  104.9610 C.3    30  LEU30       0.0001
     31  N         26.4260  -24.9010  111.7380 N.3    68  ASN68      -0.1225
     32  CA        27.5860  -25.3600  112.4750 C.3    68  ASN68       0.1785
     33  C         27.5130  -24.8950  113.9310 C.2    68  ASN68       0.2597
     34  O         26.6050  -24.1110  114.2850 O.2    68  ASN68      -0.2718
     35  CB        28.8800  -24.9100  111.8010 C.3    68  ASN68       0.1169
     36  CG        29.1470  -23.4370  111.9150 C.2    68  ASN68       0.2627
     37  OD1       28.3290  -22.6900  112.3530 O.2    68  ASN68      -0.2716
     38  ND2       30.3340  -23.0230  111.5480 N.am   68  ASN68      -0.0877
     39  N         28.5000  -25.2880  114.7300 N.am   69  PHE69      -0.1976
     40  CA        28.4620  -25.0840  116.1850 C.3    69  PHE69       0.1639
     41  C         29.1150  -23.7940  116.5130 C.2    69  PHE69       0.2290
     42  O         30.2200  -23.5280  116.1140 O.2    69  PHE69      -0.2864
     43  CB        29.0980  -26.2700  116.9070 C.3    69  PHE69       0.0560
     44  CG        28.8530  -26.3060  118.3780 C.ar   69  PHE69      -0.0200
     45  CD1       27.6210  -26.6060  118.8810 C.ar   69  PHE69      -0.0042
     46  CD2       29.9100  -26.0590  119.2760 C.ar   69  PHE69      -0.0042
     47  CE1       27.4230  -26.6150  120.2720 C.ar   69  PHE69      -0.0003
     48  CE2       29.7190  -26.1100  120.6540 C.ar   69  PHE69      -0.0003
     49  CZ        28.4710  -26.3420  121.1470 C.ar   69  PHE69      -0.0000
     50  N         24.2550  -22.7520  114.9390 N.3    77  LYS77      -0.1231
     51  CA        23.9230  -21.4960  114.3310 C.3    77  LYS77       0.1693
     52  C         23.8660  -21.6380  112.7960 C.2    77  LYS77       0.2592
     53  O         24.8160  -22.2180  112.1890 O.2    77  LYS77      -0.2718
     54  CB        25.0230  -20.5120  114.6910 C.3    77  LYS77       0.0285
     55  CG        24.6280  -19.1060  114.5210 C.3    77  LYS77       0.0035
     56  CD        25.7620  -18.1950  114.8610 C.3    77  LYS77       0.0206
     57  CE        25.2620  -16.7880  114.8300 C.3    77  LYS77       0.1093
     58  NZ        26.4290  -15.8750  115.0240 N.3    77  LYS77      -0.1314
     59  N         22.8110  -21.0900  112.1690 N.am   78  TRP78      -0.1962
     60  CA        22.6510  -21.1630  110.7510 C.3    78  TRP78       0.1771
     61  C         23.5870  -20.1110  110.1620 C.2    78  TRP78       0.2619
     62  O         23.8800  -19.0870  110.8230 O.2    78  TRP78      -0.2715
     63  CB        21.2180  -20.9260  110.2710 C.3    78  TRP78       0.0590
     64  CG        20.2600  -21.9220  110.6770 C.ar   78  TRP78       0.0006
     65  CD1       19.3900  -21.8270  111.7600 C.ar   78  TRP78       0.0946
     66  CD2       19.9790  -23.2000  110.0680 C.ar   78  TRP78       0.0152
     67  NE1       18.6650  -22.9570  111.8800 N.ar   78  TRP78      -0.2442
     68  CE2       19.0050  -23.8290  110.8680 C.ar   78  TRP78       0.0810
     69  CE3       20.4980  -23.9030  108.9440 C.ar   78  TRP78       0.0012
     70  CZ2       18.5190  -25.1020  110.5690 C.ar   78  TRP78       0.0191
     71  CZ3       20.0660  -25.1470  108.6840 C.ar   78  TRP78       0.0001
     72  CH2       19.0800  -25.7540  109.4830 C.ar   78  TRP78       0.0015
     73  N         24.0070  -20.2960  108.9060 N.am   79  ILE79      -0.1977
     74  CA        24.8580  -19.3060  108.2700 C.3    79  ILE79       0.1596
     75  C         24.1590  -17.9480  108.0050 C.2    79  ILE79       0.2287
     76  O         24.8090  -16.9530  107.6970 O.2    79  ILE79      -0.2864
     77  CB        25.5460  -19.8260  106.9650 C.3    79  ILE79       0.0276
     78  CG1       24.5520  -20.1980  105.8870 C.3    79  ILE79       0.0022
     79  CG2       26.4260  -21.0490  107.2660 C.3    79  ILE79       0.0022
     80  CD1       25.2120  -20.3020  104.5260 C.3    79  ILE79       0.0001
     81  N         34.1390  -27.1980  116.4590 N.3    98  ASN98      -0.1225
     82  CA        34.4630  -27.7280  115.1560 C.3    98  ASN98       0.1785
     83  C         33.5350  -28.8420  114.6400 C.2    98  ASN98       0.2597
     84  O         33.9480  -29.7440  113.8910 O.2    98  ASN98      -0.2718
     85  CB        35.9520  -28.1500  115.1250 C.3    98  ASN98       0.1169
     86  CG        36.8700  -26.9880  115.4480 C.2    98  ASN98       0.2627
     87  OD1       36.6620  -25.8850  114.9580 O.2    98  ASN98      -0.2716
     88  ND2       37.8740  -27.2170  116.3080 N.am   98  ASN98      -0.0877
     89  N         32.2760  -28.7840  115.0410 N.am   99  SER99      -0.1952
     90  CA        31.2560  -29.6580  114.5200 C.3    99  SER99       0.1924
     91  C         30.2830  -28.8900  113.6020 C.2    99  SER99       0.2314
     92  O         30.0150  -27.6910  113.7950 O.2    99  SER99      -0.2863
     93  CB        30.4510  -30.2370  115.6660 C.3    99  SER99       0.2116
     94  OG        31.3080  -30.8520  116.5750 O.3    99  SER99      -0.2180
     95  N         33.6970  -30.7720  111.1850 N.3   113  CYS113     -0.1235
     96  CA        33.6360  -29.8970  110.0120 C.3   113  CYS113      0.1677
     97  C         34.6540  -30.2470  108.9370 C.2   113  CYS113      0.2270
     98  O         34.4630  -29.8860  107.7620 O.2   113  CYS113     -0.2867
     99  CB        33.7810  -28.4550  110.4440 C.3   113  CYS113      0.0956
    100  SG        32.3950  -27.9290  111.5230 S.3   113  CYS113     -0.0801
@<TRIPOS>BOND
     1    26    25    2
     2    25    24    1
     3    23    24    1
     4    24    27    1
     5    18    17    2
     6    29    28    1
     7    27    28    1
     8    17    16    1
     9    28    30    1
    10     4     3    2
    11    80    78    1
    12    21    20    2
    13    16    15    1
    14    16    19    1
    15     3    15   am
    16     3     2    1
    17    22    20   am
    18    20    19    1
    19     1     2    1
    20     2     5    1
    21    78    77    1
    22     5     6    1
    23     7     6   ar
    24     7     9   ar
    25    77    79    1
    26    77    74    1
    27     6     8   ar
    28     9    10   ar
    29     8    10   ar
    30     8    11   ar
    31    10    12   ar
    32    11    13   ar
    33    76    75    2
    34    12    14   ar
    35    98    97    2
    36    13    14   ar
    37    75    74    1
    38    74    73    1
    39    71    69   ar
    40    71    72   ar
    41    73    61   am
    42    97    96    1
    43    69    66   ar
    44    72    70   ar
    45    96    99    1
    46    96    95    1
    47    66    64   ar
    48    66    68   ar
    49    61    60    1
    50    61    62    2
    51    63    64    1
    52    63    60    1
    53    99   100    1
    54    70    68   ar
    55    64    65   ar
    56    60    59    1
    57    68    67   ar
    58    38    36   am
    59    31    32    1
    60    65    67   ar
    61    35    36    1
    62    35    32    1
    63    36    37    2
    64    59    52   am
    65    53    52    2
    66    32    33    1
    67    52    51    1
    68    91    92    2
    69    91    90    1
    70    84    83    2
    71    33    34    2
    72    33    39   am
    73    51    54    1
    74    51    50    1
    75    90    89    1
    76    90    93    1
    77    55    54    1
    78    55    56    1
    79    83    89   am
    80    83    82    1
    81    39    40    1
    82    57    56    1
    83    57    58    1
    84    87    86    2
    85    85    82    1
    86    85    86    1
    87    82    81    1
    88    86    88   am
    89    93    94    1
    90    42    41    2
    91    40    41    1
    92    40    43    1
    93    43    44    1
    94    44    45   ar
    95    44    46   ar
    96    45    47   ar
    97    46    48   ar
    98    47    49   ar
    99    48    49   ar
