@<TRIPOS>MOLECULE
tmp/5mgsH00.pdb
 90 85 0 0 0
SMALL
GASTEIGER

@<TRIPOS>ATOM
      1  N         11.9490  -23.4180   96.9640 N.3    15  LYS15      -0.1245
      2  CA        13.4060  -23.3740   96.8180 C.3    15  LYS15       0.1561
      3  C         13.8510  -24.1760   95.5920 C.2    15  LYS15       0.2260
      4  O         13.1270  -25.0600   95.1230 O.2    15  LYS15      -0.2867
      5  CB        14.0380  -24.0120   98.0750 C.3    15  LYS15       0.0271
      6  CG        13.9580  -23.2080   99.3340 C.3    15  LYS15       0.0035
      7  CD        14.5870  -23.9700  100.5010 C.3    15  LYS15       0.0206
      8  CE        14.4250  -23.1250  101.7280 C.3    15  LYS15       0.1093
      9  NZ        15.1550  -23.6900  102.9070 N.3    15  LYS15      -0.1314
     10  N         19.2660  -24.3380  104.3160 N.3    42  LEU42      -0.1231
     11  CA        18.6410  -23.8410  105.5970 C.3    42  LEU42       0.1693
     12  C         17.3280  -24.5950  105.7300 C.2    42  LEU42       0.2592
     13  O         16.6290  -24.7420  104.7660 O.2    42  LEU42      -0.2718
     14  CB        18.3670  -22.3470  105.5130 C.3    42  LEU42       0.0284
     15  CG        19.5650  -21.5040  105.1060 C.3    42  LEU42       0.0019
     16  CD1       19.0980  -20.0260  105.0010 C.3    42  LEU42       0.0001
     17  CD2       20.7590  -21.6310  106.0340 C.3    42  LEU42       0.0001
     18  N         17.0750  -25.2090  106.8660 N.am   43  ILE43      -0.1966
     19  CA        15.9220  -26.0730  107.0610 C.3    43  ILE43       0.1727
     20  C         15.0410  -25.3960  108.1140 C.2    43  ILE43       0.2616
     21  O         15.4480  -25.2600  109.2660 O.2    43  ILE43      -0.2715
     22  CB        16.3390  -27.4880  107.5280 C.3    43  ILE43       0.0290
     23  CG1       17.1100  -28.1350  106.3940 C.3    43  ILE43       0.0022
     24  CG2       15.0880  -28.3340  107.8660 C.3    43  ILE43       0.0023
     25  CD1       17.6190  -29.5420  106.6610 C.3    43  ILE43       0.0001
     26  N         13.8450  -24.9970  107.7010 N.am   44  ARG44      -0.1977
     27  CA        12.9330  -24.1600  108.4920 C.3    44  ARG44       0.1597
     28  C         12.2730  -24.9210  109.6230 C.2    44  ARG44       0.2287
     29  O         12.1090  -24.3800  110.7340 O.2    44  ARG44      -0.2864
     30  CB        11.8510  -23.5600  107.5900 C.3    44  ARG44       0.0334
     31  CG        12.3750  -22.7450  106.4140 C.3    44  ARG44       0.0492
     32  CD        12.2520  -21.2420  106.5640 C.3    44  ARG44       0.2205
     33  NE        11.9000  -20.6950  105.2700 N.pl3  44  ARG44      -0.0865
     34  CZ        12.2490  -19.4860  104.8400 C.cat  44  ARG44       0.5346
     35  NH1       12.9900  -18.6660  105.6130 N.pl3  44  ARG44       0.1354
     36  NH2       11.8680  -19.1230  103.6120 N.pl3  44  ARG44       0.1354
     37  N         22.8110  -21.0900  112.1690 N.3    78  TRP78      -0.1241
     38  CA        22.6510  -21.1630  110.7510 C.3    78  TRP78       0.1605
     39  C         23.5870  -20.1110  110.1620 C.2    78  TRP78       0.2264
     40  O         23.8800  -19.0870  110.8230 O.2    78  TRP78      -0.2867
     41  CB        21.2180  -20.9260  110.2710 C.3    78  TRP78       0.0550
     42  CG        20.2600  -21.9220  110.6770 C.ar   78  TRP78       0.0003
     43  CD1       19.3900  -21.8270  111.7600 C.ar   78  TRP78       0.0946
     44  CD2       19.9790  -23.2000  110.0680 C.ar   78  TRP78       0.0152
     45  NE1       18.6650  -22.9570  111.8800 N.ar   78  TRP78      -0.2442
     46  CE2       19.0050  -23.8290  110.8680 C.ar   78  TRP78       0.0810
     47  CE3       20.4980  -23.9030  108.9440 C.ar   78  TRP78       0.0012
     48  CZ2       18.5190  -25.1020  110.5690 C.ar   78  TRP78       0.0191
     49  CZ3       20.0660  -25.1470  108.6840 C.ar   78  TRP78       0.0001
     50  CH2       19.0800  -25.7540  109.4830 C.ar   78  TRP78       0.0015
     51  N         22.8380  -17.9210  108.0770 N.3    80  ASN80      -0.1240
     52  CA        22.1150  -16.6520  107.9860 C.3    80  ASN80       0.1653
     53  C         22.1280  -15.8460  109.3240 C.2    80  ASN80       0.2266
     54  O         21.4950  -14.8000  109.4220 O.2    80  ASN80      -0.2867
     55  CB        20.6670  -16.9400  107.5020 C.3    80  ASN80       0.1155
     56  CG        19.8100  -17.5890  108.5670 C.2    80  ASN80       0.2627
     57  OD1       20.2470  -17.7890  109.6840 O.2    80  ASN80      -0.2716
     58  ND2       18.5760  -17.8970  108.2150 N.am   80  ASN80      -0.0877
     59  N         20.8470  -16.7690  112.4180 N.3    82  SER82      -0.1217
     60  CA        19.9860  -17.3280  113.4370 C.3    82  SER82       0.1889
     61  C         20.5890  -18.5180  114.1270 C.2    82  SER82       0.2288
     62  O         21.1900  -19.4100  113.4810 O.2    82  SER82      -0.2866
     63  CB        18.6100  -17.7440  112.8630 C.3    82  SER82       0.2089
     64  OG        17.8940  -16.5960  112.3640 O.3    82  SER82      -0.2183
     65  N         16.5720  -22.8080  116.5090 N.3    85  ASN85      -0.1240
     66  CA        15.5260  -22.2640  117.4250 C.3    85  ASN85       0.1653
     67  C         14.6660  -23.3660  118.0570 C.2    85  ASN85       0.2266
     68  O         13.8520  -23.0790  118.9610 O.2    85  ASN85      -0.2867
     69  CB        14.6330  -21.1760  116.7470 C.3    85  ASN85       0.1155
     70  CG        15.3810  -19.8310  116.4790 C.2    85  ASN85       0.2627
     71  OD1       16.2580  -19.3530  117.2640 O.2    85  ASN85      -0.2716
     72  ND2       15.0290  -19.2070  115.3580 N.am   85  ASN85      -0.0877
     73  N         11.5960  -15.2120  102.6640 N.3   128  VAL128     -0.1231
     74  CA        10.7450  -14.5220  103.6840 C.3   128  VAL128      0.1692
     75  C         10.6990  -13.0150  103.4150 C.2   128  VAL128      0.2591
     76  O          9.6120  -12.4570  103.3800 O.2   128  VAL128     -0.2718
     77  CB        11.1400  -14.8320  105.1530 C.3   128  VAL128      0.0266
     78  CG1       10.3480  -13.9620  106.1450 C.3   128  VAL128      0.0020
     79  CG2       10.8740  -16.3040  105.4790 C.3   128  VAL128      0.0020
     80  N         11.8700  -12.3860  103.1940 N.am  129  ARG129     -0.1980
     81  CA        11.9920  -10.9440  102.8210 C.3   129  ARG129      0.1597
     82  C         13.1910  -10.7060  101.8780 C.2   129  ARG129      0.2287
     83  O         14.1950  -11.4310  101.9450 O.2   129  ARG129     -0.2864
     84  CB        12.1500  -10.0450  104.0620 C.3   129  ARG129      0.0334
     85  CG        13.3570  -10.3680  104.9660 C.3   129  ARG129      0.0492
     86  CD        13.3110   -9.6000  106.3000 C.3   129  ARG129      0.2205
     87  NE        12.1760  -10.0060  107.1490 N.pl3 129  ARG129     -0.0865
     88  CZ        12.1960  -10.9680  108.0900 C.cat 129  ARG129      0.5346
     89  NH1       11.0850  -11.2300  108.7670 N.pl3 129  ARG129      0.1354
     90  NH2       13.3000  -11.6700  108.3790 N.pl3 129  ARG129      0.1354
@<TRIPOS>BOND
     1     4     3    2
     2     3     2    1
     3     2     1    1
     4     2     5    1
     5     5     6    1
     6     6     7    1
     7     7     8    1
     8     8     9    1
     9    82    83    2
    10    82    81    1
    11    73    74    1
    12    81    80    1
    13    81    84    1
    14    80    75   am
    15    76    75    2
    16    75    74    1
    17    36    34    1
    18    74    77    1
    19    84    85    1
    20    10    11    1
    21    13    12    2
    22    34    33    2
    23    34    35    1
    24    85    86    1
    25    16    15    1
    26    15    14    1
    27    15    17    1
    28    77    79    1
    29    77    78    1
    30    33    32    1
    31    14    11    1
    32    11    12    1
    33    12    18   am
    34    86    87    1
    35    23    25    1
    36    23    22    1
    37    31    32    1
    38    31    30    1
    39    18    19    1
    40    19    22    1
    41    19    20    1
    42    87    88    2
    43    55    52    1
    44    55    56    1
    45    22    24    1
    46    30    27    1
    47    26    20   am
    48    26    27    1
    49    52    51    1
    50    52    53    1
    51    88    90    1
    52    88    89    1
    53    20    21    2
    54    58    56   am
    55    27    28    1
    56    56    57    2
    57    49    47   ar
    58    49    50   ar
    59    47    44   ar
    60    53    54    2
    61    50    48   ar
    62    28    29    2
    63    44    42   ar
    64    44    46   ar
    65    39    38    1
    66    39    40    2
    67    41    42    1
    68    41    38    1
    69    48    46   ar
    70    42    43   ar
    71    38    37    1
    72    46    45   ar
    73    43    45   ar
    74    64    63    1
    75    59    60    1
    76    63    60    1
    77    60    61    1
    78    62    61    2
    79    72    70   am
    80    70    69    1
    81    70    71    2
    82    65    66    1
    83    69    66    1
    84    66    67    1
    85    67    68    2
