@<TRIPOS>MOLECULE
tmp/5mguA00.pdb
 113 107 0 0 0
SMALL
GASTEIGER

@<TRIPOS>ATOM
      1  N          5.9460   23.2430   17.4700 N.3   111  HIS111     -0.1241
      2  CA         4.9490   22.2610   17.0290 C.3   111  HIS111      0.1621
      3  C          4.5950   21.3640   18.1940 C.2   111  HIS111      0.2264
      4  O          5.3930   21.1750   19.1180 O.2   111  HIS111     -0.2867
      5  CB         5.4230   21.3920   15.8500 C.3   111  HIS111      0.0745
      6  CG         6.8130   20.8230   16.0010 C.ar  111  HIS111      0.0817
      7  ND1        7.4110   20.0770   15.0060 N.ar  111  HIS111     -0.2268
      8  CD2        7.7070   20.8730   17.0180 C.ar  111  HIS111      0.1154
      9  CE1        8.6210   19.7120   15.3940 C.ar  111  HIS111      0.1986
     10  NE2        8.8280   20.1820   16.6110 N.ar  111  HIS111     -0.2212
     11  N          4.5570   18.2420   17.9620 N.3   113  SER113     -0.1217
     12  CA         5.3980   17.0530   17.9120 C.3   113  SER113      0.1889
     13  C          6.4980   17.0810   18.9720 C.2   113  SER113      0.2288
     14  O          7.1480   16.0550   19.1890 O.2   113  SER113     -0.2866
     15  CB         6.0370   16.8910   16.5270 C.3   113  SER113      0.2089
     16  OG         5.0540   16.9660   15.4880 O.3   113  SER113     -0.2183
     17  N          5.9550   14.1900   21.2780 N.3   116  GLN116     -0.1245
     18  CA         5.8540   12.7930   20.8350 C.3   116  GLN116      0.1566
     19  C          6.7650   11.8690   21.6390 C.2   116  GLN116      0.2260
     20  O          6.3420   10.8040   22.1010 O.2   116  GLN116     -0.2867
     21  CB         6.2340   12.6530   19.3630 C.3   116  GLN116      0.0367
     22  CG         5.1670   12.9890   18.3510 C.3   116  GLN116      0.0905
     23  CD         5.6380   12.6620   16.9530 C.2   116  GLN116      0.2608
     24  OE1        6.4910   11.7850   16.7590 O.2   116  GLN116     -0.2717
     25  NE2        5.0700   13.3460   15.9610 N.am  116  GLN116     -0.0878
     26  N          5.7270   30.5020   16.5990 N.3   135  ARG135     -0.1245
     27  CA         6.6290   30.6220   15.4560 C.3   135  ARG135      0.1563
     28  C          6.7990   32.0880   15.0830 C.2   135  ARG135      0.2260
     29  O          5.8370   32.8610   15.1300 O.2   135  ARG135     -0.2867
     30  CB         6.0940   29.8410   14.2520 C.3   135  ARG135      0.0307
     31  CG         6.1390   28.3610   14.4550 C.3   135  ARG135      0.0489
     32  CD         5.6690   27.6230   13.2290 C.3   135  ARG135      0.2205
     33  NE         5.4120   26.2360   13.5570 N.pl3 135  ARG135     -0.0865
     34  CZ         5.0160   25.3310   12.6840 C.cat 135  ARG135      0.5346
     35  NH1        4.8430   25.6720   11.4080 N.pl3 135  ARG135      0.1354
     36  NH2        4.7940   24.0930   13.0900 N.pl3 135  ARG135      0.1354
     37  N         -2.1940   23.4940   17.2040 N.3   149  GLN149     -0.1245
     38  CA        -2.0800   22.2410   16.5000 C.3   149  GLN149      0.1566
     39  C         -2.7450   21.1210   17.2800 C.2   149  GLN149      0.2260
     40  O         -2.7850   21.1340   18.5130 O.2   149  GLN149     -0.2867
     41  CB        -0.6170   21.8860   16.2480 C.3   149  GLN149      0.0367
     42  CG         0.0470   22.7880   15.2230 C.3   149  GLN149      0.0905
     43  CD         1.4120   22.2850   14.8590 C.2   149  GLN149      0.2608
     44  OE1        2.1370   21.7750   15.7170 O.2   149  GLN149     -0.2717
     45  NE2        1.7770   22.4160   13.5840 N.am  149  GLN149     -0.0878
     46  N         -2.0960   17.0480   17.4370 N.3   151  GLU151     -0.1245
     47  CA        -1.2020   15.9520   17.0890 C.3   151  GLU151      0.1567
     48  C         -1.8720   14.6180   17.4180 C.2   151  GLU151      0.2260
     49  O         -2.5530   14.4960   18.4410 O.2   151  GLU151     -0.2867
     50  CB         0.1140   16.0670   17.8760 C.3   151  GLU151      0.0388
     51  CG         1.2610   15.2480   17.3220 C.3   151  GLU151      0.1160
     52  CD         2.2370   16.1020   16.5220 C.2   151  GLU151      0.3649
     53  OE1        1.9440   17.2990   16.3340 O.co2 151  GLU151     -0.2457
     54  OE2        3.2970   15.5800   16.0780 O.co2 151  GLU151     -0.2457
     55  N          9.6890   15.1180    6.1940 N.3   224  PHE224     -0.1241
     56  CA         9.8950   15.5070    7.5880 C.3   224  PHE224      0.1605
     57  C         11.0200   14.6330    8.1290 C.2   224  PHE224      0.2264
     58  O         11.1150   13.4640    7.7640 O.2   224  PHE224     -0.2867
     59  CB         8.6550   15.3000    8.4440 C.3   224  PHE224      0.0534
     60  CG         7.4580   16.0850    7.9770 C.ar  224  PHE224     -0.0203
     61  CD1        7.3970   17.4550    8.1830 C.ar  224  PHE224     -0.0042
     62  CD2        6.3900   15.4400    7.3690 C.ar  224  PHE224     -0.0042
     63  CE1        6.2800   18.1980    7.7720 C.ar  224  PHE224     -0.0003
     64  CE2        5.2870   16.1710    6.9530 C.ar  224  PHE224     -0.0003
     65  CZ         5.2430   17.5460    7.1490 C.ar  224  PHE224     -0.0000
     66  N         11.1340   13.2600   10.9040 N.3   226  PHE226     -0.1227
     67  CA        10.6350   12.3460   11.9190 C.3   226  PHE226      0.1736
     68  C          9.5410   11.4040   11.4120 C.2   226  PHE226      0.2596
     69  O          8.9460   10.6770   12.2140 O.2   226  PHE226     -0.2718
     70  CB        10.1310   13.1320   13.1400 C.3   226  PHE226      0.0547
     71  CG         9.3710   14.3990   12.8010 C.ar  226  PHE226     -0.0202
     72  CD1        8.0010   14.3810   12.6730 C.ar  226  PHE226     -0.0042
     73  CD2       10.0390   15.6250   12.6610 C.ar  226  PHE226     -0.0042
     74  CE1        7.3050   15.5560   12.3760 C.ar  226  PHE226     -0.0003
     75  CE2        9.3650   16.7900   12.3480 C.ar  226  PHE226     -0.0003
     76  CZ         7.9790   16.7640   12.2060 C.ar  226  PHE226     -0.0000
     77  N          9.2380   11.4310   10.1180 N.am  227  THR227     -0.1953
     78  CA         8.3970   10.4290    9.4800 C.3   227  THR227      0.1897
     79  C          8.9650   10.1000    8.1100 C.2   227  THR227      0.2313
     80  O          9.6500   10.9240    7.4950 O.2   227  THR227     -0.2863
     81  CB         6.9650   10.9090    9.2690 C.3   227  THR227      0.1794
     82  OG1        7.0070   12.1850    8.6370 O.3   227  THR227     -0.2208
     83  CG2        6.2030   10.9870   10.6330 C.3   227  THR227      0.0378
     84  N          0.3650   17.7520    8.2090 N.3   246  GLY246     -0.1210
     85  CA         1.4410   16.8540    7.8170 C.3   246  GLY246      0.1956
     86  C          1.2750   15.5400    8.5590 C.2   246  GLY246      0.2612
     87  O          0.6570   15.4930    9.6290 O.2   246  GLY246     -0.2717
     88  N          1.7790   14.4590    7.9730 N.am  247  CYS247     -0.1970
     89  CA         1.6240   13.1410    8.5730 C.3   247  CYS247      0.1712
     90  C          2.6100   12.1890    7.9420 C.2   247  CYS247      0.2296
     91  O          3.2680   12.5210    6.9570 O.2   247  CYS247     -0.2864
     92  CB         0.2100   12.5810    8.3900 C.3   247  CYS247      0.0983
     93  SG        -0.2010   12.2950    6.6630 S.3   247  CYS247     -0.0798
     94  N          1.7700    9.0870   12.5910 N.3   267  ALA267     -0.1231
     95  CA         1.6240   10.3480   13.3030 C.3   267  ALA267      0.1694
     96  C          1.0980   11.3950   12.3410 C.2   267  ALA267      0.2592
     97  O          1.4080   11.3680   11.1450 O.2   267  ALA267     -0.2718
     98  CB         2.9540   10.8240   13.9160 C.3   267  ALA267      0.0304
     99  N          0.2980   12.3240   12.8610 N.am  268  PHE268     -0.1962
    100  CA        -0.0520   13.4870   12.0690 C.3   268  PHE268      0.1771
    101  C         -0.1460   14.7120   12.9540 C.2   268  PHE268      0.2620
    102  O         -0.2940   14.6300   14.1760 O.2   268  PHE268     -0.2715
    103  CB        -1.3530   13.2840   11.2560 C.3   268  PHE268      0.0574
    104  CG        -2.6260   13.2490   12.0780 C.ar  268  PHE268     -0.0200
    105  CD1       -3.1740   14.4270   12.6160 C.ar  268  PHE268     -0.0042
    106  CD2       -3.3270   12.0610   12.2120 C.ar  268  PHE268     -0.0042
    107  CE1       -4.3900   14.3910   13.3270 C.ar  268  PHE268     -0.0003
    108  CE2       -4.5260   12.0230   12.9290 C.ar  268  PHE268     -0.0003
    109  CZ        -5.0390   13.1980   13.4820 C.ar  268  PHE268     -0.0000
    110  N         -0.0280   15.8590   12.3050 N.am  269  GLY269     -0.1954
    111  CA        -0.1110   17.1320   12.9740 C.3   269  GLY269      0.1869
    112  C         -0.9720   18.0820   12.1680 C.2   269  GLY269      0.2309
    113  O         -0.6200   18.4620   11.0460 O.2   269  GLY269     -0.2863
@<TRIPOS>BOND
     1    55    56    1
     2    93    92    1
     3    64    65   ar
     4    64    62   ar
     5    91    90    2
     6    65    63   ar
     7    62    60   ar
     8    80    79    2
     9    56    57    1
    10    56    59    1
    11    58    57    2
    12    63    61   ar
    13    85    84    1
    14    85    86    1
    15    90    89    1
    16    88    86   am
    17    88    89    1
    18    60    61   ar
    19    60    59    1
    20    79    78    1
    21    92    89    1
    22    86    87    2
    23    82    81    1
    24    81    78    1
    25    81    83    1
    26    78    77    1
    27    77    68   am
    28    66    67    1
    29   113   112    2
    30    97    96    2
    31   103   100    1
    32   103   104    1
    33    35    34    1
    34    68    67    1
    35    68    69    2
    36    67    70    1
    37   100    99    1
    38   100   101    1
    39   104   106   ar
    40   104   105   ar
    41   112   111    1
    42    76    75   ar
    43    76    74   ar
    44   106   108   ar
    45   110   101   am
    46   110   111    1
    47    96    99   am
    48    96    95    1
    49    75    73   ar
    50    74    72   ar
    51    94    95    1
    52   105   107   ar
    53    73    71   ar
    54    72    71   ar
    55    34    36    1
    56    34    33    2
    57    71    70    1
    58   108   109   ar
    59   101   102    2
    60    32    33    1
    61    32    31    1
    62    95    98    1
    63   107   109   ar
    64    45    43   am
    65    30    31    1
    66    30    27    1
    67    43    42    1
    68    43    44    2
    69     7     9   ar
    70     7     6   ar
    71    28    29    2
    72    28    27    1
    73    42    41    1
    74     9    10   ar
    75    27    26    1
    76    16    15    1
    77     5     6    1
    78     5     2    1
    79    25    23   am
    80     6     8   ar
    81    54    52   ar
    82    41    38    1
    83    53    52   ar
    84    38    37    1
    85    38    39    1
    86    52    51    1
    87    15    12    1
    88    10     8   ar
    89    24    23    2
    90    23    22    1
    91     2     1    1
    92     2     3    1
    93    47    48    1
    94    47    46    1
    95    47    50    1
    96    39    40    2
    97    51    50    1
    98    48    49    2
    99    12    11    1
   100    12    13    1
   101     3     4    2
   102    22    21    1
   103    13    14    2
   104    21    18    1
   105    18    17    1
   106    18    19    1
   107    19    20    2
