@<TRIPOS>MOLECULE
tmp/5mgxE00.pdb
 187 176 0 0 0
SMALL
GASTEIGER

@<TRIPOS>ATOM
      1  N         -5.9650  -19.3050   -6.7910 N.3   134  ARG134     -0.1245
      2  CA        -5.6050  -17.9220   -7.1430 C.3   134  ARG134      0.1563
      3  C         -6.0020  -17.6260   -8.5760 C.2   134  ARG134      0.2260
      4  O         -6.5320  -16.5520   -8.8570 O.2   134  ARG134     -0.2867
      5  CB        -4.0790  -17.6990   -6.9750 C.3   134  ARG134      0.0307
      6  CG        -3.6460  -16.2210   -7.0160 C.3   134  ARG134      0.0489
      7  CD        -2.1410  -16.0020   -7.2090 C.3   134  ARG134      0.2205
      8  NE        -1.5420  -16.8780   -8.2190 N.pl3 134  ARG134     -0.0865
      9  CZ        -1.5410  -16.6420   -9.5290 C.cat 134  ARG134      0.5346
     10  NH1       -2.1090  -15.5430  -10.0160 N.pl3 134  ARG134      0.1354
     11  NH2       -0.9790  -17.5040  -10.3620 N.pl3 134  ARG134      0.1354
     12  N         -8.8920  -14.9820   -9.7350 N.3   138  ASN138     -0.1240
     13  CA        -8.5450  -13.9700  -10.7350 C.3   138  ASN138      0.1653
     14  C         -9.5860  -13.9390  -11.8440 C.2   138  ASN138      0.2266
     15  O        -10.0280  -12.8540  -12.2040 O.2   138  ASN138     -0.2867
     16  CB        -7.1430  -14.2010  -11.3180 C.3   138  ASN138      0.1155
     17  CG        -6.0050  -13.8100  -10.4070 C.2   138  ASN138      0.2627
     18  OD1       -6.1930  -13.4590   -9.2390 O.2   138  ASN138     -0.2716
     19  ND2       -4.7900  -13.8870  -10.9240 N.am  138  ASN138     -0.0877
     20  N        -12.7550  -12.3320  -10.5570 N.3   141  TYR141     -0.1227
     21  CA       -12.5150  -10.9080  -10.3450 C.3   141  TYR141      0.1736
     22  C        -12.6310  -10.1280  -11.6540 C.2   141  TYR141      0.2595
     23  O        -13.2660   -9.0620  -11.6540 O.2   141  TYR141     -0.2718
     24  CB       -11.1440  -10.7010   -9.7160 C.3   141  TYR141      0.0548
     25  CG       -10.8490   -9.2650   -9.3530 C.ar  141  TYR141     -0.0200
     26  CD1      -10.2720   -8.3930  -10.2780 C.ar  141  TYR141     -0.0009
     27  CD2      -11.1210   -8.7780   -8.0780 C.ar  141  TYR141     -0.0009
     28  CE1       -9.9910   -7.0710   -9.9450 C.ar  141  TYR141      0.0417
     29  CE2      -10.8100   -7.4620   -7.7260 C.ar  141  TYR141      0.0417
     30  CZ       -10.2680   -6.6050   -8.6730 C.ar  141  TYR141      0.1957
     31  OH        -9.9820   -5.2940   -8.3620 O.3   141  TYR141     -0.2866
     32  N        -12.0160  -10.6440  -12.7690 N.am  142  GLN142     -0.1979
     33  CA       -12.0570   -9.9900  -14.0870 C.3   142  GLN142      0.1601
     34  C        -13.4960   -9.7190  -14.5820 C.2   142  GLN142      0.2287
     35  O        -13.7400   -8.6970  -15.2180 O.2   142  GLN142     -0.2864
     36  CB       -11.3150  -10.8060  -15.1720 C.3   142  GLN142      0.0394
     37  CG        -9.9330  -11.4010  -14.8230 C.3   142  GLN142      0.0908
     38  CD        -8.8490  -10.4580  -14.3340 C.2   142  GLN142      0.2608
     39  OE1       -8.0700  -10.8100  -13.4430 O.2   142  GLN142     -0.2717
     40  NE2       -8.7420   -9.2600  -14.9100 N.am  142  GLN142     -0.0878
     41  N         -9.8960  -16.8200   -3.3160 N.3   153  TYR153     -0.1241
     42  CA        -8.6720  -16.3060   -2.6940 C.3   153  TYR153      0.1605
     43  C         -8.5530  -16.8120   -1.2890 C.2   153  TYR153      0.2264
     44  O         -7.4380  -17.1470   -0.8770 O.2   153  TYR153     -0.2867
     45  CB        -8.5960  -14.7550   -2.6770 C.3   153  TYR153      0.0534
     46  CG        -8.5210  -14.1400   -4.0560 C.ar  153  TYR153     -0.0201
     47  CD1       -7.6280  -14.6210   -5.0080 C.ar  153  TYR153     -0.0009
     48  CD2       -9.3410  -13.0770   -4.4080 C.ar  153  TYR153     -0.0009
     49  CE1       -7.5740  -14.0780   -6.2870 C.ar  153  TYR153      0.0417
     50  CE2       -9.2630  -12.4960   -5.6680 C.ar  153  TYR153      0.0417
     51  CZ        -8.3640  -12.9880   -6.5990 C.ar  153  TYR153      0.1957
     52  OH        -8.3000  -12.4270   -7.8440 O.3   153  TYR153     -0.2866
     53  N          0.3300  -12.2400   -2.3450 N.3   182  LYS182     -0.1245
     54  CA        -0.4120  -12.0100   -3.5990 C.3   182  LYS182      0.1561
     55  C         -1.9130  -12.3200   -3.4220 C.2   182  LYS182      0.2260
     56  O         -2.7490  -11.5410   -3.8920 O.2   182  LYS182     -0.2867
     57  CB         0.1490  -12.8540   -4.7490 C.3   182  LYS182      0.0271
     58  CG         1.4770  -12.3320   -5.2770 C.3   182  LYS182      0.0035
     59  CD         2.0400  -13.2020   -6.3570 C.3   182  LYS182      0.0206
     60  CE         3.2210  -12.5380   -7.0250 C.3   182  LYS182      0.1093
     61  NZ         3.5180  -13.1860   -8.3120 N.3   182  LYS182     -0.1314
     62  N         -3.5890   -9.6320   -0.9610 N.3   185  ASN185     -0.1225
     63  CA        -3.7110   -8.4010   -1.7250 C.3   185  ASN185      0.1785
     64  C         -4.9340   -8.5080   -2.6550 C.2   185  ASN185      0.2597
     65  O         -5.7390   -7.5840   -2.7330 O.2   185  ASN185     -0.2718
     66  CB        -2.4190   -8.1560   -2.5210 C.3   185  ASN185      0.1169
     67  CG        -2.0040   -6.7070   -2.6110 C.2   185  ASN185      0.2627
     68  OD1       -2.7910   -5.7810   -2.3400 O.2   185  ASN185     -0.2716
     69  ND2       -0.7320   -6.4840   -2.9470 N.am  185  ASN185     -0.0877
     70  N         -5.0740   -9.6510   -3.3320 N.am  186  ASN186     -0.1974
     71  CA        -6.1930   -9.9850   -4.2350 C.3   186  ASN186      0.1688
     72  C         -7.5170  -10.0610   -3.4660 C.2   186  ASN186      0.2292
     73  O         -8.5540   -9.6340   -3.9710 O.2   186  ASN186     -0.2864
     74  CB        -5.9030  -11.3070   -4.9160 C.3   186  ASN186      0.1181
     75  CG        -4.9350  -11.1930   -6.0540 C.2   186  ASN186      0.2629
     76  OD1       -4.3180  -10.1500   -6.2610 O.2   186  ASN186     -0.2716
     77  ND2       -4.7650  -12.2800   -6.8040 N.am  186  ASN186     -0.0877
     78  N         -8.4310   -6.3960   -2.6740 N.3   189  ALA189     -0.1245
     79  CA        -9.0280   -5.8140   -3.8690 C.3   189  ALA189      0.1562
     80  C        -10.5000   -6.1770   -3.9600 C.2   189  ALA189      0.2260
     81  O        -11.3150   -5.2990   -4.2190 O.2   189  ALA189     -0.2867
     82  CB        -8.2950   -6.3130   -5.1140 C.3   189  ALA189      0.0290
     83  N        -12.7340   -4.7160   -1.0450 N.3   192  LEU192     -0.1231
     84  CA       -12.8670   -3.2680   -1.2730 C.3   192  LEU192      0.1693
     85  C        -14.0850   -3.0210   -2.1570 C.2   192  LEU192      0.2591
     86  O        -14.9190   -2.1860   -1.8300 O.2   192  LEU192     -0.2718
     87  CB       -11.5780   -2.6930   -1.9160 C.3   192  LEU192      0.0284
     88  CG       -11.6630   -1.3650   -2.7010 C.3   192  LEU192      0.0019
     89  CD1      -11.9170   -0.1730   -1.7790 C.3   192  LEU192      0.0001
     90  CD2      -10.3770   -1.0980   -3.4710 C.3   192  LEU192      0.0001
     91  N        -14.2170   -3.8100   -3.2270 N.am  193  LYS193     -0.1980
     92  CA       -15.3120   -3.7570   -4.1930 C.3   193  LYS193      0.1596
     93  C        -16.6690   -4.1340   -3.5840 C.2   193  LYS193      0.2287
     94  O        -17.7010   -3.7180   -4.1060 O.2   193  LYS193     -0.2864
     95  CB       -15.0090   -4.6790   -5.3760 C.3   193  LYS193      0.0298
     96  CG       -13.9280   -4.1260   -6.3060 C.3   193  LYS193      0.0038
     97  CD       -14.4890   -3.0440   -7.2340 C.3   193  LYS193      0.0206
     98  CE       -13.4150   -2.3810   -8.0720 C.3   193  LYS193      0.1093
     99  NZ       -12.4340   -1.6410   -7.2340 N.3   193  LYS193     -0.1314
    100  N          4.5230   -2.1520   -0.7670 N.3   214  ASN214     -0.1225
    101  CA         3.6220   -2.7290   -1.7690 C.3   214  ASN214      0.1785
    102  C          2.6480   -1.6220   -2.1310 C.2   214  ASN214      0.2597
    103  O          1.8170   -1.2500   -1.3030 O.2   214  ASN214     -0.2718
    104  CB         2.8980   -3.9810   -1.2230 C.3   214  ASN214      0.1169
    105  CG         2.0960   -4.7190   -2.2530 C.2   214  ASN214      0.2627
    106  OD1        1.1770   -4.1880   -2.8720 O.2   214  ASN214     -0.2716
    107  ND2        2.4000   -5.9740   -2.4320 N.am  214  ASN214     -0.0877
    108  N          2.7890   -1.0680   -3.3580 N.am  215  ILE215     -0.1966
    109  CA         2.0170    0.0740   -3.8240 C.3   215  ILE215      0.1727
    110  C          0.5160   -0.2500   -3.8800 C.2   215  ILE215      0.2616
    111  O         -0.2820    0.6070   -3.5110 O.2   215  ILE215     -0.2715
    112  CB         2.5470    0.6340   -5.1570 C.3   215  ILE215      0.0290
    113  CG1        1.9400    2.0490   -5.4360 C.3   215  ILE215      0.0022
    114  CG2        2.3760   -0.3610   -6.3190 C.3   215  ILE215      0.0023
    115  CD1        2.4990    2.7630   -6.6310 C.3   215  ILE215      0.0001
    116  N          0.1440   -1.4870   -4.2960 N.am  216  LYS216     -0.1977
    117  CA        -1.2490   -1.9080   -4.4030 C.3   216  LYS216      0.1596
    118  C         -1.8990   -1.9440   -3.0480 C.2   216  LYS216      0.2287
    119  O         -2.9590   -1.3620   -2.8970 O.2   216  LYS216     -0.2864
    120  CB        -1.3670   -3.2380   -5.1170 C.3   216  LYS216      0.0298
    121  CG        -1.2880   -3.0940   -6.6390 C.3   216  LYS216      0.0038
    122  CD        -1.4360   -4.4470   -7.3050 C.3   216  LYS216      0.0206
    123  CE        -1.4060   -4.3220   -8.8000 C.3   216  LYS216      0.1093
    124  NZ        -1.7590   -5.6030   -9.4480 N.3   216  LYS216     -0.1314
    125  N         -2.2570    1.7670   -1.7340 N.3   219  PHE219     -0.1227
    126  CA        -3.3630    2.4390   -2.4230 C.3   219  PHE219      0.1736
    127  C         -4.7290    1.9110   -1.9480 C.2   219  PHE219      0.2595
    128  O         -5.6400    2.7100   -1.7070 O.2   219  PHE219     -0.2718
    129  CB        -3.2350    2.2980   -3.9410 C.3   219  PHE219      0.0547
    130  CG        -4.4100    2.8590   -4.7130 C.ar  219  PHE219     -0.0202
    131  CD1       -4.5030    4.2250   -4.9860 C.ar  219  PHE219     -0.0042
    132  CD2       -5.4290    2.0260   -5.1580 C.ar  219  PHE219     -0.0042
    133  CE1       -5.6020    4.7430   -5.6820 C.ar  219  PHE219     -0.0003
    134  CE2       -6.5160    2.5470   -5.8720 C.ar  219  PHE219     -0.0003
    135  CZ        -6.5900    3.8990   -6.1270 C.ar  219  PHE219     -0.0000
    136  N         -4.8690    0.5740   -1.8050 N.am  220  ARG220     -0.1980
    137  CA        -6.1290   -0.0350   -1.3800 C.3   220  ARG220      0.1597
    138  C         -6.4370    0.3090    0.0880 C.2   220  ARG220      0.2287
    139  O         -7.5990    0.5400    0.4210 O.2   220  ARG220     -0.2864
    140  CB        -6.0900   -1.5470   -1.6140 C.3   220  ARG220      0.0334
    141  CG        -6.2520   -1.9000   -3.0810 C.3   220  ARG220      0.0492
    142  CD        -5.8120   -3.3070   -3.3970 C.3   220  ARG220      0.2205
    143  NE        -5.8500   -3.5480   -4.8420 N.pl3 220  ARG220     -0.0865
    144  CZ        -5.2470   -4.5690   -5.4310 C.cat 220  ARG220      0.5346
    145  NH1       -4.5960   -5.4670   -4.7060 N.pl3 220  ARG220      0.1354
    146  NH2       -5.3160   -4.7170   -6.7500 N.pl3 220  ARG220      0.1354
    147  N         -7.5550    4.0540   -0.0880 N.3   223  LYS223     -0.1245
    148  CA        -8.8920    4.1180   -0.7060 C.3   223  LYS223      0.1561
    149  C         -9.9860    3.6650    0.2820 C.2   223  LYS223      0.2260
    150  O        -11.0540    4.2660    0.3100 O.2   223  LYS223     -0.2867
    151  CB        -8.9310    3.2770   -1.9840 C.3   223  LYS223      0.0271
    152  CG       -10.1390    3.5490   -2.8650 C.3   223  LYS223      0.0035
    153  CD        -9.9860    2.8480   -4.1910 C.3   223  LYS223      0.0206
    154  CE       -11.1840    3.0510   -5.0740 C.3   223  LYS223      0.1093
    155  NZ       -10.9230    2.6140   -6.4750 N.3   223  LYS223     -0.1314
    156  N          5.4700    5.9330   -7.0190 N.3   245  GLU245     -0.1245
    157  CA         5.0820    6.1670   -8.4200 C.3   245  GLU245      0.1567
    158  C          4.4440    7.5670   -8.5570 C.2   245  GLU245      0.2260
    159  O          3.2060    7.7070   -8.5060 O.2   245  GLU245     -0.2867
    160  CB         4.1270    5.0790   -8.9220 C.3   245  GLU245      0.0388
    161  CG         4.8480    3.9290   -9.5850 C.3   245  GLU245      0.1160
    162  CD         3.9570    2.7510   -9.9130 C.2   245  GLU245      0.3649
    163  OE1        4.3660    1.6150   -9.5900 O.co2 245  GLU245     -0.2457
    164  OE2        2.8440    2.9570  -10.4530 O.co2 245  GLU245     -0.2457
    165  N          1.7630    8.2380  -11.5410 N.3   248  ASN248     -0.1240
    166  CA         0.5400    7.4240  -11.5110 C.3   248  ASN248      0.1653
    167  C         -0.7330    8.2760  -11.3510 C.2   248  ASN248      0.2266
    168  O         -1.0190    8.8100  -10.2690 O.2   248  ASN248     -0.2867
    169  CB         0.6200    6.3820  -10.3950 C.3   248  ASN248      0.1155
    170  CG        -0.4750    5.3440  -10.4520 C.2   248  ASN248      0.2627
    171  OD1       -1.6550    5.6180  -10.2020 O.2   248  ASN248     -0.2716
    172  ND2       -0.0980    4.1240  -10.7400 N.am  248  ASN248     -0.0877
    173  N         -3.9490    7.3350  -11.3450 N.3   250  THR250     -0.1203
    174  CA        -4.9740    6.7920  -10.4480 C.3   250  THR250      0.1994
    175  C         -4.7600    7.2730   -8.9940 C.2   250  THR250      0.2617
    176  O         -5.7300    7.6430   -8.3480 O.2   250  THR250     -0.2717
    177  CB        -5.0060    5.2540  -10.5600 C.3   250  THR250      0.1784
    178  OG1       -5.2070    4.9070  -11.9300 O.3   250  THR250     -0.2211
    179  CG2       -6.1120    4.6230   -9.7160 C.3   250  THR250      0.0376
    180  N         -3.5140    7.2950   -8.5020 N.am  251  ILE251     -0.1979
    181  CA        -3.1930    7.7510   -7.1410 C.3   251  ILE251      0.1595
    182  C         -3.4580    9.2740   -7.0120 C.2   251  ILE251      0.2287
    183  O         -3.9170    9.7200   -5.9550 O.2   251  ILE251     -0.2864
    184  CB        -1.7420    7.3780   -6.6970 C.3   251  ILE251      0.0276
    185  CG1       -1.4480    5.8840   -6.9140 C.3   251  ILE251      0.0022
    186  CG2       -1.5000    7.7520   -5.2190 C.3   251  ILE251      0.0022
    187  CD1        0.0340    5.5190   -6.8430 C.3   251  ILE251      0.0001
@<TRIPOS>BOND
     1    35    34    2
     2    36    37    1
     3    36    33    1
     4    40    38   am
     5    37    38    1
     6    34    33    1
     7    38    39    2
     8    33    32    1
     9    32    22   am
    10    15    14    2
    11   178   177    1
    12    14    13    1
    13    23    22    2
    14    22    21    1
    15   165   166    1
    16   166   167    1
    17   166   169    1
    18   167   168    2
    19   173   174    1
    20    16    13    1
    21    16    17    1
    22    19    17   am
    23   172   170   am
    24    13    12    1
    25   177   174    1
    26   177   179    1
    27    20    21    1
    28   164   162   ar
    29   170   169    1
    30   170   171    2
    31   174   175    1
    32    17    18    2
    33    11     9    1
    34    21    24    1
    35    26    28   ar
    36    26    25   ar
    37    10     9    1
    38    28    30   ar
    39   162   163   ar
    40   162   161    1
    41    24    25    1
    42   161   160    1
    43     9     8    2
    44   124   123    1
    45    25    27   ar
    46   175   180   am
    47   175   176    2
    48   160   157    1
    49     4     3    2
    50   123   122    1
    51    30    31    1
    52    30    29   ar
    53     3     2    1
    54   158   159    2
    55   158   157    1
    56   180   181    1
    57   157   156    1
    58    61    60    1
    59     8     7    1
    60    27    29   ar
    61    98    99    1
    62    98    97    1
    63    52    51    1
    64   122   121    1
    65    97    96    1
    66     7     6    1
    67     2     5    1
    68     2     1    1
    69   181   182    1
    70   181   184    1
    71    60    59    1
    72     6     5    1
    73   182   183    2
    74   185   187    1
    75   185   184    1
    76    77    75   am
    77   146   144    1
    78   184   186    1
    79   121   120    1
    80   115   113    1
    81    51    49   ar
    82    51    50   ar
    83   155   154    1
    84    59    58    1
    85   114   112    1
    86    96    95    1
    87    49    47   ar
    88    76    75    2
    89   135   134   ar
    90   135   133   ar
    91    75    74    1
    92   134   132   ar
    93   133   131   ar
    94    50    48   ar
    95   113   112    1
    96   144   143    2
    97   144   145    1
    98    95    92    1
    99    58    57    1
   100   132   130   ar
   101   112   109    1
   102   120   117    1
   103    82    79    1
   104   154   153    1
   105    47    46   ar
   106   131   130   ar
   107    74    71    1
   108   143   142    1
   109    57    54    1
   110   130   129    1
   111    48    46   ar
   112   117   116    1
   113   117   118    1
   114   116   110   am
   115    71    72    1
   116    71    70    1
   117    81    80    2
   118    92    93    1
   119    92    91    1
   120   153   152    1
   121    94    93    2
   122    46    45    1
   123    73    72    2
   124    80    79    1
   125   129   126    1
   126    56    55    2
   127   110   109    1
   128   110   111    2
   129    79    78    1
   130   109   108    1
   131    54    55    1
   132    54    53    1
   133    90    88    1
   134   142   141    1
   135   108   102   am
   136    70    64   am
   137    41    42    1
   138    91    85   am
   139   141   140    1
   140   118   119    2
   141    69    67   am
   142   106   105    2
   143   152   151    1
   144    65    64    2
   145    88    87    1
   146    88    89    1
   147    42    45    1
   148    42    43    1
   149    64    63    1
   150    67    66    1
   151    67    68    2
   152    66    63    1
   153   107   105   am
   154   126   127    1
   155   126   125    1
   156   105   104    1
   157    85    86    2
   158    85    84    1
   159   102   101    1
   160   102   103    2
   161   151   148    1
   162   127   136   am
   163   127   128    2
   164    87    84    1
   165   136   137    1
   166   101   104    1
   167   101   100    1
   168    63    62    1
   169   140   137    1
   170   137   138    1
   171    43    44    2
   172    84    83    1
   173   148   147    1
   174   148   149    1
   175   138   139    2
   176   149   150    2
