@<TRIPOS>MOLECULE
tmp/5mgzA00.pdb
 198 189 0 0 0
SMALL
GASTEIGER

@<TRIPOS>ATOM
      1  N         17.3000   15.1950   43.3520 N.3     4  GLU4       -0.1231
      2  CA        17.1880   13.7550   43.5800 C.3     4  GLU4        0.1699
      3  C         18.5110   13.1250   44.0150 C.2     4  GLU4        0.2592
      4  O         18.6230   12.6110   45.1270 O.2     4  GLU4       -0.2718
      5  CB        16.6690   13.0540   42.3230 C.3     4  GLU4        0.0402
      6  CG        15.2120   13.3500   42.0000 C.3     4  GLU4        0.1161
      7  CD        14.6640   12.4700   40.8900 C.2     4  GLU4        0.3649
      8  OE1       15.4170   11.6250   40.3660 O.co2   4  GLU4       -0.2457
      9  OE2       13.4750   12.6160   40.5410 O.co2   4  GLU4       -0.2457
     10  N         19.5080   13.1840   43.1380 N.am    5  ALA5       -0.1966
     11  CA        20.7930   12.5290   43.3810 C.3     5  ALA5        0.1728
     12  C         21.5810   13.2050   44.5040 C.2     5  ALA5        0.2616
     13  O         21.5190   14.4230   44.6690 O.2     5  ALA5       -0.2715
     14  CB        21.6210   12.5090   42.1040 C.3     5  ALA5        0.0334
     15  N         22.3070   12.3990   45.2740 N.am    6  ILE6       -0.1977
     16  CA        23.2750   12.9030   46.2470 C.3     6  ILE6        0.1596
     17  C         24.6590   12.7240   45.6320 C.2     6  ILE6        0.2287
     18  O         25.0560   11.6080   45.2980 O.2     6  ILE6       -0.2864
     19  CB        23.1980   12.1680   47.6040 C.3     6  ILE6        0.0276
     20  CG1       21.7950   12.3200   48.2090 C.3     6  ILE6        0.0022
     21  CG2       24.2540   12.7180   48.5610 C.3     6  ILE6        0.0022
     22  CD1       21.5930   11.6070   49.5340 C.3     6  ILE6        0.0001
     23  N         28.0460   11.1410   53.3430 N.3    14  PHE14      -0.1241
     24  CA        27.0370   10.0990   53.5460 C.3    14  PHE14       0.1605
     25  C         27.6850    8.7280   53.7460 C.2    14  PHE14       0.2264
     26  O         27.3000    7.9800   54.6440 O.2    14  PHE14      -0.2867
     27  CB        26.0590   10.0390   52.3650 C.3    14  PHE14       0.0534
     28  CG        24.9560    9.0290   52.5460 C.ar   14  PHE14      -0.0203
     29  CD1       25.1410    7.7020   52.1740 C.ar   14  PHE14      -0.0042
     30  CD2       23.7370    9.4010   53.0980 C.ar   14  PHE14      -0.0042
     31  CE1       24.1320    6.7680   52.3480 C.ar   14  PHE14      -0.0003
     32  CE2       22.7240    8.4710   53.2730 C.ar   14  PHE14      -0.0003
     33  CZ        22.9220    7.1530   52.8960 C.ar   14  PHE14      -0.0000
     34  N         20.9640   -0.1280   59.5270 N.3    25  TYR25      -0.1241
     35  CA        20.3440   -0.9630   58.4860 C.3    25  TYR25       0.1605
     36  C         19.5880   -2.1890   59.0260 C.2    25  TYR25       0.2264
     37  O         18.9370   -2.8960   58.2570 O.2    25  TYR25      -0.2867
     38  CB        21.4110   -1.3990   57.4750 C.3    25  TYR25       0.0534
     39  CG        21.9730   -0.2370   56.6850 C.ar   25  TYR25      -0.0201
     40  CD1       23.0140    0.5370   57.1900 C.ar   25  TYR25      -0.0009
     41  CD2       21.4450    0.1050   55.4430 C.ar   25  TYR25      -0.0009
     42  CE1       23.5220    1.6110   56.4750 C.ar   25  TYR25       0.0417
     43  CE2       21.9460    1.1750   54.7200 C.ar   25  TYR25       0.0417
     44  CZ        22.9840    1.9250   55.2400 C.ar   25  TYR25       0.1957
     45  OH        23.4840    2.9900   54.5260 O.3    25  TYR25      -0.2866
     46  N         18.3570   -3.5140   44.2460 N.3    45  ASP45      -0.1239
     47  CA        18.2850   -2.4010   45.1920 C.3    45  ASP45       0.1674
     48  C         18.2840   -1.0640   44.4510 C.2    45  ASP45       0.2266
     49  O         19.3250   -0.5980   43.9850 O.2    45  ASP45      -0.2867
     50  CB        19.4530   -2.4510   46.1790 C.3    45  ASP45       0.1410
     51  CG        19.3520   -1.3850   47.2670 C.2    45  ASP45       0.3668
     52  OD1       18.2590   -0.8110   47.4500 O.co2  45  ASP45      -0.2456
     53  OD2       20.3650   -1.1240   47.9460 O.co2  45  ASP45      -0.2456
     54  N         18.1860    2.8930   44.1610 N.3    47  CYS47      -0.1221
     55  CA        18.7370    4.0050   44.9450 C.3    47  CYS47       0.1808
     56  C         19.6920    3.4880   46.0270 C.2    47  CYS47       0.2601
     57  O         19.5840    3.8470   47.2020 O.2    47  CYS47      -0.2717
     58  CB        17.6140    4.8420   45.5620 C.3    47  CYS47       0.0970
     59  SG        16.2330    5.2030   44.4520 S.3    47  CYS47      -0.0800
     60  N         20.6450    2.6610   45.6020 N.am   48  CYS48      -0.1956
     61  CA        21.5080    1.9010   46.5130 C.3    48  CYS48       0.1843
     62  C         22.5530    2.7130   47.2830 C.2    48  CYS48       0.2626
     63  O         23.1760    2.1910   48.2090 O.2    48  CYS48      -0.2714
     64  CB        22.2250    0.7970   45.7350 C.3    48  CYS48       0.0997
     65  SG        23.4060    1.4050   44.5070 S.3    48  CYS48      -0.0797
     66  N         22.7600    3.9690   46.8980 N.am   49  GLY49      -0.1940
     67  CA        23.7380    4.8230   47.5720 C.3    49  GLY49       0.2014
     68  C         25.1510    4.2720   47.4670 C.2    49  GLY49       0.2639
     69  O         25.5570    3.7930   46.4070 O.2    49  GLY49      -0.2714
     70  N         25.8850    4.3130   48.5780 N.am   50  SER50      -0.1949
     71  CA        27.2960    3.8960   48.6060 C.3    50  SER50       0.1924
     72  C         27.5100    2.4090   48.9460 C.2    50  SER50       0.2314
     73  O         28.6180    1.9990   49.2970 O.2    50  SER50      -0.2863
     74  CB        28.0970    4.7930   49.5630 C.3    50  SER50       0.2116
     75  OG        27.4490    4.9370   50.8140 O.3    50  SER50      -0.2180
     76  N         26.2760    0.2090   51.2880 N.3    52  GLU52      -0.1231
     77  CA        26.2870   -0.3480   52.6470 C.3    52  GLU52       0.1699
     78  C         25.3860   -1.5720   52.7680 C.2    52  GLU52       0.2592
     79  O         25.8020   -2.6050   53.2940 O.2    52  GLU52      -0.2718
     80  CB        25.8730    0.7010   53.6860 C.3    52  GLU52       0.0402
     81  CG        27.0180    1.5690   54.1940 C.3    52  GLU52       0.1161
     82  CD        27.3850    2.7080   53.2590 C.2    52  GLU52       0.3649
     83  OE1       26.7870    2.8210   52.1690 O.co2  52  GLU52      -0.2457
     84  OE2       28.2810    3.4990   53.6200 O.co2  52  GLU52      -0.2457
     85  N         24.1560   -1.4530   52.2790 N.am   53  LEU53      -0.1980
     86  CA        23.2050   -2.5620   52.3350 C.3    53  LEU53       0.1596
     87  C         23.6990   -3.7800   51.5540 C.2    53  LEU53       0.2287
     88  O         23.5100   -4.9160   51.9880 O.2    53  LEU53      -0.2864
     89  CB        21.8330   -2.1350   51.8050 C.3    53  LEU53       0.0297
     90  CG        20.7380   -3.2090   51.8710 C.3    53  LEU53       0.0022
     91  CD1       20.4600   -3.6420   53.3050 C.3    53  LEU53       0.0001
     92  CD2       19.4660   -2.7080   51.2070 C.3    53  LEU53       0.0001
     93  N         21.4510   -0.0030   42.1430 N.3    69  VAL69      -0.1231
     94  CA        21.2230    0.9870   41.0890 C.3    69  VAL69       0.1692
     95  C         21.0780    2.3700   41.7210 C.2    69  VAL69       0.2592
     96  O         20.3170    2.5390   42.6720 O.2    69  VAL69      -0.2718
     97  CB        19.9540    0.6570   40.2740 C.3    69  VAL69       0.0266
     98  CG1       19.8240    1.5830   39.0700 C.3    69  VAL69       0.0020
     99  CG2       19.9740   -0.7950   39.8170 C.3    69  VAL69       0.0020
    100  N         21.8090    3.3520   41.1970 N.am   70  ASP70      -0.1960
    101  CA        21.7490    4.7200   41.7230 C.3    70  ASP70       0.1840
    102  C         21.9300    5.7710   40.6280 C.2    70  ASP70       0.2622
    103  O         22.6410    5.5500   39.6490 O.2    70  ASP70      -0.2715
    104  CB        22.7950    4.9170   42.8240 C.3    70  ASP70       0.1450
    105  CG        22.4320    6.0380   43.7800 C.2    70  ASP70       0.3671
    106  OD1       22.5320    7.2210   43.3900 O.co2  70  ASP70      -0.2456
    107  OD2       22.0470    5.7340   44.9280 O.co2  70  ASP70      -0.2456
    108  N         21.2780    6.9160   40.8160 N.am   71  LEU71      -0.1963
    109  CA        21.2860    8.0080   39.8400 C.3    71  LEU71       0.1728
    110  C         22.5830    8.8140   39.9160 C.2    71  LEU71       0.2616
    111  O         22.9740    9.4720   38.9490 O.2    71  LEU71      -0.2715
    112  CB        20.0840    8.9300   40.0830 C.3    71  LEU71       0.0311
    113  CG        19.7640   10.0130   39.0480 C.3    71  LEU71       0.0022
    114  CD1       19.4020    9.4120   37.6970 C.3    71  LEU71       0.0001
    115  CD2       18.6320   10.8930   39.5540 C.3    71  LEU71       0.0001
    116  N         23.2400    8.7540   41.0710 N.am   72  SER72      -0.1950
    117  CA        24.4920    9.4680   41.3040 C.3    72  SER72       0.1924
    118  C         25.6850    8.6450   40.8320 C.2    72  SER72       0.2314
    119  O         25.9100    7.5370   41.3170 O.2    72  SER72      -0.2863
    120  CB        24.6450    9.7830   42.7940 C.3    72  SER72       0.2116
    121  OG        25.9230   10.3280   43.0780 O.3    72  SER72      -0.2180
    122  N         28.0500    8.0920   43.8070 N.3    75  MET75      -0.1245
    123  CA        27.6380    6.9670   44.6540 C.3    75  MET75       0.1570
    124  C         28.0020    5.6120   44.0430 C.2    75  MET75       0.2261
    125  O         28.4160    4.7000   44.7600 O.2    75  MET75      -0.2867
    126  CB        26.1330    7.0180   44.9280 C.3    75  MET75       0.0387
    127  CG        25.7140    8.0980   45.9120 C.3    75  MET75       0.0595
    128  SD        26.2380    7.7660   47.6080 S.3    75  MET75      -0.1393
    129  CE        25.2000    8.9210   48.5010 C.3    75  MET75       0.0692
    130  N         21.7770    4.4670   37.0770 N.3    95  GLY95      -0.1210
    131  CA        20.4050    4.3350   36.5970 C.3    95  GLY95       0.1956
    132  C         19.3850    5.1300   37.3840 C.2    95  GLY95       0.2612
    133  O         19.6570    5.5980   38.4890 O.2    95  GLY95      -0.2717
    134  N         18.2000    5.2650   36.7960 N.am   96  ASP96      -0.1959
    135  CA        17.0950    6.0140   37.3820 C.3    96  ASP96       0.1840
    136  C         16.0030    5.0400   37.8250 C.2    96  ASP96       0.2622
    137  O         15.4860    4.2740   37.0180 O.2    96  ASP96      -0.2715
    138  CB        16.5410    7.0010   36.3490 C.3    96  ASP96       0.1450
    139  CG        15.5580    8.0000   36.9430 C.2    96  ASP96       0.3671
    140  OD1       14.9970    7.7450   38.0310 O.co2  96  ASP96      -0.2456
    141  OD2       15.3380    9.0480   36.3040 O.co2  96  ASP96      -0.2456
    142  N         15.6460    5.0920   39.1060 N.am   97  ALA97      -0.1963
    143  CA        14.6160    4.2150   39.6740 C.3    97  ALA97       0.1728
    144  C         13.2340    4.4440   39.0560 C.2    97  ALA97       0.2616
    145  O         12.3670    3.5740   39.1300 O.2    97  ALA97      -0.2715
    146  CB        14.5450    4.3950   41.1840 C.3    97  ALA97       0.0334
    147  N         13.0420    5.6100   38.4430 N.am   98  GLN98      -0.1977
    148  CA        11.7750    5.9730   37.8040 C.3    98  GLN98       0.1601
    149  C         11.6750    5.5210   36.3370 C.2    98  GLN98       0.2287
    150  O         10.7160    5.8670   35.6470 O.2    98  GLN98      -0.2864
    151  CB        11.5810    7.4880   37.8970 C.3    98  GLN98       0.0394
    152  CG        11.5990    8.0100   39.3290 C.3    98  GLN98       0.0908
    153  CD        11.8230    9.5080   39.4300 C.2    98  GLN98       0.2608
    154  OE1       11.0540   10.2120   40.0810 O.2    98  GLN98      -0.2717
    155  NE2       12.8860   10.0020   38.7990 N.am   98  GLN98      -0.0878
    156  N         15.6750    1.6780   50.2140 N.3   116  ARG116     -0.1231
    157  CA        15.7770    2.1750   51.5900 C.3   116  ARG116      0.1694
    158  C         16.1690    3.6520   51.6110 C.2   116  ARG116      0.2592
    159  O         17.1670    4.0450   51.0060 O.2   116  ARG116     -0.2718
    160  CB        16.7990    1.3600   52.3940 C.3   116  ARG116      0.0321
    161  CG        17.0390    1.8820   53.8080 C.3   116  ARG116      0.0489
    162  CD        18.1040    1.0850   54.5430 C.3   116  ARG116      0.2205
    163  NE        18.3200    1.5750   55.9060 N.pl3 116  ARG116     -0.0865
    164  CZ        19.0460    2.6450   56.2350 C.cat 116  ARG116      0.5346
    165  NH1       19.6470    3.3830   55.3050 N.pl3 116  ARG116      0.1354
    166  NH2       19.1690    2.9860   57.5130 N.pl3 116  ARG116      0.1354
    167  N         15.3730    4.4540   52.3160 N.am  117  ASN117     -0.1960
    168  CA        15.6730    5.8730   52.5630 C.3   117  ASN117      0.1819
    169  C         16.0470    6.6420   51.2900 C.2   117  ASN117      0.2621
    170  O         17.0400    7.3740   51.2580 O.2   117  ASN117     -0.2715
    171  CB        16.7870    6.0150   53.6200 C.3   117  ASN117      0.1195
    172  CG        16.3590    5.5860   55.0270 C.2   117  ASN117      0.2630
    173  OD1       17.1850    5.5900   55.9430 O.2   117  ASN117     -0.2716
    174  ND2       15.0900    5.2310   55.2160 N.am  117  ASN117     -0.0877
    175  N         15.2310    6.4820   50.2520 N.am  118  ALA118     -0.1977
    176  CA        15.4740    7.1440   48.9650 C.3   118  ALA118      0.1597
    177  C         14.2160    7.6510   48.2570 C.2   118  ALA118      0.2287
    178  O         14.2240    8.7460   47.6940 O.2   118  ALA118     -0.2864
    179  CB        16.2390    6.2150   48.0430 C.3   118  ALA118      0.0319
    180  N         12.9120   11.2030   48.0500 N.3   121  ARG121     -0.1231
    181  CA        13.6370   12.1800   47.2310 C.3   121  ARG121      0.1694
    182  C         13.0970   12.3320   45.8030 C.2   121  ARG121      0.2591
    183  O         13.4440   13.2880   45.1110 O.2   121  ARG121     -0.2718
    184  CB        15.1170   11.7910   47.1410 C.3   121  ARG121      0.0321
    185  CG        15.8150   11.5820   48.4750 C.3   121  ARG121      0.0489
    186  CD        17.3100   11.3810   48.2830 C.3   121  ARG121      0.2205
    187  NE        17.9540   12.5960   47.7810 N.pl3 121  ARG121     -0.0865
    188  CZ        18.3610   13.6180   48.5350 C.cat 121  ARG121      0.5346
    189  NH1       18.9290   14.6720   47.9590 N.pl3 121  ARG121      0.1354
    190  NH2       18.2100   13.6000   49.8570 N.pl3 121  ARG121      0.1354
    191  N         12.2560   11.3980   45.3640 N.am  122  LEU122     -0.1980
    192  CA        11.8830   11.2970   43.9470 C.3   122  LEU122      0.1596
    193  C         10.8680   12.3470   43.4930 C.2   122  LEU122      0.2287
    194  O         10.0730   12.8460   44.2880 O.2   122  LEU122     -0.2864
    195  CB        11.3380    9.8990   43.6440 C.3   122  LEU122      0.0297
    196  CG        12.2740    8.7290   43.9530 C.3   122  LEU122      0.0022
    197  CD1       11.5470    7.4160   43.7290 C.3   122  LEU122      0.0001
    198  CD2       13.5390    8.7860   43.1090 C.3   122  LEU122      0.0001
@<TRIPOS>BOND
     1   150   149    2
     2   141   139   ar
     3   149   148    1
     4   138   139    1
     5   138   135    1
     6   131   130    1
     7   131   132    1
     8   134   135    1
     9   134   132   am
    10   139   140   ar
    11   137   136    2
    12   135   136    1
    13   132   133    2
    14   114   113    1
    15   148   151    1
    16   148   147    1
    17   136   142   am
    18   151   152    1
    19   147   144   am
    20   155   153   am
    21   111   110    2
    22   113   115    1
    23   113   112    1
    24   144   145    2
    25   144   143    1
    26    98    97    1
    27   142   143    1
    28   152   153    1
    29   153   154    2
    30   103   102    2
    31   143   146    1
    32    99    97    1
    33   109   110    1
    34   109   112    1
    35   109   108    1
    36   110   116   am
    37    97    94    1
    38     8     7   ar
    39     9     7   ar
    40   102   108   am
    41   102   101    1
    42   118   117    1
    43   118   119    2
    44     7     6    1
    45   116   117    1
    46    94    95    1
    47    94    93    1
    48   100    95   am
    49   100   101    1
    50   117   120    1
    51    95    96    2
    52   101   104    1
    53     6     5    1
    54    14    11    1
    55     5     2    1
    56   120   121    1
    57   104   105    1
    58   198   196    1
    59    10    11    1
    60    10     3   am
    61     1     2    1
    62    11    12    1
    63   106   105   ar
    64   193   192    1
    65   193   194    2
    66     2     3    1
    67   195   192    1
    68   195   196    1
    69   197   196    1
    70   105   107   ar
    71   122   123    1
    72   192   191    1
    73    49    48    2
    74     3     4    2
    75   124   123    1
    76   124   125    2
    77    54    55    1
    78    46    47    1
    79    48    47    1
    80    59    58    1
    81    12    13    2
    82    12    15   am
    83    65    64    1
    84   123   126    1
    85   126   127    1
    86    55    58    1
    87    55    56    1
    88   183   182    2
    89    47    50    1
    90    15    16    1
    91    18    17    2
    92   191   182   am
    93    60    56   am
    94    60    61    1
    95    17    16    1
    96    64    61    1
    97   182   181    1
    98   127   128    1
    99    56    57    2
   100    50    51    1
   101    16    19    1
   102    69    68    2
   103    61    62    1
   104    66    62   am
   105    66    67    1
   106   184   181    1
   107   184   185    1
   108   181   180    1
   109    51    52   ar
   110    51    53   ar
   111    62    63    2
   112    68    67    1
   113    68    70   am
   114    19    20    1
   115    19    21    1
   116   128   129    1
   117   178   177    2
   118   187   186    1
   119   187   188    2
   120   189   188    1
   121   179   176    1
   122    20    22    1
   123   177   176    1
   124   186   185    1
   125   188   190    1
   126    70    71    1
   127    71    72    1
   128    71    74    1
   129    72    73    2
   130   176   175    1
   131    74    75    1
   132   156   157    1
   133   175   169   am
   134   159   158    2
   135    92    90    1
   136   170   169    2
   137    76    77    1
   138   169   168    1
   139    87    88    2
   140    87    86    1
   141   157   158    1
   142   157   160    1
   143   158   167   am
   144    89    90    1
   145    89    86    1
   146    90    91    1
   147    83    82   ar
   148    29    31   ar
   149    29    28   ar
   150    85    86    1
   151    85    78   am
   152   167   168    1
   153    31    33   ar
   154    27    28    1
   155    27    24    1
   156   160   161    1
   157    28    30   ar
   158   168   171    1
   159    77    78    1
   160    77    80    1
   161    78    79    2
   162    33    32   ar
   163    30    32   ar
   164    82    84   ar
   165    82    81    1
   166    23    24    1
   167    24    25    1
   168   171   172    1
   169    80    81    1
   170    25    26    2
   171   161   162    1
   172    45    44    1
   173   162   163    1
   174    43    44   ar
   175    43    41   ar
   176   172   174   am
   177   172   173    2
   178    44    42   ar
   179   165   164    1
   180    41    39   ar
   181   163   164    2
   182   164   166    1
   183    42    40   ar
   184    39    40   ar
   185    39    38    1
   186    38    35    1
   187    37    36    2
   188    35    36    1
   189    35    34    1
