@<TRIPOS>MOLECULE
tmp/5mhaB01.pdb
 92 88 0 0 0
SMALL
GASTEIGER

@<TRIPOS>ATOM
      1  N         -2.8560  -16.5850   42.0610 N.3    15  ALA15      -0.1245
      2  CA        -2.1780  -15.3600   41.6070 C.3    15  ALA15       0.1562
      3  C         -0.7420  -15.1760   42.1110 C.2    15  ALA15       0.2260
      4  O          0.0090  -14.3760   41.5560 O.2    15  ALA15      -0.2867
      5  CB        -2.9920  -14.1550   42.0410 C.3    15  ALA15       0.0290
      6  N         -8.8060  -14.6100   46.4820 N.3    50  PHE50      -0.1241
      7  CA        -8.9450  -14.5200   45.0090 C.3    50  PHE50       0.1605
      8  C        -10.4110  -14.6370   44.5980 C.2    50  PHE50       0.2264
      9  O        -10.9590  -13.7370   43.9320 O.2    50  PHE50      -0.2867
     10  CB        -8.1140  -15.6130   44.3380 C.3    50  PHE50       0.0534
     11  CG        -8.0390  -15.5040   42.8340 C.ar   50  PHE50      -0.0203
     12  CD1       -6.9970  -14.8100   42.2330 C.ar   50  PHE50      -0.0042
     13  CD2       -8.9940  -16.1050   42.0310 C.ar   50  PHE50      -0.0042
     14  CE1       -6.9090  -14.7010   40.8570 C.ar   50  PHE50      -0.0003
     15  CE2       -8.9130  -15.9990   40.6530 C.ar   50  PHE50      -0.0003
     16  CZ        -7.8640  -15.3000   40.0660 C.ar   50  PHE50      -0.0000
     17  N         -8.2390   -9.8710   45.9740 N.3    65  ILE65      -0.1231
     18  CA        -6.8780   -9.6000   45.5250 C.3    65  ILE65       0.1692
     19  C         -6.8270   -9.3520   44.0070 C.2    65  ILE65       0.2592
     20  O         -5.7370   -9.2450   43.4580 O.2    65  ILE65      -0.2718
     21  CB        -5.8740  -10.7250   45.9100 C.3    65  ILE65       0.0266
     22  CG1       -6.1230  -12.0250   45.1340 C.3    65  ILE65       0.0019
     23  CG2       -5.8650  -10.9690   47.4180 C.3    65  ILE65       0.0020
     24  CD1       -4.9230  -12.9370   45.0580 C.3    65  ILE65       0.0001
     25  N         -7.9900   -9.2960   43.3500 N.am   66  ARG66      -0.1966
     26  CA        -8.1070   -8.9730   41.9360 C.3    66  ARG66       0.1729
     27  C         -8.7180   -7.5930   41.7910 C.2    66  ARG66       0.2616
     28  O         -9.3820   -7.1160   42.6960 O.2    66  ARG66      -0.2715
     29  CB        -8.9810  -10.0000   41.2280 C.3    66  ARG66       0.0348
     30  CG        -8.8160  -11.4520   41.6500 C.3    66  ARG66       0.0492
     31  CD        -9.8110  -12.3070   40.9170 C.3    66  ARG66       0.2205
     32  NE        -9.4130  -12.4680   39.5230 N.pl3  66  ARG66      -0.0865
     33  CZ       -10.0870  -13.1810   38.6290 C.cat  66  ARG66       0.5346
     34  NH1      -11.2160  -13.7870   38.9630 N.pl3  66  ARG66       0.1354
     35  NH2       -9.6370  -13.2690   37.3850 N.pl3  66  ARG66       0.1354
     36  N         -8.5170   -6.9270   40.6470 N.am   67  ALA67      -0.1963
     37  CA        -9.3090   -5.7430   40.3350 C.3    67  ALA67       0.1728
     38  C        -10.7550   -6.0630   39.9560 C.2    67  ALA67       0.2616
     39  O        -11.6550   -5.3560   40.3620 O.2    67  ALA67      -0.2715
     40  CB        -8.6590   -4.9240   39.2340 C.3    67  ALA67       0.0334
     41  N        -10.9590   -7.1550   39.2170 N.am   68  GLY68      -0.1955
     42  CA       -12.2850   -7.5620   38.7800 C.3    68  GLY68       0.1869
     43  C        -12.9560   -8.3940   39.8430 C.2    68  GLY68       0.2309
     44  O        -12.3920   -9.3680   40.2930 O.2    68  GLY68      -0.2863
     45  N         -2.4860   -2.2120   38.8270 N.3    91  HIS91      -0.1241
     46  CA        -2.1570   -2.9820   37.5740 C.3    91  HIS91       0.1621
     47  C         -1.8280   -2.0880   36.3960 C.2    91  HIS91       0.2264
     48  O         -1.7060   -2.5700   35.2330 O.2    91  HIS91      -0.2867
     49  CB        -3.2790   -3.9740   37.1630 C.3    91  HIS91       0.0745
     50  CG        -3.8060   -4.8230   38.2830 C.ar   91  HIS91       0.0817
     51  ND1       -4.8960   -4.4390   39.0370 N.ar   91  HIS91      -0.2268
     52  CD2       -3.3850   -6.0000   38.8020 C.ar   91  HIS91       0.1154
     53  CE1       -5.1400   -5.3550   39.9520 C.ar   91  HIS91       0.1986
     54  NE2       -4.2390   -6.3120   39.8420 N.ar   91  HIS91      -0.2212
     55  N        -12.1400   -8.7270   30.4080 N.3   226  ARG226     -0.1245
     56  CA       -12.6660  -10.0480   30.6590 C.3   226  ARG226      0.1563
     57  C        -13.1240  -10.6420   29.3270 C.2   226  ARG226      0.2260
     58  O        -13.5500   -9.9260   28.4250 O.2   226  ARG226     -0.2867
     59  CB       -13.8490   -9.9780   31.6430 C.3   226  ARG226      0.0307
     60  CG       -13.4710   -9.6980   33.1030 C.3   226  ARG226      0.0489
     61  CD       -12.8000  -10.9150   33.6910 C.3   226  ARG226      0.2205
     62  NE       -12.4530  -10.7460   35.1010 N.pl3 226  ARG226     -0.0865
     63  CZ       -11.2770  -10.3430   35.5640 C.cat 226  ARG226      0.5346
     64  NH1      -10.2760   -9.9870   34.7560 N.pl3 226  ARG226      0.1354
     65  NH2      -11.1140  -10.2880   36.8810 N.pl3 226  ARG226      0.1354
     66  N         -3.7680  -14.9920   30.5900 N.3   274  HIS274     -0.1241
     67  CA        -4.2470  -14.1300   31.7040 C.3   274  HIS274      0.1621
     68  C         -3.1130  -13.6900   32.6330 C.2   274  HIS274      0.2264
     69  O         -3.1220  -13.8980   33.8600 O.2   274  HIS274     -0.2867
     70  CB        -5.4150  -14.8160   32.4400 C.3   274  HIS274      0.0745
     71  CG        -6.2810  -13.8730   33.2120 C.ar  274  HIS274      0.0817
     72  ND1       -7.6300  -14.0710   33.3810 N.ar  274  HIS274     -0.2268
     73  CD2       -6.0120  -12.6630   33.7640 C.ar  274  HIS274      0.1154
     74  CE1       -8.1440  -13.0570   34.0560 C.ar  274  HIS274      0.1986
     75  NE2       -7.1730  -12.2090   34.3280 N.ar  274  HIS274     -0.2212
     76  N         -1.0480   -8.6740   33.6410 N.3   277  ALA277     -0.1245
     77  CA        -0.7720   -7.9380   34.8960 C.3   277  ALA277      0.1562
     78  C          0.2470   -8.6890   35.7740 C.2   277  ALA277      0.2260
     79  O          0.4550   -8.3180   36.9370 O.2   277  ALA277     -0.2867
     80  CB        -2.0590   -7.7080   35.6620 C.3   277  ALA277      0.0290
     81  N          3.8040   -8.9500   42.8990 N.3   282  TYR282     -0.1241
     82  CA         2.3640   -8.8530   43.1010 C.3   282  TYR282      0.1605
     83  C          1.9970   -8.9550   44.5930 C.2   282  TYR282      0.2264
     84  O          1.1710   -8.2030   45.0600 O.2   282  TYR282     -0.2867
     85  CB         1.5730   -9.9000   42.2990 C.3   282  TYR282      0.0534
     86  CG         0.0830   -9.5230   42.1680 C.ar  282  TYR282     -0.0201
     87  CD1       -0.2860   -8.3080   41.6230 C.ar  282  TYR282     -0.0009
     88  CD2       -0.9300  -10.3620   42.6130 C.ar  282  TYR282     -0.0009
     89  CE1       -1.6120   -7.9280   41.5070 C.ar  282  TYR282      0.0417
     90  CE2       -2.2840   -9.9950   42.4900 C.ar  282  TYR282      0.0417
     91  CZ        -2.6090   -8.7650   41.9300 C.ar  282  TYR282      0.1957
     92  OH        -3.9080   -8.3220   41.8150 O.3   282  TYR282     -0.2866
@<TRIPOS>BOND
     1    58    57    2
     2    57    56    1
     3    55    56    1
     4    66    67    1
     5    56    59    1
     6    59    60    1
     7    67    70    1
     8    67    68    1
     9    70    71    1
    10    68    69    2
    11    60    61    1
    12    71    72   ar
    13    71    73   ar
    14    72    74   ar
    15    76    77    1
    16    61    62    1
    17    73    75   ar
    18    74    75   ar
    19    64    63    1
    20    77    80    1
    21    77    78    1
    22    62    63    2
    23    48    47    2
    24    63    65    1
    25    78    79    2
    26    47    46    1
    27    49    46    1
    28    49    50    1
    29    35    33    1
    30    46    45    1
    31    50    52   ar
    32    50    51   ar
    33    33    34    1
    34    33    32    2
    35    42    41    1
    36    42    43    1
    37    52    54   ar
    38    51    53   ar
    39    41    38   am
    40    40    37    1
    41    32    31    1
    42    54    53   ar
    43    43    44    2
    44    38    37    1
    45    38    39    2
    46    16    15   ar
    47    16    14   ar
    48    37    36    1
    49    36    27   am
    50    15    13   ar
    51    14    12   ar
    52    31    30    1
    53    29    30    1
    54    29    26    1
    55    89    87   ar
    56    89    91   ar
    57     4     3    2
    58     2     5    1
    59     2     1    1
    60     2     3    1
    61    87    86   ar
    62    27    26    1
    63    27    28    2
    64    92    91    1
    65    91    90   ar
    66    26    25    1
    67    13    11   ar
    68    86    85    1
    69    86    88   ar
    70    12    11   ar
    71    85    82    1
    72    90    88   ar
    73    11    10    1
    74    81    82    1
    75    82    83    1
    76    25    19   am
    77    20    19    2
    78     9     8    2
    79    19    18    1
    80    10     7    1
    81    83    84    2
    82     8     7    1
    83     7     6    1
    84    24    22    1
    85    22    21    1
    86    18    21    1
    87    18    17    1
    88    21    23    1
