@<TRIPOS>MOLECULE
tmp/5mhbA00.pdb
 161 151 0 0 0
SMALL
GASTEIGER

@<TRIPOS>ATOM
      1  N        -18.1500  -31.2760   21.4270 N.3    78  PHE78      -0.1241
      2  CA       -19.4640  -30.7830   21.8030 C.3    78  PHE78       0.1605
      3  C        -20.2840  -31.8330   22.6700 C.2    78  PHE78       0.2264
      4  O        -20.5730  -32.9370   22.2020 O.2    78  PHE78      -0.2867
      5  CB       -20.2280  -30.5100   20.5090 C.3    78  PHE78       0.0534
      6  CG       -19.6590  -29.3510   19.6830 C.ar   78  PHE78      -0.0203
      7  CD1      -19.9700  -28.0450   19.9990 C.ar   78  PHE78      -0.0042
      8  CD2      -18.8930  -29.5810   18.5590 C.ar   78  PHE78      -0.0042
      9  CE1      -19.4840  -26.9840   19.2660 C.ar   78  PHE78      -0.0003
     10  CE2      -18.4050  -28.5460   17.8300 C.ar   78  PHE78      -0.0003
     11  CZ       -18.6610  -27.2200   18.1830 C.ar   78  PHE78      -0.0000
     12  N        -15.0110  -27.0620   22.7070 N.3   117  ASP117     -0.1239
     13  CA       -15.9400  -25.9820   22.5680 C.3   117  ASP117      0.1674
     14  C        -16.3790  -25.4880   23.9160 C.2   117  ASP117      0.2266
     15  O        -16.6910  -26.2090   24.8060 O.2   117  ASP117     -0.2867
     16  CB       -17.0760  -26.3230   21.6900 C.3   117  ASP117      0.1410
     17  CG       -18.0080  -25.1250   21.4630 C.2   117  ASP117      0.3668
     18  OD1      -18.9620  -24.8890   22.2310 O.co2 117  ASP117     -0.2456
     19  OD2      -17.7620  -24.4490   20.4600 O.co2 117  ASP117     -0.2456
     20  N        -18.6200  -22.9520   25.9290 N.3   119  CYS119     -0.1235
     21  CA       -19.8090  -22.1210   25.9820 C.3   119  CYS119      0.1677
     22  C        -20.7930  -22.7110   27.0850 C.2   119  CYS119      0.2270
     23  O        -20.3620  -23.5630   27.8770 O.2   119  CYS119     -0.2867
     24  CB       -20.3830  -22.0530   24.5880 C.3   119  CYS119      0.0956
     25  SG       -21.7040  -20.8260   24.2780 S.3   119  CYS119     -0.0801
     26  N        -24.5990  -22.6430   25.9490 N.3   121  CYS121     -0.1221
     27  CA       -25.8410  -22.8570   25.2950 C.3   121  CYS121      0.1808
     28  C        -26.2860  -24.3830   25.3940 C.2   121  CYS121      0.2601
     29  O        -27.4780  -24.6380   25.2950 O.2   121  CYS121     -0.2717
     30  CB       -25.7670  -22.4190   23.7800 C.3   121  CYS121      0.0970
     31  SG       -24.4600  -23.1800   22.8080 S.3   121  CYS121     -0.0800
     32  N        -25.3500  -25.3330   25.5290 N.am  122  GLU122     -0.1979
     33  CA       -25.7150  -26.7460   25.5790 C.3   122  GLU122      0.1602
     34  C        -26.0460  -27.2220   27.0500 C.2   122  GLU122      0.2287
     35  O        -26.5880  -28.3260   27.2010 O.2   122  GLU122     -0.2864
     36  CB       -24.6610  -27.6610   24.9540 C.3   122  GLU122      0.0415
     37  CG       -24.6150  -27.6820   23.4130 C.3   122  GLU122      0.1163
     38  CD       -23.1730  -27.7940   22.8490 C.2   122  GLU122      0.3649
     39  OE1      -22.3670  -28.7690   23.1310 O.co2 122  GLU122     -0.2457
     40  OE2      -22.8430  -26.8620   22.0860 O.co2 122  GLU122     -0.2457
     41  N        -26.1190  -18.6810   25.2290 N.3   129  CYS129     -0.1235
     42  CA       -24.6420  -18.8320   25.4280 C.3   129  CYS129      0.1677
     43  C        -24.0950  -18.1810   26.7010 C.2   129  CYS129      0.2270
     44  O        -22.9630  -17.7060   26.7160 O.2   129  CYS129     -0.2867
     45  CB       -23.9510  -18.3030   24.1900 C.3   129  CYS129      0.0956
     46  SG       -24.5190  -19.2050   22.7640 S.3   129  CYS129     -0.0801
     47  N        -17.0080  -20.2040   22.0700 N.3   164  SER164     -0.1217
     48  CA       -17.9990  -20.0200   21.0080 C.3   164  SER164      0.1889
     49  C        -19.2160  -19.1630   21.4390 C.2   164  SER164      0.2288
     50  O        -20.2620  -19.1160   20.6960 O.2   164  SER164     -0.2866
     51  CB       -18.4800  -21.3880   20.4350 C.3   164  SER164      0.2089
     52  OG       -19.0290  -21.9790   21.4890 O.3   164  SER164     -0.2183
     53  N        -17.7310  -14.6050   14.6110 N.3   194  LYS194     -0.1245
     54  CA       -18.7680  -15.5480   14.5970 C.3   194  LYS194      0.1561
     55  C        -20.0350  -14.8060   14.3610 C.2   194  LYS194      0.2260
     56  O        -20.4770  -14.0360   15.1970 O.2   194  LYS194     -0.2867
     57  CB       -18.7820  -16.2920   15.9740 C.3   194  LYS194      0.0271
     58  CG       -19.8900  -17.3010   16.0810 C.3   194  LYS194      0.0035
     59  CD       -19.7360  -18.0380   17.3740 C.3   194  LYS194      0.0206
     60  CE       -21.0710  -18.7740   17.7350 C.3   194  LYS194      0.1093
     61  NZ       -20.7430  -20.1880   17.6510 N.3   194  LYS194     -0.1314
     62  N        -26.7940  -22.3460   11.0410 N.3   200  TYR200     -0.1241
     63  CA       -26.5700  -23.2000   12.1900 C.3   200  TYR200      0.1605
     64  C        -27.8380  -24.1090   12.5630 C.2   200  TYR200      0.2264
     65  O        -27.7920  -24.8490   13.5800 O.2   200  TYR200     -0.2867
     66  CB       -26.2390  -22.4000   13.4490 C.3   200  TYR200      0.0534
     67  CG       -25.1380  -21.3850   13.4310 C.ar  200  TYR200     -0.0201
     68  CD1      -23.8790  -21.6860   12.9630 C.ar  200  TYR200     -0.0009
     69  CD2      -25.3640  -20.1210   13.9980 C.ar  200  TYR200     -0.0009
     70  CE1      -22.8610  -20.6880   12.9900 C.ar  200  TYR200      0.0417
     71  CE2      -24.4090  -19.1790   14.0310 C.ar  200  TYR200      0.0417
     72  CZ       -23.1290  -19.4910   13.5440 C.ar  200  TYR200      0.1957
     73  OH       -22.1570  -18.5240   13.6090 O.3   200  TYR200     -0.2866
     74  N        -27.3750  -27.8840   13.7270 N.3   203  PHE203     -0.1227
     75  CA       -26.7140  -27.9530   15.0240 C.3   203  PHE203      0.1736
     76  C        -27.6590  -27.8250   16.2570 C.2   203  PHE203      0.2595
     77  O        -27.3430  -28.4040   17.2690 O.2   203  PHE203     -0.2718
     78  CB       -25.5170  -26.9450   15.0410 C.3   203  PHE203      0.0547
     79  CG       -24.7070  -26.9720   16.2970 C.ar  203  PHE203     -0.0202
     80  CD1      -25.1040  -26.2550   17.4260 C.ar  203  PHE203     -0.0042
     81  CD2      -23.5170  -27.6290   16.3510 C.ar  203  PHE203     -0.0042
     82  CE1      -24.3780  -26.2830   18.6150 C.ar  203  PHE203     -0.0003
     83  CE2      -22.7670  -27.6410   17.5430 C.ar  203  PHE203     -0.0003
     84  CZ       -23.1840  -26.9740   18.6780 C.ar  203  PHE203     -0.0000
     85  N        -28.7540  -27.0610   16.1850 N.am  204  ARG204     -0.1980
     86  CA       -29.8400  -27.0710   17.1780 C.3   204  ARG204      0.1597
     87  C        -30.2330  -28.5380   17.4930 C.2   204  ARG204      0.2287
     88  O        -30.2660  -28.9290   18.6230 O.2   204  ARG204     -0.2864
     89  CB       -31.1530  -26.4490   16.6470 C.3   204  ARG204      0.0334
     90  CG       -31.2850  -24.9240   16.7410 C.3   204  ARG204      0.0492
     91  CD       -30.1800  -24.1090   16.0150 C.3   204  ARG204      0.2205
     92  NE       -29.0270  -23.8040   16.8680 N.pl3 204  ARG204     -0.0865
     93  CZ       -28.7150  -22.6020   17.3540 C.cat 204  ARG204      0.5346
     94  NH1      -29.4510  -21.5230   17.1000 N.pl3 204  ARG204      0.1354
     95  NH2      -27.6340  -22.4870   18.1000 N.pl3 204  ARG204      0.1354
     96  N        -29.7070  -15.1630   18.9390 N.3   215  ARG215     -0.1245
     97  CA       -28.3960  -14.8170   19.5040 C.3   215  ARG215      0.1563
     98  C        -27.8860  -13.4650   18.9610 C.2   215  ARG215      0.2260
     99  O        -26.6950  -13.1410   19.0140 O.2   215  ARG215     -0.2867
    100  CB       -27.4440  -15.9860   19.2290 C.3   215  ARG215      0.0307
    101  CG       -27.9920  -17.3680   19.7220 C.3   215  ARG215      0.0489
    102  CD       -26.9020  -18.4040   19.9410 C.3   215  ARG215      0.2205
    103  NE       -27.4080  -19.7460   20.0780 N.pl3 215  ARG215     -0.0865
    104  CZ       -27.8170  -20.3310   21.2370 C.cat 215  ARG215      0.5346
    105  NH1      -27.7840  -19.7060   22.4190 N.pl3 215  ARG215      0.1354
    106  NH2      -28.3210  -21.5680   21.2120 N.pl3 215  ARG215      0.1354
    107  N        -23.8830  -12.5030   18.8620 N.3   219  GLN219     -0.1245
    108  CA       -23.3280  -12.9160   17.6020 C.3   219  GLN219      0.1566
    109  C        -23.5200  -11.7530   16.6350 C.2   219  GLN219      0.2260
    110  O        -24.5320  -11.0370   16.6970 O.2   219  GLN219     -0.2867
    111  CB       -23.9590  -14.1870   17.0590 C.3   219  GLN219      0.0367
    112  CG       -23.7570  -15.3960   17.9760 C.3   219  GLN219      0.0905
    113  CD       -24.4650  -16.6380   17.4950 C.2   219  GLN219      0.2608
    114  OE1      -25.2520  -16.5740   16.6230 O.2   219  GLN219     -0.2717
    115  NE2      -24.1590  -17.7880   18.0930 N.am  219  GLN219     -0.0878
    116  N        -16.5010  -17.8990   11.2940 N.3   246  LYS246     -0.1245
    117  CA       -17.6710  -18.8700   11.3550 C.3   246  LYS246      0.1561
    118  C        -19.0180  -18.2300   11.1890 C.2   246  LYS246      0.2260
    119  O        -19.2800  -17.1930   11.8060 O.2   246  LYS246     -0.2867
    120  CB       -17.7520  -19.5540   12.7050 C.3   246  LYS246      0.0271
    121  CG       -18.8870  -20.5940   12.8480 C.3   246  LYS246      0.0035
    122  CD       -18.6750  -21.1470   14.1790 C.3   246  LYS246      0.0206
    123  CE       -19.7040  -22.0720   14.6020 C.3   246  LYS246      0.1093
    124  NZ       -19.5310  -22.2120   16.1130 N.3   246  LYS246     -0.1314
    125  N        -14.9350  -22.5150    9.9290 N.3   269  TYR269     -0.1241
    126  CA       -15.8320  -23.5500   10.3060 C.3   269  TYR269      0.1605
    127  C        -16.8850  -23.7710    9.2630 C.2   269  TYR269      0.2264
    128  O        -17.6890  -22.9300    9.0790 O.2   269  TYR269     -0.2867
    129  CB       -16.4940  -23.2070   11.6230 C.3   269  TYR269      0.0534
    130  CG       -16.9760  -24.4050   12.4060 C.ar  269  TYR269     -0.0201
    131  CD1      -18.0400  -25.1790   11.9430 C.ar  269  TYR269     -0.0009
    132  CD2      -16.5430  -24.6040   13.7240 C.ar  269  TYR269     -0.0009
    133  CE1      -18.5220  -26.2320   12.6820 C.ar  269  TYR269      0.0417
    134  CE2      -17.0050  -25.6450   14.4760 C.ar  269  TYR269      0.0417
    135  CZ       -18.0180  -26.4670   13.9800 C.ar  269  TYR269      0.1957
    136  OH       -18.4870  -27.5140   14.7790 O.3   269  TYR269     -0.2866
    137  N        -20.0550  -25.1380    8.7290 N.3   271  VAL271     -0.1231
    138  CA       -21.0170  -25.3920    9.7620 C.3   271  VAL271      0.1692
    139  C        -22.0620  -26.3960    9.2440 C.2   271  VAL271      0.2592
    140  O        -22.0930  -26.8080    8.0520 O.2   271  VAL271     -0.2718
    141  CB       -21.6990  -24.0720   10.2760 C.3   271  VAL271      0.0266
    142  CG1      -20.7240  -23.0880   10.8990 C.3   271  VAL271      0.0020
    143  CG2      -22.5030  -23.4150    9.1540 C.3   271  VAL271      0.0020
    144  N        -22.8890  -26.8300   10.2060 N.am  272  SER272     -0.1952
    145  CA       -23.9500  -27.8270   10.0390 C.3   272  SER272      0.1924
    146  C        -24.9030  -27.5750    8.8820 C.2   272  SER272      0.2314
    147  O        -25.2370  -28.5300    8.1620 O.2   272  SER272     -0.2863
    148  CB       -24.7000  -27.9470   11.3540 C.3   272  SER272      0.2116
    149  OG       -25.3410  -26.7490   11.7440 O.3   272  SER272     -0.2180
    150  N        -17.4510  -31.6200    9.2710 N.3   311  TYR311     -0.1241
    151  CA       -18.1660  -32.8580    9.6990 C.3   311  TYR311      0.1605
    152  C        -17.8900  -34.0360    8.7070 C.2   311  TYR311      0.2264
    153  O        -18.1310  -35.2360    9.0030 O.2   311  TYR311     -0.2867
    154  CB       -19.6910  -32.5560    9.8060 C.3   311  TYR311      0.0534
    155  CG       -20.0530  -31.5660   10.8560 C.ar  311  TYR311     -0.0201
    156  CD1      -19.9910  -31.8920   12.2110 C.ar  311  TYR311     -0.0009
    157  CD2      -20.3280  -30.2580   10.5310 C.ar  311  TYR311     -0.0009
    158  CE1      -20.2440  -30.9210   13.2250 C.ar  311  TYR311      0.0417
    159  CE2      -20.6310  -29.3220   11.5030 C.ar  311  TYR311      0.0417
    160  CZ       -20.5980  -29.6440   12.8520 C.ar  311  TYR311      0.1957
    161  OH       -20.8310  -28.5900   13.7210 O.3   311  TYR311     -0.2866
@<TRIPOS>BOND
     1   140   139    2
     2   147   146    2
     3   152   153    2
     4   152   151    1
     5   137   138    1
     6   146   145    1
     7   128   127    2
     8   143   141    1
     9   139   138    1
    10   139   144   am
    11   127   126    1
    12   150   151    1
    13   151   154    1
    14   138   141    1
    15   154   155    1
    16   125   126    1
    17   145   144    1
    18   145   148    1
    19   141   142    1
    20   126   129    1
    21   157   155   ar
    22   157   159   ar
    23   155   156   ar
    24    62    63    1
    25   118   117    1
    26   118   119    2
    27   116   117    1
    28   148   149    1
    29   117   120    1
    30   159   160   ar
    31   129   130    1
    32   131   130   ar
    33   131   133   ar
    34    63    64    1
    35    63    66    1
    36   156   158   ar
    37   130   132   ar
    38    64    65    2
    39   133   135   ar
    40   120   121    1
    41   121   122    1
    42   160   158   ar
    43   160   161    1
    44    68    70   ar
    45    68    67   ar
    46    70    72   ar
    47    67    66    1
    48    67    69   ar
    49    72    73    1
    50    72    71   ar
    51   132   134   ar
    52    74    75    1
    53   135   134   ar
    54   135   136    1
    55    69    71   ar
    56   122   123    1
    57    55    54    1
    58    55    56    2
    59    54    53    1
    60    54    57    1
    61   123   124    1
    62    75    78    1
    63    75    76    1
    64    78    79    1
    65    57    58    1
    66    91    90    1
    67    91    92    1
    68    58    59    1
    69    85    76   am
    70    85    86    1
    71    76    77    2
    72    79    81   ar
    73    79    80   ar
    74    81    83   ar
    75   114   113    2
    76   109   110    2
    77   109   108    1
    78    89    90    1
    79    89    86    1
    80    92    93    2
    81   111   108    1
    82   111   112    1
    83    94    93    1
    84    86    87    1
    85    93    95    1
    86    59    60    1
    87    80    82   ar
    88    87    88    2
    89   113   112    1
    90   113   115   am
    91    83    84   ar
    92   108   107    1
    93    61    60    1
    94    10    11   ar
    95    10     8   ar
    96    11     9   ar
    97     8     6   ar
    98    82    84   ar
    99    96    97    1
   100    98    99    2
   101    98    97    1
   102   100    97    1
   103   100   101    1
   104     9     7   ar
   105     6     7   ar
   106     6     5    1
   107   101   102    1
   108   102   103    1
   109   103   104    2
   110    51    48    1
   111    51    52    1
   112    19    17   ar
   113     5     2    1
   114    50    49    2
   115    48    49    1
   116    48    47    1
   117   106   104    1
   118   104   105    1
   119     1     2    1
   120    17    16    1
   121    17    18   ar
   122    16    13    1
   123     2     3    1
   124    40    38   ar
   125     4     3    2
   126    13    12    1
   127    13    14    1
   128    46    45    1
   129    31    30    1
   130    38    39   ar
   131    38    37    1
   132    37    36    1
   133    30    27    1
   134    14    15    2
   135    45    42    1
   136    25    24    1
   137    24    21    1
   138    36    33    1
   139    41    42    1
   140    27    28    1
   141    27    26    1
   142    29    28    2
   143    28    32   am
   144    42    43    1
   145    32    33    1
   146    33    34    1
   147    20    21    1
   148    21    22    1
   149    43    44    2
   150    34    35    2
   151    22    23    2
