@<TRIPOS>MOLECULE
tmp/5mheB00.pdb
 129 126 0 0 0
SMALL
GASTEIGER

@<TRIPOS>ATOM
      1  N          6.5090   -9.7430   46.3350 N.3    33  TYR33      -0.1227
      2  CA         7.0100  -11.0920   46.1480 C.3    33  TYR33       0.1736
      3  C          6.5450  -11.9630   47.3080 C.2    33  TYR33       0.2595
      4  O          6.4360  -11.4990   48.4490 O.2    33  TYR33      -0.2718
      5  CB         8.5230  -11.0940   46.1000 C.3    33  TYR33       0.0548
      6  CG         9.1030  -10.6060   44.8210 C.ar   33  TYR33      -0.0200
      7  CD1        9.6070  -11.4920   43.8930 C.ar   33  TYR33      -0.0009
      8  CD2        9.1690   -9.2630   44.5500 C.ar   33  TYR33      -0.0009
      9  CE1       10.1700  -11.0450   42.7070 C.ar   33  TYR33       0.0417
     10  CE2        9.7180   -8.7980   43.3740 C.ar   33  TYR33       0.0417
     11  CZ        10.2160   -9.6920   42.4610 C.ar   33  TYR33       0.1957
     12  OH        10.7490   -9.2080   41.3110 O.3    33  TYR33      -0.2866
     13  N          6.2690  -13.2320   47.0050 N.am   34  MET34      -0.1965
     14  CA         5.8090  -14.2040   47.9960 C.3    34  MET34       0.1736
     15  C          6.6190  -15.4930   47.8720 C.2    34  MET34       0.2617
     16  O          7.1350  -15.8210   46.7950 O.2    34  MET34      -0.2715
     17  CB         4.3150  -14.5180   47.8110 C.3    34  MET34       0.0427
     18  CG         3.4020  -13.3420   48.0500 C.3    34  MET34       0.0599
     19  SD         3.4010  -12.8250   49.7580 S.3    34  MET34      -0.1393
     20  CE         2.7660  -14.2640   50.5950 C.3    34  MET34       0.0692
     21  N          6.7350  -16.2300   48.9740 N.am   35  SER35      -0.1950
     22  CA         7.5260  -17.4530   48.9600 C.3    35  SER35       0.1924
     23  C          6.8770  -18.5260   49.8170 C.2    35  SER35       0.2314
     24  O          6.0000  -18.2480   50.6440 O.2    35  SER35      -0.2863
     25  CB         8.9540  -17.1900   49.4560 C.3    35  SER35       0.2116
     26  OG         8.9670  -16.8910   50.8420 O.3    35  SER35      -0.2180
     27  N         14.0550  -22.7710   51.6460 N.3    47  LEU47      -0.1245
     28  CA        13.1990  -22.1970   50.6220 C.3    47  LEU47       0.1561
     29  C         12.7550  -23.2840   49.6470 C.2    47  LEU47       0.2260
     30  O         13.5660  -24.0920   49.1930 O.2    47  LEU47      -0.2867
     31  CB        13.9590  -21.0940   49.8770 C.3    47  LEU47       0.0270
     32  CG        13.2580  -20.4280   48.6970 C.3    47  LEU47       0.0019
     33  CD1       12.2300  -19.4480   49.2090 C.3    47  LEU47       0.0001
     34  CD2       14.2860  -19.7420   47.7640 C.3    47  LEU47       0.0001
     35  N          9.5010  -19.4220   45.1930 N.3    50  ALA50      -0.1231
     36  CA         9.2070  -17.9910   45.2370 C.3    50  ALA50       0.1694
     37  C          8.5340  -17.5520   43.9430 C.2    50  ALA50       0.2592
     38  O          8.7360  -18.1550   42.8810 O.2    50  ALA50      -0.2718
     39  CB        10.4680  -17.1640   45.4760 C.3    50  ALA50       0.0304
     40  N          7.7530  -16.4710   44.0360 N.am   51  ILE51      -0.1966
     41  CA         6.9660  -15.9490   42.9190 C.3    51  ILE51       0.1727
     42  C          6.9280  -14.4220   43.0090 C.2    51  ILE51       0.2616
     43  O          6.8980  -13.8500   44.1040 O.2    51  ILE51      -0.2715
     44  CB         5.5550  -16.5800   42.9360 C.3    51  ILE51       0.0290
     45  CG1        4.7610  -16.2710   41.6630 C.3    51  ILE51       0.0022
     46  CG2        4.7880  -16.1430   44.1930 C.3    51  ILE51       0.0023
     47  CD1        3.5330  -17.1850   41.5250 C.3    51  ILE51       0.0001
     48  N          6.9680  -13.7540   41.8580 N.am   52  ASN52      -0.1972
     49  CA         6.9640  -12.2950   41.8400 C.3    52  ASN52       0.1688
     50  C          5.5300  -11.7460   41.9180 C.2    52  ASN52       0.2292
     51  O          4.5500  -12.4720   42.1340 O.2    52  ASN52      -0.2864
     52  CB         7.7250  -11.7830   40.6150 C.3    52  ASN52       0.1181
     53  CG         6.9600  -11.9700   39.3310 C.2    52  ASN52       0.2629
     54  OD1        6.0770  -12.8130   39.2330 O.2    52  ASN52      -0.2716
     55  ND2        7.3120  -11.1900   38.3230 N.am   52  ASN52      -0.0877
     56  N          7.1470  -14.4710   36.9990 N.3    57  SER57      -0.1202
     57  CA         8.3850  -15.1810   37.2810 C.3    57  SER57       0.2020
     58  C          8.2150  -16.0150   38.5460 C.2    57  SER57       0.2619
     59  O          7.4200  -15.6840   39.4240 O.2    57  SER57      -0.2717
     60  CB         9.5640  -14.2240   37.4470 C.3    57  SER57       0.2103
     61  OG         9.5850  -13.2580   36.4210 O.3    57  SER57      -0.2182
     62  N          8.9490  -17.1200   38.5970 N.am   58  THR58      -0.1938
     63  CA         8.9540  -18.0480   39.7070 C.3    58  THR58       0.2028
     64  C         10.3600  -18.6030   39.8460 C.2    58  THR58       0.2642
     65  O         11.1300  -18.6570   38.8770 O.2    58  THR58      -0.2714
     66  CB         7.9870  -19.2160   39.5020 C.3    58  THR58       0.1808
     67  OG1        8.3060  -19.8850   38.2700 O.3    58  THR58      -0.2208
     68  CG2        6.5540  -18.7500   39.4700 C.3    58  THR58       0.0379
     69  N         10.6740  -19.0520   41.0550 N.am   59  TYR59      -0.1973
     70  CA        11.9700  -19.6390   41.3450 C.3    59  TYR59       0.1639
     71  C         11.7670  -20.8810   42.1980 C.2    59  TYR59       0.2290
     72  O         10.9730  -20.8790   43.1490 O.2    59  TYR59      -0.2864
     73  CB        12.9290  -18.6730   42.0640 C.3    59  TYR59       0.0560
     74  CG        14.2000  -19.3960   42.4560 C.ar   59  TYR59      -0.0198
     75  CD1       15.2000  -19.6180   41.5180 C.ar   59  TYR59      -0.0009
     76  CD2       14.3700  -19.9210   43.7420 C.ar   59  TYR59      -0.0009
     77  CE1       16.3470  -20.3090   41.8410 C.ar   59  TYR59       0.0417
     78  CE2       15.5210  -20.6260   44.0860 C.ar   59  TYR59       0.0417
     79  CZ        16.5120  -20.8230   43.1190 C.ar   59  TYR59       0.1957
     80  OH        17.6820  -21.5220   43.4100 O.3    59  TYR59      -0.2866
     81  N          7.9020  -11.5730   50.7520 N.3    99  GLY99      -0.1210
     82  CA         9.1900  -11.0380   50.3540 C.3    99  GLY99       0.1956
     83  C          9.1590   -9.5450   50.0850 C.2    99  GLY99       0.2611
     84  O          8.5290   -8.7710   50.8080 O.2    99  GLY99      -0.2717
     85  N          9.8420   -9.1390   49.0290 N.am  100  ASP100     -0.1973
     86  CA        10.1170   -7.7310   48.7760 C.3   100  ASP100      0.1709
     87  C          8.8900   -6.9890   48.2590 C.2   100  ASP100      0.2293
     88  O          8.0320   -7.5570   47.5780 O.2   100  ASP100     -0.2864
     89  CB        11.2410   -7.5920   47.7480 C.3   100  ASP100      0.1436
     90  CG        12.6070   -7.7850   48.3520 C.2   100  ASP100      0.3671
     91  OD1       13.0750   -6.8500   49.0320 O.co2 100  ASP100     -0.2456
     92  OD2       13.2160   -8.8640   48.1420 O.co2 100  ASP100     -0.2456
     93  N         16.1270   -4.7080   46.4520 N.3   107  TYR107     -0.1241
     94  CA        15.5800   -5.9690   46.9340 C.3   107  TYR107      0.1605
     95  C         16.4890   -6.5730   47.9910 C.2   107  TYR107      0.2264
     96  O         17.7110   -6.5860   47.8540 O.2   107  TYR107     -0.2867
     97  CB        15.3710   -6.9510   45.7850 C.3   107  TYR107      0.0534
     98  CG        14.2420   -6.5650   44.8430 C.ar  107  TYR107     -0.0201
     99  CD1       13.2760   -5.6380   45.2150 C.ar  107  TYR107     -0.0009
    100  CD2       14.1450   -7.1300   43.5810 C.ar  107  TYR107     -0.0009
    101  CE1       12.2470   -5.2930   44.3570 C.ar  107  TYR107      0.0417
    102  CE2       13.1200   -6.7880   42.7150 C.ar  107  TYR107      0.0417
    103  CZ        12.1780   -5.8680   43.1060 C.ar  107  TYR107      0.1957
    104  OH        11.1490   -5.5350   42.2480 O.3   107  TYR107     -0.2866
    105  N         15.6820   -9.7790   49.5240 N.3   109  TYR109     -0.1227
    106  CA        15.5440  -11.2330   49.5650 C.3   109  TYR109      0.1736
    107  C         15.4590  -11.7050   51.0060 C.2   109  TYR109      0.2595
    108  O         16.0910  -12.6880   51.3960 O.2   109  TYR109     -0.2718
    109  CB        16.6900  -11.9150   48.8480 C.3   109  TYR109      0.0548
    110  CG        16.7350  -11.5540   47.3950 C.ar  109  TYR109     -0.0200
    111  CD1       16.0190  -12.2830   46.4540 C.ar  109  TYR109     -0.0009
    112  CD2       17.4820  -10.4760   46.9570 C.ar  109  TYR109     -0.0009
    113  CE1       16.0710  -11.9530   45.1050 C.ar  109  TYR109      0.0417
    114  CE2       17.5290  -10.1410   45.5960 C.ar  109  TYR109      0.0417
    115  CZ        16.8170  -10.8820   44.6960 C.ar  109  TYR109      0.1957
    116  OH        16.8600  -10.5770   43.3580 O.3   109  TYR109     -0.2866
    117  N         14.6890  -10.9670   51.7970 N.am  110  ALA110     -0.1966
    118  CA        14.3710  -11.3120   53.1770 C.3   110  ALA110      0.1728
    119  C         12.8730  -11.5470   53.3190 C.2   110  ALA110      0.2616
    120  O         12.0690  -10.9720   52.5800 O.2   110  ALA110     -0.2715
    121  CB        14.8060  -10.2050   54.1130 C.3   110  ALA110      0.0334
    122  N         12.4990  -12.4120   54.2680 N.am  111  MET111     -0.1977
    123  CA        11.1000  -12.7700   54.4870 C.3   111  MET111      0.1605
    124  C         10.6200  -12.0070   55.7170 C.2   111  MET111      0.2287
    125  O         10.9400  -12.3730   56.8550 O.2   111  MET111     -0.2864
    126  CB        10.9330  -14.2740   54.6510 C.3   111  MET111      0.0413
    127  CG        10.6150  -15.0100   53.3400 C.3   111  MET111      0.0598
    128  SD        11.9730  -15.8770   52.5430 S.3   111  MET111     -0.1393
    129  CE        13.2650  -14.7060   52.7030 C.3   111  MET111      0.0692
@<TRIPOS>BOND
     1    61    60    1
     2    56    57    1
     3    57    60    1
     4    57    58    1
     5    67    66    1
     6    55    53   am
     7    58    62   am
     8    58    59    2
     9    62    63    1
    10    65    64    2
    11    54    53    2
    12    53    52    1
    13    68    66    1
    14    66    63    1
    15    63    64    1
    16    64    69   am
    17    52    49    1
    18    69    70    1
    19    12    11    1
    20    70    73    1
    21    70    71    1
    22    75    77   ar
    23    75    74   ar
    24    47    45    1
    25    45    44    1
    26    49    48    1
    27    49    50    1
    28    77    79   ar
    29    48    42   am
    30    50    51    2
    31    73    74    1
    32    71    72    2
    33   104   103    1
    34    74    76   ar
    35    11     9   ar
    36    11    10   ar
    37     9     7   ar
    38   102   103   ar
    39   102   100   ar
    40    38    37    2
    41    41    44    1
    42    41    42    1
    43    41    40    1
    44    44    46    1
    45    42    43    2
    46   103   101   ar
    47    79    80    1
    48    79    78   ar
    49   116   115    1
    50    10     8   ar
    51   100    98   ar
    52    76    78   ar
    53     7     6   ar
    54    37    40   am
    55    37    36    1
    56   101    99   ar
    57     8     6   ar
    58   115   113   ar
    59   115   114   ar
    60     6     5    1
    61    98    99   ar
    62    98    97    1
    63   113   111   ar
    64    35    36    1
    65    36    39    1
    66   114   112   ar
    67    97    94    1
    68     5     2    1
    69     2     1    1
    70     2     3    1
    71    93    94    1
    72   111   110   ar
    73    16    15    2
    74    94    95    1
    75   112   110   ar
    76    13     3   am
    77    13    14    1
    78     3     4    2
    79   110   109    1
    80    88    87    2
    81    89    90    1
    82    89    86    1
    83    34    32    1
    84    17    14    1
    85    17    18    1
    86    96    95    2
    87    15    14    1
    88    15    21   am
    89    18    19    1
    90    92    90   ar
    91    87    86    1
    92    90    91   ar
    93    32    33    1
    94    32    31    1
    95    86    85    1
    96   109   106    1
    97    22    21    1
    98    22    25    1
    99    22    23    1
   100    85    83   am
   101    30    29    2
   102    25    26    1
   103   105   106    1
   104   106   107    1
   105    29    28    1
   106    19    20    1
   107    23    24    2
   108    31    28    1
   109    83    82    1
   110    83    84    2
   111    82    81    1
   112    28    27    1
   113   107   108    2
   114   107   117   am
   115   117   118    1
   116   128   129    1
   117   128   127    1
   118   120   119    2
   119   118   119    1
   120   118   121    1
   121   119   122   am
   122   127   126    1
   123   122   123    1
   124   123   126    1
   125   123   124    1
   126   124   125    2
