@<TRIPOS>MOLECULE
tmp/5mhfA02.pdb
 94 93 0 0 0
SMALL
GASTEIGER

@<TRIPOS>ATOM
      1  N         37.8820   -6.6770   37.8010 N.3     3  TRP3       -0.1241
      2  CA        37.0130   -5.5620   37.4650 C.3     3  TRP3        0.1605
      3  C         37.4920   -4.2600   38.0940 C.2     3  TRP3        0.2264
      4  O         37.1330   -3.1840   37.6100 O.2     3  TRP3       -0.2867
      5  CB        35.5670   -5.8710   37.8430 C.3     3  TRP3        0.0550
      6  CG        34.5880   -5.0050   37.1090 C.ar    3  TRP3        0.0003
      7  CD1       34.1360   -5.1760   35.8340 C.ar    3  TRP3        0.0946
      8  CD2       33.9970   -3.7930   37.5880 C.ar    3  TRP3        0.0152
      9  NE1       33.2680   -4.1620   35.5000 N.ar    3  TRP3       -0.2442
     10  CE2       33.1610   -3.3000   36.5610 C.ar    3  TRP3        0.0810
     11  CE3       34.0790   -3.0800   38.7960 C.ar    3  TRP3        0.0012
     12  CZ2       32.4130   -2.1270   36.7040 C.ar    3  TRP3        0.0191
     13  CZ3       33.3390   -1.9190   38.9380 C.ar    3  TRP3        0.0001
     14  CH2       32.5180   -1.4520   37.9010 C.ar    3  TRP3        0.0015
     15  N         40.0140   -2.9560   35.5410 N.3     6  VAL6       -0.1231
     16  CA        39.2740   -2.4010   34.4140 C.3     6  VAL6        0.1692
     17  C         38.8620   -0.9760   34.7610 C.2     6  VAL6        0.2591
     18  O         39.0030   -0.0870   33.9190 O.2     6  VAL6       -0.2718
     19  CB        38.0540   -3.2950   34.0490 C.3     6  VAL6        0.0266
     20  CG1       36.9660   -2.5220   33.2930 C.3     6  VAL6        0.0020
     21  CG2       38.5030   -4.5190   33.2580 C.3     6  VAL6        0.0020
     22  N         38.3670   -0.7440   35.9850 N.am    7  ARG7       -0.1980
     23  CA        37.9110    0.5970   36.3100 C.3     7  ARG7        0.1597
     24  C         39.0880    1.5410   36.4270 C.2     7  ARG7        0.2287
     25  O         38.9450    2.6710   36.0040 O.2     7  ARG7       -0.2864
     26  CB        36.9360    0.6530   37.5110 C.3     7  ARG7        0.0334
     27  CG        35.6850    1.4980   37.1860 C.3     7  ARG7        0.0492
     28  CD        34.7400    1.7380   38.3730 C.3     7  ARG7        0.2205
     29  NE        33.9840    2.9920   38.2310 N.pl3   7  ARG7       -0.0865
     30  CZ        33.1060    3.4700   39.1140 C.cat   7  ARG7        0.5346
     31  NH1       32.8500    2.8050   40.2350 N.pl3   7  ARG7        0.1354
     32  NH2       32.4650    4.6120   38.8740 N.pl3   7  ARG7        0.1354
     33  N         39.9890    3.0200   33.1560 N.3    10  LEU10      -0.1231
     34  CA        38.9690    3.9920   32.7730 C.3    10  LEU10       0.1693
     35  C         38.7860    5.1450   33.7890 C.2    10  LEU10       0.2593
     36  O         37.8090    5.8850   33.6930 O.2    10  LEU10      -0.2718
     37  CB        37.6320    3.2550   32.5490 C.3    10  LEU10       0.0284
     38  CG        37.6210    2.0610   31.5900 C.3    10  LEU10       0.0019
     39  CD1       36.3330    1.2450   31.7580 C.3    10  LEU10       0.0001
     40  CD2       37.8110    2.5240   30.1260 C.3    10  LEU10       0.0001
     41  N         39.7440    5.3290   34.7060 N.am   11  THR11      -0.1939
     42  CA        39.7160    6.3760   35.7400 C.3    11  THR11       0.2028
     43  C         40.8590    7.3610   35.4680 C.2    11  THR11       0.2642
     44  O         41.9350    6.9280   35.0720 O.2    11  THR11      -0.2714
     45  CB        39.8530    5.7160   37.1570 C.3    11  THR11       0.1808
     46  OG1       38.7490    4.8380   37.3850 O.3    11  THR11      -0.2208
     47  CG2       39.9220    6.7310   38.2980 C.3    11  THR11       0.0379
     48  N         40.6330    8.6760   35.7090 N.am   12  LEU12      -0.1977
     49  CA        41.6660    9.7120   35.5440 C.3    12  LEU12       0.1596
     50  C         42.7000    9.5440   36.6570 C.2    12  LEU12       0.2287
     51  O         42.3550    9.0950   37.7490 O.2    12  LEU12      -0.2864
     52  CB        41.0830   11.1490   35.5880 C.3    12  LEU12       0.0297
     53  CG        40.0110   11.5280   34.5340 C.3    12  LEU12       0.0022
     54  CD1       39.4880   12.9280   34.7810 C.3    12  LEU12       0.0001
     55  CD2       40.5630   11.4500   33.1280 C.3    12  LEU12       0.0001
     56  N         36.4780   18.8840   23.5940 N.3   316  TYR316     -0.1241
     57  CA        35.8700   18.4140   24.8430 C.3   316  TYR316      0.1605
     58  C         34.9910   17.1940   24.5840 C.2   316  TYR316      0.2264
     59  O         34.1670   17.2180   23.6790 O.2   316  TYR316     -0.2867
     60  CB        35.0570   19.5260   25.5580 C.3   316  TYR316      0.0534
     61  CG        34.6170   19.1250   26.9550 C.ar  316  TYR316     -0.0201
     62  CD1       35.4700   19.2760   28.0470 C.ar  316  TYR316     -0.0009
     63  CD2       33.3730   18.5370   27.1750 C.ar  316  TYR316     -0.0009
     64  CE1       35.0950   18.8610   29.3260 C.ar  316  TYR316      0.0417
     65  CE2       32.9880   18.1130   28.4500 C.ar  316  TYR316      0.0417
     66  CZ        33.8510   18.2840   29.5240 C.ar  316  TYR316      0.1957
     67  OH        33.4660   17.8950   30.7880 O.3   316  TYR316     -0.2866
     68  N         34.6680    0.8520   26.0000 N.3   328  ALA328     -0.1231
     69  CA        34.1040    1.6410   27.0810 C.3   328  ALA328      0.1694
     70  C         34.4180    3.1350   26.8790 C.2   328  ALA328      0.2591
     71  O         35.3790    3.4830   26.1950 O.2   328  ALA328     -0.2718
     72  CB        34.6890    1.1580   28.3960 C.3   328  ALA328      0.0304
     73  N         33.6360    4.0060   27.5020 N.am  329  LEU329     -0.1980
     74  CA        33.8520    5.4540   27.4560 C.3   329  LEU329      0.1596
     75  C         34.8180    5.8900   28.5560 C.2   329  LEU329      0.2287
     76  O         34.7670    5.3690   29.6620 O.2   329  LEU329     -0.2864
     77  CB        32.5040    6.2190   27.5870 C.3   329  LEU329      0.0297
     78  CG        31.5200    6.1060   26.3870 C.3   329  LEU329      0.0022
     79  CD1       30.2250    6.7380   26.7000 C.3   329  LEU329      0.0001
     80  CD2       32.0900    6.7760   25.1160 C.3   329  LEU329      0.0001
     81  N         36.3730    9.1960   31.0300 N.3   331  PRO331     -0.2103
     82  CA        35.6750   10.3840   31.5700 C.3   331  PRO331      0.1489
     83  C         35.7570   11.6180   30.6500 C.2   331  PRO331      0.2417
     84  O         36.7170   11.6980   29.8850 O.2   331  PRO331     -0.2734
     85  CB        36.3820   10.6140   32.9250 C.3   331  PRO331      0.0282
     86  CG        36.9620    9.3050   33.2910 C.3   331  PRO331      0.0208
     87  CD        37.4370    8.7630   31.9630 C.3   331  PRO331      0.0893
     88  N         34.7630   12.5510   30.6490 N.am  332  PRO332     -0.2729
     89  CA        34.8810   13.7410   29.7700 C.3   332  PRO332      0.1401
     90  C         36.0620   14.6110   30.1750 C.2   332  PRO332      0.2269
     91  O         36.3170   14.8000   31.3710 O.2   332  PRO332     -0.2865
     92  CB        33.5490   14.4780   29.9360 C.3   332  PRO332      0.0296
     93  CG        32.8800   13.8720   31.1060 C.3   332  PRO332      0.0237
     94  CD        33.5600   12.6100   31.5110 C.3   332  PRO332      0.0939
@<TRIPOS>BOND
     1    56    57    1
     2    59    58    2
     3    58    57    1
     4    57    60    1
     5    80    78    1
     6    60    61    1
     7    68    69    1
     8    71    70    2
     9    78    79    1
    10    78    77    1
    11    70    69    1
    12    70    73   am
    13    61    63   ar
    14    61    62   ar
    15    69    72    1
    16    63    65   ar
    17    74    73    1
    18    74    77    1
    19    74    75    1
    20    62    64   ar
    21    65    66   ar
    22    75    76    2
    23    64    66   ar
    24    66    67    1
    25    89    92    1
    26    89    90    1
    27    89    88    1
    28    84    83    2
    29    92    93    1
    30    40    38    1
    31    90    91    2
    32    88    83   am
    33    88    94    1
    34    83    82    1
    35    81    82    1
    36    81    87    1
    37    93    94    1
    38    82    85    1
    39    38    39    1
    40    38    37    1
    41    87    86    1
    42    37    34    1
    43    34    33    1
    44    34    35    1
    45    85    86    1
    46    55    53    1
    47    21    19    1
    48    20    19    1
    49    36    35    2
    50    35    41   am
    51    18    17    2
    52    19    16    1
    53    16    17    1
    54    16    15    1
    55    53    54    1
    56    53    52    1
    57    41    42    1
    58    17    22   am
    59    44    43    2
    60    43    48   am
    61    43    42    1
    62     9     7   ar
    63     9    10   ar
    64    49    52    1
    65    49    48    1
    66    49    50    1
    67    42    45    1
    68     7     6   ar
    69    22    23    1
    70    25    24    2
    71    23    24    1
    72    23    26    1
    73    10    12   ar
    74    10     8   ar
    75    50    51    2
    76    12    14   ar
    77     6     8   ar
    78     6     5    1
    79    45    46    1
    80    45    47    1
    81    27    26    1
    82    27    28    1
    83     2     1    1
    84     2     5    1
    85     2     3    1
    86     8    11   ar
    87     4     3    2
    88    14    13   ar
    89    29    28    1
    90    29    30    2
    91    11    13   ar
    92    32    30    1
    93    30    31    1
