@<TRIPOS>MOLECULE
tmp/5mhfD01.pdb
 197 195 0 0 0
SMALL
GASTEIGER

@<TRIPOS>ATOM
      1  N         10.9370   10.0320    5.7680 N.3    80  GLU80      -0.1245
      2  CA        10.9760   11.3430    6.4380 C.3    80  GLU80       0.1567
      3  C          9.5670   11.9480    6.3380 C.2    80  GLU80       0.2260
      4  O          9.0400   12.0220    5.2350 O.2    80  GLU80      -0.2867
      5  CB        12.0500   12.2610    5.8040 C.3    80  GLU80       0.0388
      6  CG        13.4510   11.6600    5.7230 C.3    80  GLU80       0.1160
      7  CD        14.1980   11.3510    7.0120 C.2    80  GLU80       0.3649
      8  OE1       15.1010   10.4850    6.9620 O.co2  80  GLU80      -0.2457
      9  OE2       13.9190   11.9860    8.0560 O.co2  80  GLU80      -0.2457
     10  N          6.9460    1.9520   16.9590 N.3   357  PRO357     -0.2116
     11  CA         5.7100    2.7630   16.9610 C.3   357  PRO357      0.1372
     12  C          5.3710    3.4480   15.6380 C.2   357  PRO357      0.2244
     13  O          4.1860    3.5470   15.3050 O.2   357  PRO357     -0.2868
     14  CB         5.9410    3.7770   18.0980 C.3   357  PRO357      0.0268
     15  CG         7.0610    3.1540   18.9520 C.3   357  PRO357      0.0207
     16  CD         7.9370    2.5060   17.9060 C.3   357  PRO357      0.0892
     17  N          8.1310    6.5390   10.4120 N.3   360  SER360     -0.1202
     18  CA         8.6160    7.9340   10.3500 C.3   360  SER360      0.2020
     19  C          9.7000    8.2690   11.4150 C.2   360  SER360      0.2619
     20  O         10.3700    9.3020   11.3030 O.2   360  SER360     -0.2717
     21  CB         7.4480    8.9010   10.5230 C.3   360  SER360      0.2103
     22  OG         6.4960    8.6850    9.5030 O.3   360  SER360     -0.2182
     23  N          9.8610    7.3950   12.4260 N.am  361  PHE361     -0.1961
     24  CA        10.8230    7.5070   13.5420 C.3   361  PHE361      0.1771
     25  C         12.1730    6.8410   13.2140 C.2   361  PHE361      0.2619
     26  O         12.2120    5.8670   12.4480 O.2   361  PHE361     -0.2715
     27  CB        10.2710    6.7800   14.7970 C.3   361  PHE361      0.0574
     28  CG         9.1440    7.3580   15.6270 C.ar  361  PHE361     -0.0200
     29  CD1        8.6100    8.6080   15.3380 C.ar  361  PHE361     -0.0042
     30  CD2        8.6450    6.6640   16.7270 C.ar  361  PHE361     -0.0042
     31  CE1        7.5770    9.1400   16.1200 C.ar  361  PHE361     -0.0003
     32  CE2        7.6100    7.1930   17.5010 C.ar  361  PHE361     -0.0003
     33  CZ         7.0840    8.4290   17.1950 C.ar  361  PHE361     -0.0000
     34  N         13.2630    7.2590   13.8800 N.am  362  PHE362     -0.1974
     35  CA        14.5540    6.5760   13.7370 C.3   362  PHE362      0.1639
     36  C         14.3700    5.1230   14.2490 C.2   362  PHE362      0.2290
     37  O         13.5220    4.9220   15.1190 O.2   362  PHE362     -0.2864
     38  CB        15.6580    7.3470   14.4570 C.3   362  PHE362      0.0560
     39  CG        15.8830    8.7240   13.8600 C.ar  362  PHE362     -0.0200
     40  CD1       16.0460    8.8900   12.4810 C.ar  362  PHE362     -0.0042
     41  CD2       15.9770    9.8490   14.6770 C.ar  362  PHE362     -0.0042
     42  CE1       16.2800   10.1600   11.9350 C.ar  362  PHE362     -0.0003
     43  CE2       16.2210   11.1160   14.1310 C.ar  362  PHE362     -0.0003
     44  CZ        16.3610   11.2640   12.7670 C.ar  362  PHE362     -0.0000
     45  N         13.9250    2.4790   16.3830 N.3   364  ARG364     -0.1245
     46  CA        14.0780    2.2790   17.8410 C.3   364  ARG364      0.1563
     47  C         12.9590    1.4760   18.5180 C.2   364  ARG364      0.2260
     48  O         11.8080    1.5210   18.0940 O.2   364  ARG364     -0.2867
     49  CB        14.1880    3.6510   18.5440 C.3   364  ARG364      0.0307
     50  CG        15.3650    4.5090   18.0710 C.3   364  ARG364      0.0489
     51  CD        15.1880    5.9390   18.5380 C.3   364  ARG364      0.2205
     52  NE        16.2710    6.7860   18.0350 N.pl3 364  ARG364     -0.0865
     53  CZ        16.5720    7.9870   18.5190 C.cat 364  ARG364      0.5346
     54  NH1       15.9180    8.4720   19.5670 N.pl3 364  ARG364      0.1354
     55  NH2       17.5640    8.6910   17.9920 N.pl3 364  ARG364      0.1354
     56  N         10.5640    0.8290   21.9150 N.3   366  PHE366     -0.1241
     57  CA         9.9640    1.5510   23.0450 C.3   366  PHE366      0.1605
     58  C          9.2400    0.5260   23.9070 C.2   366  PHE366      0.2264
     59  O          8.3880   -0.2130   23.4070 O.2   366  PHE366     -0.2867
     60  CB         9.0140    2.6760   22.5840 C.3   366  PHE366      0.0534
     61  CG         9.6910    3.8660   21.9440 C.ar  366  PHE366     -0.0203
     62  CD1       10.0830    3.8300   20.6100 C.ar  366  PHE366     -0.0042
     63  CD2        9.9500    5.0180   22.6800 C.ar  366  PHE366     -0.0042
     64  CE1       10.7150    4.9300   20.0170 C.ar  366  PHE366     -0.0003
     65  CE2       10.5260    6.1390   22.0700 C.ar  366  PHE366     -0.0003
     66  CZ        10.9050    6.0880   20.7400 C.ar  366  PHE366     -0.0000
     67  N          6.9520    0.4170   26.7560 N.3   368  TRP368     -0.1227
     68  CA         5.5030    0.2400   26.9920 C.3   368  TRP368      0.1737
     69  C          4.7020    0.1410   25.6730 C.2   368  TRP368      0.2595
     70  O          3.6580   -0.4930   25.6650 O.2   368  TRP368     -0.2718
     71  CB         4.8970    1.2520   27.9890 C.3   368  TRP368      0.0564
     72  CG         4.3250    2.5450   27.4560 C.ar  368  TRP368      0.0003
     73  CD1        5.0010    3.5200   26.7780 C.ar  368  TRP368      0.0946
     74  CD2        3.0180    3.0930   27.7480 C.ar  368  TRP368      0.0152
     75  NE1        4.1730    4.6010   26.5440 N.ar  368  TRP368     -0.2442
     76  CE2        2.9620    4.3810   27.1610 C.ar  368  TRP368      0.0810
     77  CE3        1.8840    2.6100   28.4240 C.ar  368  TRP368      0.0012
     78  CZ2        1.8450    5.2110   27.2820 C.ar  368  TRP368      0.0191
     79  CZ3        0.7780    3.4340   28.5460 C.ar  368  TRP368      0.0001
     80  CH2        0.7550    4.7100   27.9560 C.ar  368  TRP368      0.0015
     81  N          5.2370    0.6600   24.5490 N.am  369  ASP369     -0.1974
     82  CA         4.5580    0.5110   23.2500 C.3   369  ASP369      0.1709
     83  C          4.5460   -0.9640   22.8420 C.2   369  ASP369      0.2293
     84  O          3.5190   -1.4410   22.3750 O.2   369  ASP369     -0.2864
     85  CB         5.2530    1.3230   22.1620 C.3   369  ASP369      0.1436
     86  CG         5.2590    2.8050   22.3920 C.2   369  ASP369      0.3671
     87  OD1        5.8260    3.2350   23.4120 O.co2 369  ASP369     -0.2456
     88  OD2        4.7320    3.5420   21.5260 O.co2 369  ASP369     -0.2456
     89  N         13.7840    3.3530   25.9910 N.3   405  GLU405     -0.1245
     90  CA        13.9990    3.6160   24.5670 C.3   405  GLU405      0.1567
     91  C         15.3140    2.9450   24.1420 C.2   405  GLU405      0.2260
     92  O         16.3740    3.2730   24.6730 O.2   405  GLU405     -0.2867
     93  CB        14.0330    5.1220   24.3070 C.3   405  GLU405      0.0388
     94  CG        13.9810    5.5170   22.8370 C.3   405  GLU405      0.1160
     95  CD        13.9060    7.0230   22.6220 C.2   405  GLU405      0.3649
     96  OE1       13.6100    7.7660   23.5860 O.co2 405  GLU405     -0.2457
     97  OE2       14.1120    7.4590   21.4680 O.co2 405  GLU405     -0.2457
     98  N          9.1390    2.5950   32.9610 N.3   429  ASN429     -0.1240
     99  CA         8.1010    2.6950   31.9200 C.3   429  ASN429      0.1653
    100  C          7.0110    1.6840   32.2850 C.2   429  ASN429      0.2266
    101  O          7.3470    0.6750   32.9250 O.2   429  ASN429     -0.2867
    102  CB         8.6970    2.4090   30.5180 C.3   429  ASN429      0.1155
    103  CG         8.1690    3.2530   29.3660 C.2   429  ASN429      0.2627
    104  OD1        8.1070    2.7840   28.2330 O.2   429  ASN429     -0.2716
    105  ND2        7.8920    4.5450   29.5660 N.am  429  ASN429     -0.0877
    106  N          4.9240    7.5800   30.3710 N.3   496  GLY496     -0.1225
    107  CA         4.3930    7.4220   29.0160 C.3   496  GLY496      0.1811
    108  C          3.3690    8.4890   28.6720 C.2   496  GLY496      0.2280
    109  O          3.0960    8.7260   27.5000 O.2   496  GLY496     -0.2866
    110  N          3.5000   11.8330   28.7920 N.3   498  ASP498     -0.1239
    111  CA         4.4670   12.9370   28.8000 C.3   498  ASP498      0.1674
    112  C          4.0130   14.1910   29.5350 C.2   498  ASP498      0.2266
    113  O          4.5700   14.4820   30.5970 O.2   498  ASP498     -0.2867
    114  CB         4.9280   13.3140   27.3740 C.3   498  ASP498      0.1410
    115  CG         5.6240   12.2560   26.5200 C.2   498  ASP498      0.3668
    116  OD1        5.5480   11.0540   26.8650 O.co2 498  ASP498     -0.2456
    117  OD2        6.2160   12.6280   25.4860 O.co2 498  ASP498     -0.2456
    118  N         -0.2800   17.4750   24.2400 N.3   662  TYR662     -0.1227
    119  CA        -0.0330   16.1200   23.7330 C.3   662  TYR662      0.1736
    120  C         -1.0080   15.1140   24.3520 C.2   662  TYR662      0.2595
    121  O         -1.7260   14.4370   23.6250 O.2   662  TYR662     -0.2718
    122  CB         1.4360   15.7690   24.0480 C.3   662  TYR662      0.0548
    123  CG         2.1370   14.7490   23.1780 C.ar  662  TYR662     -0.0200
    124  CD1        1.5730   14.3100   21.9810 C.ar  662  TYR662     -0.0009
    125  CD2        3.3930   14.2570   23.5270 C.ar  662  TYR662     -0.0009
    126  CE1        2.2390   13.3860   21.1680 C.ar  662  TYR662      0.0417
    127  CE2        4.0720   13.3580   22.7140 C.ar  662  TYR662      0.0417
    128  CZ         3.4950   12.9230   21.5380 C.ar  662  TYR662      0.1957
    129  OH         4.2020   12.0480   20.7570 O.3   662  TYR662     -0.2866
    130  N         -1.0340   15.0300   25.6840 N.am  663  TRP663     -0.1976
    131  CA        -1.9570   14.1790   26.4550 C.3   663  TRP663      0.1640
    132  C         -2.8970   15.1020   27.2540 C.2   663  TRP663      0.2290
    133  O         -3.1640   14.8590   28.4340 O.2   663  TRP663     -0.2864
    134  CB        -1.1640   13.2640   27.4070 C.3   663  TRP663      0.0576
    135  CG        -0.3370   12.2080   26.7230 C.ar  663  TRP663      0.0006
    136  CD1        0.9210   12.3490   26.2120 C.ar  663  TRP663      0.0946
    137  CD2       -0.7140   10.8370   26.4920 C.ar  663  TRP663      0.0152
    138  NE1        1.3400   11.1600   25.6450 N.ar  663  TRP663     -0.2442
    139  CE2        0.3810   10.2020   25.8590 C.ar  663  TRP663      0.0810
    140  CE3       -1.8700   10.0840   26.7690 C.ar  663  TRP663      0.0012
    141  CZ2        0.3630    8.8460   25.5140 C.ar  663  TRP663      0.0191
    142  CZ3       -1.8870    8.7400   26.4240 C.ar  663  TRP663      0.0001
    143  CH2       -0.7840    8.1350   25.8040 C.ar  663  TRP663      0.0015
    144  N         -6.3690    8.8270   22.3720 N.3   668  TRP668     -0.1241
    145  CA        -5.2950    7.8660   22.1570 C.3   668  TRP668      0.1605
    146  C         -5.8900    6.4610   22.1170 C.2   668  TRP668      0.2264
    147  O         -6.6810    6.1060   22.9860 O.2   668  TRP668     -0.2867
    148  CB        -4.2120    7.9860   23.2660 C.3   668  TRP668      0.0550
    149  CG        -3.4240    9.2630   23.2430 C.ar  668  TRP668      0.0003
    150  CD1       -3.8180   10.4800   23.7290 C.ar  668  TRP668      0.0946
    151  CD2       -2.0880    9.4410   22.7410 C.ar  668  TRP668      0.0152
    152  NE1       -2.8050   11.4010   23.5790 N.ar  668  TRP668     -0.2442
    153  CE2       -1.7200   10.7850   22.9950 C.ar  668  TRP668      0.0810
    154  CE3       -1.1430    8.5790   22.1450 C.ar  668  TRP668      0.0012
    155  CZ2       -0.4340   11.2830   22.6990 C.ar  668  TRP668      0.0191
    156  CZ3        0.1360    9.0690   21.8510 C.ar  668  TRP668      0.0001
    157  CH2        0.4820   10.4020   22.1380 C.ar  668  TRP668      0.0015
    158  N         -1.0900    8.6800   15.1600 N.3   719  GLU719     -0.1196
    159  CA        -0.6590    8.6260   16.5670 C.3   719  GLU719      0.1783
    160  C         -1.7950    8.9710   17.5430 C.2   719  GLU719      0.2306
    161  O         -1.9050    8.3740   18.6190 O.2   719  GLU719     -0.2863
    162  CB         0.5080    9.5930   16.7530 C.2   719  GLU719      0.0071
    163  CG         1.1960    9.5180   18.1000 C.2   719  GLU719      0.0834
    164  CD         2.2900   10.5410   18.3230 C.2   719  GLU719      0.3877
    165  OE1        2.2600   11.6160   17.6830 O.co2 719  GLU719     -0.2406
    166  OE2        3.1530   10.2870   19.1920 O.co2 719  GLU719     -0.2406
    167  N          2.2050   11.9780   14.6020 N.3   731  CYS731     -0.1235
    168  CA         2.9700   11.1480   13.6730 C.3   731  CYS731      0.1677
    169  C          2.1130   10.0890   12.9550 C.2   731  CYS731      0.2270
    170  O          1.1340    9.6030   13.5140 O.2   731  CYS731     -0.2867
    171  CB         4.1750   10.5270   14.3750 C.3   731  CYS731      0.0956
    172  SG         4.9950   11.6230   15.5680 S.3   731  CYS731     -0.0801
    173  N          1.1730    5.2710   12.2520 N.3   734  PHE734     -0.1241
    174  CA         1.4520    4.9240   13.6340 C.3   734  PHE734      0.1605
    175  C          1.0210    3.4990   13.8880 C.2   734  PHE734      0.2264
    176  O         -0.0410    3.2450   14.4440 O.2   734  PHE734     -0.2867
    177  CB         0.8120    5.9140   14.6150 C.3   734  PHE734      0.0534
    178  CG         1.3880    5.7950   16.0120 C.ar  734  PHE734     -0.0203
    179  CD1        2.6500    6.3110   16.3110 C.ar  734  PHE734     -0.0042
    180  CD2        0.6920    5.1370   17.0120 C.ar  734  PHE734     -0.0042
    181  CE1        3.1910    6.1830   17.5970 C.ar  734  PHE734     -0.0003
    182  CE2        1.2240    5.0150   18.2940 C.ar  734  PHE734     -0.0003
    183  CZ         2.4790    5.5230   18.5810 C.ar  734  PHE734     -0.0000
    184  N          0.5120    1.3050   18.3390 N.3   737  TRP737     -0.1241
    185  CA        -0.6460    0.7840   19.0620 C.3   737  TRP737      0.1605
    186  C         -2.0080    1.1830   18.4060 C.2   737  TRP737      0.2264
    187  O         -3.0520    0.6400   18.7930 O.2   737  TRP737     -0.2867
    188  CB        -0.5910    1.1430   20.5580 C.3   737  TRP737      0.0550
    189  CG        -0.4970    2.6050   20.8830 C.ar  737  TRP737      0.0003
    190  CD1       -1.2900    3.6110   20.4110 C.ar  737  TRP737      0.0946
    191  CD2        0.3790    3.2010   21.8500 C.ar  737  TRP737      0.0152
    192  NE1       -0.9740    4.7950   21.0340 N.ar  737  TRP737     -0.2442
    193  CE2        0.0890    4.5860   21.8800 C.ar  737  TRP737      0.0810
    194  CE3        1.3850    2.6990   22.6880 C.ar  737  TRP737      0.0012
    195  CZ2        0.7800    5.4800   22.7090 C.ar  737  TRP737      0.0191
    196  CZ3        2.0520    3.5790   23.5310 C.ar  737  TRP737      0.0001
    197  CH2        1.7620    4.9540   23.5250 C.ar  737  TRP737      0.0015
@<TRIPOS>BOND
     1     4     3    2
     2     6     5    1
     3     6     7    1
     4     1     2    1
     5     5     2    1
     6     3     2    1
     7     8     7   ar
     8     7     9   ar
     9    22    21    1
    10    18    17    1
    11    18    21    1
    12    18    19    1
    13    20    19    2
    14    19    23   am
    15    42    40   ar
    16    42    44   ar
    17   173   174    1
    18    23    24    1
    19    26    25    2
    20    40    39   ar
    21    44    43   ar
    22   169   170    2
    23   169   168    1
    24    25    24    1
    25    25    34   am
    26    24    27    1
    27   174   175    1
    28   174   177    1
    29   168   171    1
    30   168   167    1
    31    35    34    1
    32    35    36    1
    33    35    38    1
    34    39    38    1
    35    39    41   ar
    36   175   176    2
    37    43    41   ar
    38    36    37    2
    39   171   172    1
    40   177   178    1
    41    27    28    1
    42   158   159    1
    43    13    12    2
    44    29    28   ar
    45    29    31   ar
    46    28    30   ar
    47    12    11    1
    48   178   179   ar
    49   178   180   ar
    50    31    33   ar
    51   179   181   ar
    52    45    46    1
    53   159   162    1
    54   159   160    1
    55    30    32   ar
    56   162   163    2
    57    10    11    1
    58    10    16    1
    59    11    14    1
    60   180   182   ar
    61    33    32   ar
    62   160   161    2
    63   181   183   ar
    64   165   164   ar
    65    46    47    1
    66    46    49    1
    67    16    15    1
    68    55    53    1
    69    52    53    2
    70    52    51    1
    71    50    51    1
    72    50    49    1
    73    48    47    2
    74    14    15    1
    75   163   164    1
    76   182   183   ar
    77   164   166   ar
    78   184   185    1
    79   186   187    2
    80   186   185    1
    81    53    54    1
    82   185   188    1
    83    64    62   ar
    84    64    66   ar
    85   190   189   ar
    86   190   192   ar
    87   188   189    1
    88    62    61   ar
    89    66    65   ar
    90   129   128    1
    91   189   191   ar
    92   192   193   ar
    93   126   128   ar
    94   126   124   ar
    95    97    95   ar
    96    88    86   ar
    97   128   127   ar
    98   191   193   ar
    99   191   194   ar
   100   156   157   ar
   101   156   154   ar
   102   193   195   ar
   103    56    57    1
   104    61    60    1
   105    61    63   ar
   106   124   123   ar
   107    65    63   ar
   108   146   145    1
   109   146   147    2
   110   157   155   ar
   111   154   151   ar
   112   145   144    1
   113   145   148    1
   114    85    86    1
   115    85    82    1
   116    84    83    2
   117    86    87   ar
   118    60    57    1
   119    95    94    1
   120    95    96   ar
   121   194   196   ar
   122   155   153   ar
   123   195   197   ar
   124   127   125   ar
   125   151   153   ar
   126   151   149   ar
   127    94    93    1
   128    83    82    1
   129   153   152   ar
   130    57    58    1
   131   123   125   ar
   132   123   122    1
   133   149   148    1
   134   149   150   ar
   135    82    81    1
   136    59    58    2
   137   197   196   ar
   138   152   150   ar
   139   121   120    2
   140   119   122    1
   141   119   118    1
   142   119   120    1
   143    91    90    1
   144    91    92    2
   145    93    90    1
   146   120   130   am
   147    81    69   am
   148    90    89    1
   149   117   115   ar
   150   141   143   ar
   151   141   139   ar
   152   138   139   ar
   153   138   136   ar
   154    70    69    2
   155    69    68    1
   156   130   131    1
   157   143   142   ar
   158   139   137   ar
   159   136   135   ar
   160   142   140   ar
   161   131   132    1
   162   131   134    1
   163   137   135   ar
   164   137   140   ar
   165   115   116   ar
   166   115   114    1
   167    75    73   ar
   168    75    76   ar
   169   135   134    1
   170    67    68    1
   171    73    72   ar
   172    68    71    1
   173    76    78   ar
   174    76    74   ar
   175   132   133    2
   176    78    80   ar
   177   114   111    1
   178    72    74   ar
   179    72    71    1
   180   109   108    2
   181    74    77   ar
   182    80    79   ar
   183   104   103    2
   184    77    79   ar
   185   108   107    1
   186   110   111    1
   187   111   112    1
   188   107   106    1
   189   103   105   am
   190   103   102    1
   191   112   113    2
   192   102    99    1
   193    99   100    1
   194    99    98    1
   195   100   101    2
