@<TRIPOS>MOLECULE
tmp/5mhfA03.pdb
 81 81 0 0 0
SMALL
GASTEIGER

@<TRIPOS>ATOM
      1  N         38.3670   -0.7440   35.9850 N.3     7  ARG7       -0.1245
      2  CA        37.9110    0.5970   36.3100 C.3     7  ARG7        0.1563
      3  C         39.0880    1.5410   36.4270 C.2     7  ARG7        0.2260
      4  O         38.9450    2.6710   36.0040 O.2     7  ARG7       -0.2867
      5  CB        36.9360    0.6530   37.5110 C.3     7  ARG7        0.0307
      6  CG        35.6850    1.4980   37.1860 C.3     7  ARG7        0.0489
      7  CD        34.7400    1.7380   38.3730 C.3     7  ARG7        0.2205
      8  NE        33.9840    2.9920   38.2310 N.pl3   7  ARG7       -0.0865
      9  CZ        33.1060    3.4700   39.1140 C.cat   7  ARG7        0.5346
     10  NH1       32.8500    2.8050   40.2350 N.pl3   7  ARG7        0.1354
     11  NH2       32.4650    4.6120   38.8740 N.pl3   7  ARG7        0.1354
     12  N         39.9890    3.0200   33.1560 N.3    10  LEU10      -0.1245
     13  CA        38.9690    3.9920   32.7730 C.3    10  LEU10       0.1561
     14  C         38.7860    5.1450   33.7890 C.2    10  LEU10       0.2260
     15  O         37.8090    5.8850   33.6930 O.2    10  LEU10      -0.2867
     16  CB        37.6320    3.2550   32.5490 C.3    10  LEU10       0.0270
     17  CG        37.6210    2.0610   31.5900 C.3    10  LEU10       0.0019
     18  CD1       36.3330    1.2450   31.7580 C.3    10  LEU10       0.0001
     19  CD2       37.8110    2.5240   30.1260 C.3    10  LEU10       0.0001
     20  N         34.1780   12.5830   25.6220 N.3   318  GLN318     -0.1245
     21  CA        34.5300   11.2400   26.0830 C.3   318  GLN318      0.1566
     22  C         35.0930   10.4140   24.9070 C.2   318  GLN318      0.2260
     23  O         34.4030   10.2230   23.8900 O.2   318  GLN318     -0.2867
     24  CB        33.2990   10.5260   26.6850 C.3   318  GLN318      0.0367
     25  CG        32.7670   11.1210   27.9900 C.3   318  GLN318      0.0905
     26  CD        31.6110   10.3080   28.5310 C.2   318  GLN318      0.2608
     27  OE1       30.4700   10.5490   28.1880 O.2   318  GLN318     -0.2717
     28  NE2       31.8620    9.3320   29.3810 N.am  318  GLN318     -0.0878
     29  N         34.7770   -5.5040   25.4230 N.3   326  ASP326     -0.1225
     30  CA        34.0680   -4.5000   24.6310 C.3   326  ASP326      0.1790
     31  C         34.5420   -3.0640   24.8990 C.2   326  ASP326      0.2440
     32  O         35.1370   -2.8000   25.9540 O.2   326  ASP326     -0.2733
     33  CB        32.5430   -4.6500   24.7940 C.3   326  ASP326      0.1423
     34  CG        32.0110   -5.9370   24.1690 C.2   326  ASP326      0.3668
     35  OD1       32.1610   -6.1150   22.9350 O.co2 326  ASP326     -0.2456
     36  OD2       31.4710   -6.7700   24.9040 O.co2 326  ASP326     -0.2456
     37  N         34.3370   -2.1330   23.9310 N.am  327  PRO327     -0.2718
     38  CA        34.7900   -0.7470   24.1610 C.3   327  PRO327      0.1535
     39  C         33.9940   -0.0640   25.2810 C.2   327  PRO327      0.2598
     40  O         32.8150   -0.3620   25.4850 O.2   327  PRO327     -0.2715
     41  CB        34.5430   -0.0410   22.8150 C.3   327  PRO327      0.0310
     42  CG        34.0350   -1.0570   21.8770 C.3   327  PRO327      0.0237
     43  CD        33.6530   -2.2760   22.6210 C.3   327  PRO327      0.0939
     44  N         34.6680    0.8520   26.0000 N.am  328  ALA328     -0.1964
     45  CA        34.1040    1.6410   27.0810 C.3   328  ALA328      0.1728
     46  C         34.4180    3.1350   26.8790 C.2   328  ALA328      0.2616
     47  O         35.3790    3.4830   26.1950 O.2   328  ALA328     -0.2715
     48  CB        34.6890    1.1580   28.3960 C.3   328  ALA328      0.0334
     49  N         33.6360    4.0060   27.5020 N.am  329  LEU329     -0.1963
     50  CA        33.8520    5.4540   27.4560 C.3   329  LEU329      0.1728
     51  C         34.8180    5.8900   28.5560 C.2   329  LEU329      0.2616
     52  O         34.7670    5.3690   29.6620 O.2   329  LEU329     -0.2715
     53  CB        32.5040    6.2190   27.5870 C.3   329  LEU329      0.0311
     54  CG        31.5200    6.1060   26.3870 C.3   329  LEU329      0.0022
     55  CD1       30.2250    6.7380   26.7000 C.3   329  LEU329      0.0001
     56  CD2       32.0900    6.7760   25.1160 C.3   329  LEU329      0.0001
     57  N         35.6980    6.8400   28.2540 N.am  330  PHE330     -0.1960
     58  CA        36.6490    7.4190   29.2040 C.3   330  PHE330      0.1756
     59  C         35.9450    8.6470   29.8560 C.2   330  PHE330      0.2461
     60  O         34.9780    9.1380   29.2600 O.2   330  PHE330     -0.2730
     61  CB        37.8810    7.8920   28.4040 C.3   330  PHE330      0.0574
     62  CG        39.1530    8.0450   29.2140 C.ar  330  PHE330     -0.0200
     63  CD1       39.7120    6.9580   29.8770 C.ar  330  PHE330     -0.0042
     64  CD2       39.7970    9.2740   29.3050 C.ar  330  PHE330     -0.0042
     65  CE1       40.9000    7.1020   30.6240 C.ar  330  PHE330     -0.0003
     66  CE2       41.0020    9.4070   30.0200 C.ar  330  PHE330     -0.0003
     67  CZ        41.5440    8.3220   30.6690 C.ar  330  PHE330     -0.0000
     68  N         36.3730    9.1960   31.0300 N.am  331  PRO331     -0.2716
     69  CA        35.6750   10.3840   31.5700 C.3   331  PRO331      0.1521
     70  C         35.7570   11.6180   30.6500 C.2   331  PRO331      0.2440
     71  O         36.7170   11.6980   29.8850 O.2   331  PRO331     -0.2731
     72  CB        36.3820   10.6140   32.9250 C.3   331  PRO331      0.0310
     73  CG        36.9620    9.3050   33.2910 C.3   331  PRO331      0.0237
     74  CD        37.4370    8.7630   31.9630 C.3   331  PRO331      0.0939
     75  N         34.7630   12.5510   30.6490 N.am  332  PRO332     -0.2727
     76  CA        34.8810   13.7410   29.7700 C.3   332  PRO332      0.1402
     77  C         36.0620   14.6110   30.1750 C.2   332  PRO332      0.2269
     78  O         36.3170   14.8000   31.3710 O.2   332  PRO332     -0.2865
     79  CB        33.5490   14.4780   29.9360 C.3   332  PRO332      0.0296
     80  CG        32.8800   13.8720   31.1060 C.3   332  PRO332      0.0237
     81  CD        33.5600   12.6100   31.5110 C.3   332  PRO332      0.0939
@<TRIPOS>BOND
     1    42    43    1
     2    42    41    1
     3    43    37    1
     4    41    38    1
     5    35    34   ar
     6    23    22    2
     7    37    38    1
     8    37    31   am
     9    38    39    1
    10    34    33    1
    11    34    36   ar
    12    30    33    1
    13    30    31    1
    14    30    29    1
    15    31    32    2
    16    22    21    1
    17    56    54    1
    18    39    40    2
    19    39    44   am
    20    20    21    1
    21    44    45    1
    22    21    24    1
    23    47    46    2
    24    54    55    1
    25    54    53    1
    26    24    25    1
    27    46    45    1
    28    46    49   am
    29    45    48    1
    30    50    49    1
    31    50    53    1
    32    50    51    1
    33    25    26    1
    34    27    26    2
    35    57    51   am
    36    57    58    1
    37    61    58    1
    38    61    62    1
    39    26    28   am
    40    51    52    2
    41    58    59    1
    42    62    64   ar
    43    62    63   ar
    44    60    59    2
    45    64    66   ar
    46    76    79    1
    47    76    77    1
    48    76    75    1
    49    59    68   am
    50    63    65   ar
    51    71    70    2
    52    79    80    1
    53    66    67   ar
    54    19    17    1
    55    77    78    2
    56    65    67   ar
    57    75    70   am
    58    75    81    1
    59    70    69    1
    60    68    69    1
    61    68    74    1
    62    80    81    1
    63    69    72    1
    64    17    18    1
    65    17    16    1
    66    74    73    1
    67    16    13    1
    68    13    12    1
    69    13    14    1
    70    72    73    1
    71    15    14    2
    72     1     2    1
    73     4     3    2
    74     2     3    1
    75     2     5    1
    76     6     5    1
    77     6     7    1
    78     8     7    1
    79     8     9    2
    80    11     9    1
    81     9    10    1
