@<TRIPOS>MOLECULE
tmp/5mhfD02.pdb
 96 93 0 0 0
SMALL
GASTEIGER

@<TRIPOS>ATOM
      1  N          5.2660    6.5890   51.4600 N.3   472  VAL472     -0.1231
      2  CA         4.5850    5.7630   52.4630 C.3   472  VAL472      0.1678
      3  C          4.3420    4.3260   51.9580 C.2   472  VAL472      0.2434
      4  O          4.3840    4.1130   50.7470 O.2   472  VAL472     -0.2733
      5  CB         3.2660    6.4240   52.9650 C.3   472  VAL472      0.0265
      6  CG1        3.5430    7.7280   53.7320 C.3   472  VAL472      0.0020
      7  CG2        2.2510    6.6130   51.8300 C.3   472  VAL472      0.0020
      8  N          4.0470    3.3420   52.8460 N.am  473  PRO473     -0.2718
      9  CA         3.8110    1.9670   52.3730 C.3   473  PRO473      0.1535
     10  C          2.6800    1.8350   51.3670 C.2   473  PRO473      0.2598
     11  O          1.6610    2.4930   51.4930 O.2   473  PRO473     -0.2715
     12  CB         3.5030    1.2010   53.6690 C.3   473  PRO473      0.0310
     13  CG         4.2930    1.9450   54.6950 C.3   473  PRO473      0.0237
     14  CD         4.0430    3.3850   54.3270 C.3   473  PRO473      0.0939
     15  N          2.8990    1.0090   50.3340 N.am  474  LEU474     -0.1978
     16  CA         1.9880    0.6960   49.2240 C.3   474  LEU474      0.1596
     17  C          1.7340    1.9090   48.3000 C.2   474  LEU474      0.2287
     18  O          0.7880    1.9030   47.5210 O.2   474  LEU474     -0.2864
     19  CB         0.6680    0.0330   49.7080 C.3   474  LEU474      0.0297
     20  CG         0.8090   -1.1860   50.6600 C.3   474  LEU474      0.0022
     21  CD1       -0.5510   -1.6120   51.2140 C.3   474  LEU474      0.0001
     22  CD2        1.5460   -2.3620   49.9690 C.3   474  LEU474      0.0001
     23  N          2.5920   11.0770   45.3020 N.3   511  ARG511     -0.1245
     24  CA         2.0080    9.7380   45.1980 C.3   511  ARG511      0.1563
     25  C          1.3400    9.6690   43.8210 C.2   511  ARG511      0.2260
     26  O          0.4820   10.5110   43.5300 O.2   511  ARG511     -0.2867
     27  CB         1.0000    9.4750   46.3370 C.3   511  ARG511      0.0307
     28  CG         1.5750    9.5800   47.7620 C.3   511  ARG511      0.0489
     29  CD         0.6830    8.9010   48.7950 C.3   511  ARG511      0.2205
     30  NE        -0.6770    9.4570   48.8580 N.pl3 511  ARG511     -0.0865
     31  CZ        -1.0580   10.4450   49.6660 C.cat 511  ARG511      0.5346
     32  NH1       -0.1830   11.0290   50.4750 N.pl3 511  ARG511      0.1354
     33  NH2       -2.3070   10.8760   49.6470 N.pl3 511  ARG511      0.1354
     34  N         -6.6710    0.6890   51.5610 N.3   554  SER554     -0.1217
     35  CA        -5.3850    1.3120   51.2500 C.3   554  SER554      0.1889
     36  C         -5.4550    2.2130   49.9880 C.2   554  SER554      0.2288
     37  O         -5.0020    3.3600   50.0480 O.2   554  SER554     -0.2866
     38  CB        -4.2730    0.2700   51.1580 C.3   554  SER554      0.2089
     39  OG        -3.0350    0.8530   50.7790 O.3   554  SER554     -0.2183
     40  N         -7.3460    5.4680   51.0400 N.3   557  GLU557     -0.1182
     41  CA        -6.4880    6.2640   51.9220 C.3   557  GLU557      0.1915
     42  C         -5.3990    6.9920   51.1200 C.2   557  GLU557      0.2634
     43  O         -5.1390    8.1600   51.3710 O.2   557  GLU557     -0.2714
     44  CB        -5.8760    5.3440   52.9970 C.2   557  GLU557      0.0085
     45  CG        -5.0110    6.0210   54.0560 C.2   557  GLU557      0.0835
     46  CD        -4.2520    5.0840   54.9840 C.2   557  GLU557      0.3877
     47  OE1       -4.5780    3.8760   55.0450 O.co2 557  GLU557     -0.2406
     48  OE2       -3.3400    5.5770   55.6850 O.co2 557  GLU557     -0.2406
     49  N         -4.8350    6.3300   50.1120 N.am  558  LEU558     -0.1977
     50  CA        -3.7570    6.9100   49.3190 C.3   558  LEU558      0.1596
     51  C         -4.1770    7.7400   48.1070 C.2   558  LEU558      0.2287
     52  O         -3.4050    8.6230   47.7090 O.2   558  LEU558     -0.2864
     53  CB        -2.7620    5.8140   48.8780 C.3   558  LEU558      0.0297
     54  CG        -2.0210    5.0520   49.9920 C.3   558  LEU558      0.0022
     55  CD1       -1.0590    4.0540   49.4060 C.3   558  LEU558      0.0001
     56  CD2       -1.2640    5.9870   50.8620 C.3   558  LEU558      0.0001
     57  N         -1.1520   12.9750   44.1910 N.3   570  PHE570     -0.1241
     58  CA        -0.9630   13.8240   45.3760 C.3   570  PHE570      0.1605
     59  C          0.4160   14.4800   45.2800 C.2   570  PHE570      0.2264
     60  O          1.3420   13.8620   44.7660 O.2   570  PHE570     -0.2867
     61  CB        -1.0020   12.9550   46.6460 C.3   570  PHE570      0.0534
     62  CG        -0.9770   13.6960   47.9750 C.ar  570  PHE570     -0.0203
     63  CD1        0.2310   14.1090   48.5470 C.ar  570  PHE570     -0.0042
     64  CD2       -2.1460   13.8920   48.7010 C.ar  570  PHE570     -0.0042
     65  CE1        0.2500   14.7850   49.7790 C.ar  570  PHE570     -0.0003
     66  CE2       -2.1250   14.5450   49.9380 C.ar  570  PHE570     -0.0003
     67  CZ        -0.9300   15.0020   50.4620 C.ar  570  PHE570     -0.0000
     68  N          0.5560   20.7020   49.9180 N.3   597  LEU597     -0.1231
     69  CA         0.3200   19.2730   49.7030 C.3   597  LEU597      0.1693
     70  C         -1.1920   18.9970   49.6550 C.2   597  LEU597      0.2592
     71  O         -1.9140   19.3330   50.5880 O.2   597  LEU597     -0.2718
     72  CB         0.9820   18.4350   50.8030 C.3   597  LEU597      0.0284
     73  CG         2.5160   18.4270   50.8130 C.3   597  LEU597      0.0019
     74  CD1        3.0340   17.8680   52.1210 C.3   597  LEU597      0.0001
     75  CD2        3.0620   17.6290   49.6530 C.3   597  LEU597      0.0001
     76  N         -1.6660   18.4480   48.5370 N.am  598  GLN598     -0.1966
     77  CA        -3.1000   18.1540   48.3170 C.3   598  GLN598      0.1733
     78  C         -3.2620   17.2570   47.0960 C.2   598  GLN598      0.2616
     79  O         -2.2990   17.0790   46.3470 O.2   598  GLN598     -0.2715
     80  CB        -3.9000   19.4650   48.0820 C.3   598  GLN598      0.0408
     81  CG        -3.4380   20.2390   46.8360 C.3   598  GLN598      0.0908
     82  CD        -4.3320   21.3910   46.5040 C.2   598  GLN598      0.2608
     83  OE1       -5.5580   21.2720   46.4330 O.2   598  GLN598     -0.2717
     84  NE2       -3.7330   22.5230   46.2380 N.am  598  GLN598     -0.0878
     85  N         -4.4920   16.7660   46.8480 N.am  599  TYR599     -0.1974
     86  CA        -4.7720   15.9810   45.6460 C.3   599  TYR599      0.1639
     87  C         -4.8120   16.9160   44.4370 C.2   599  TYR599      0.2290
     88  O         -5.2830   18.0490   44.5570 O.2   599  TYR599     -0.2864
     89  CB        -6.0750   15.1850   45.7910 C.3   599  TYR599      0.0560
     90  CG        -5.9170   13.9610   46.6750 C.ar  599  TYR599     -0.0198
     91  CD1       -5.1060   12.8930   46.2840 C.ar  599  TYR599     -0.0009
     92  CD2       -6.5780   13.8680   47.9040 C.ar  599  TYR599     -0.0009
     93  CE1       -4.9410   11.7710   47.0950 C.ar  599  TYR599      0.0417
     94  CE2       -6.4180   12.7490   48.7280 C.ar  599  TYR599      0.0417
     95  CZ        -5.6070   11.6980   48.3100 C.ar  599  TYR599      0.1957
     96  OH        -5.4530   10.5700   49.0680 O.3   599  TYR599     -0.2866
@<TRIPOS>BOND
     1    26    25    2
     2    25    24    1
     3    57    58    1
     4    87    88    2
     5    87    86    1
     6    60    59    2
     7    24    23    1
     8    24    27    1
     9    59    58    1
    10    58    61    1
    11    86    89    1
    12    86    85    1
    13    89    90    1
    14    84    82   am
    15    91    90   ar
    16    91    93   ar
    17    27    28    1
    18    79    78    2
    19    83    82    2
    20    82    81    1
    21    61    62    1
    22    90    92   ar
    23    81    80    1
    24    85    78   am
    25    93    95   ar
    26    78    77    1
    27    18    17    2
    28    52    51    2
    29    28    29    1
    30    92    94   ar
    31    62    63   ar
    32    62    64   ar
    33    80    77    1
    34    51    50    1
    35    17    16    1
    36    95    94   ar
    37    95    96    1
    38    77    76    1
    39    76    70   am
    40    63    65   ar
    41    64    66   ar
    42    29    30    1
    43    30    31    2
    44    53    50    1
    45    53    54    1
    46    16    19    1
    47    16    15    1
    48    50    49    1
    49    55    54    1
    50    33    31    1
    51    75    73    1
    52    70    69    1
    53    70    71    2
    54    31    32    1
    55    69    68    1
    56    69    72    1
    57    19    20    1
    58    65    67   ar
    59    66    67   ar
    60    22    20    1
    61    36    37    2
    62    36    35    1
    63    54    56    1
    64    49    42   am
    65    15    10   am
    66    20    21    1
    67     4     3    2
    68    39    38    1
    69    72    73    1
    70    73    74    1
    71    40    41    1
    72    42    43    2
    73    42    41    1
    74    38    35    1
    75    35    34    1
    76    10    11    2
    77    10     9    1
    78     1     2    1
    79     7     5    1
    80    41    44    1
    81     3     2    1
    82     3     8   am
    83     9     8    1
    84     9    12    1
    85     2     5    1
    86     8    14    1
    87     5     6    1
    88    44    45    2
    89    12    13    1
    90    45    46    1
    91    14    13    1
    92    46    47   ar
    93    46    48   ar
