@<TRIPOS>MOLECULE
tmp/5mhgB00.pdb
 121 117 0 0 0
SMALL
GASTEIGER

@<TRIPOS>ATOM
      1  N          5.5130  -11.0020   47.2670 N.3    33  TYR33      -0.1241
      2  CA         5.9840  -12.3210   46.8650 C.3    33  TYR33       0.1605
      3  C          5.6240  -13.3320   47.9470 C.2    33  TYR33       0.2264
      4  O          5.9910  -13.1570   49.1150 O.2    33  TYR33      -0.2867
      5  CB         7.4930  -12.3020   46.6320 C.3    33  TYR33       0.0534
      6  CG         7.9190  -11.7140   45.3060 C.ar   33  TYR33      -0.0201
      7  CD1        8.4260  -12.5240   44.2980 C.ar   33  TYR33      -0.0009
      8  CD2        7.8180  -10.3510   45.0610 C.ar   33  TYR33      -0.0009
      9  CE1        8.8210  -11.9940   43.0850 C.ar   33  TYR33       0.0417
     10  CE2        8.2090   -9.8120   43.8490 C.ar   33  TYR33       0.0417
     11  CZ         8.7100  -10.6380   42.8650 C.ar   33  TYR33       0.1957
     12  OH         9.1010  -10.1090   41.6560 O.3    33  TYR33      -0.2866
     13  N          5.6420  -17.4470   49.2540 N.3    35  SER35      -0.1217
     14  CA         6.4460  -18.6520   49.1290 C.3    35  SER35       0.1889
     15  C          6.0390  -19.6390   50.2130 C.2    35  SER35       0.2288
     16  O          5.3430  -19.2940   51.1720 O.2    35  SER35      -0.2866
     17  CB         7.9430  -18.3380   49.2190 C.3    35  SER35       0.2089
     18  OG         8.2710  -17.7870   50.4830 O.3    35  SER35      -0.2183
     19  N         13.3030  -24.0020   51.8920 N.3    47  LEU47      -0.1245
     20  CA        12.3960  -23.3470   50.9610 C.3    47  LEU47       0.1561
     21  C         11.9640  -24.3440   49.8940 C.2    47  LEU47       0.2260
     22  O         12.7970  -25.0500   49.3180 O.2    47  LEU47      -0.2867
     23  CB        13.0690  -22.1330   50.3200 C.3    47  LEU47       0.0270
     24  CG        12.2460  -21.3760   49.2760 C.3    47  LEU47       0.0019
     25  CD1       10.9840  -20.8070   49.9050 C.3    47  LEU47       0.0001
     26  CD2       13.0760  -20.2750   48.6320 C.3    47  LEU47       0.0001
     27  N          8.3580  -20.5760   45.5990 N.3    50  ALA50      -0.1231
     28  CA         8.0540  -19.1590   45.7360 C.3    50  ALA50       0.1694
     29  C          7.4220  -18.6610   44.4450 C.2    50  ALA50       0.2592
     30  O          7.6890  -19.1880   43.3620 O.2    50  ALA50      -0.2718
     31  CB         9.3050  -18.3370   46.0650 C.3    50  ALA50       0.0304
     32  N          6.5800  -17.6330   44.5730 N.am   51  ILE51      -0.1966
     33  CA         5.8810  -17.0390   43.4400 C.3    51  ILE51       0.1727
     34  C          5.9300  -15.5220   43.5720 C.2    51  ILE51       0.2616
     35  O          6.1230  -14.9740   44.6600 O.2    51  ILE51      -0.2715
     36  CB         4.4190  -17.5300   43.3360 C.3    51  ILE51       0.0290
     37  CG1        3.8120  -17.1380   41.9880 C.3    51  ILE51       0.0022
     38  CG2        3.5870  -16.9770   44.4840 C.3    51  ILE51       0.0023
     39  CD1        2.4230  -17.6960   41.7610 C.3    51  ILE51       0.0001
     40  N          5.7490  -14.8450   42.4410 N.am   52  ASN52      -0.1972
     41  CA         5.8800  -13.3960   42.3680 C.3    52  ASN52       0.1688
     42  C          4.5060  -12.7450   42.5450 C.2    52  ASN52       0.2292
     43  O          3.5590  -13.3800   43.0170 O.2    52  ASN52      -0.2864
     44  CB         6.5520  -13.0070   41.0470 C.3    52  ASN52       0.1181
     45  CG         5.7650  -13.4630   39.8350 C.2    52  ASN52       0.2629
     46  OD1        4.9230  -14.3560   39.9270 O.2    52  ASN52      -0.2716
     47  ND2        6.0410  -12.8550   38.6870 N.am   52  ASN52      -0.0877
     48  N          6.4230  -15.6010   37.1900 N.3    57  SER57      -0.1202
     49  CA         7.5820  -16.4310   37.4760 C.3    57  SER57       0.2020
     50  C          7.3820  -17.2310   38.7580 C.2    57  SER57       0.2619
     51  O          6.6450  -16.8280   39.6630 O.2    57  SER57      -0.2717
     52  CB         8.8420  -15.5710   37.5940 C.3    57  SER57       0.2103
     53  OG         9.0890  -14.8590   36.3950 O.3    57  SER57      -0.2182
     54  N          8.0510  -18.3800   38.8250 N.am   58  THR58      -0.1938
     55  CA         8.0280  -19.2350   40.0020 C.3    58  THR58       0.2028
     56  C          9.4110  -19.8390   40.1990 C.2    58  THR58       0.2642
     57  O         10.2410  -19.8520   39.2860 O.2    58  THR58      -0.2714
     58  CB         6.9780  -20.3490   39.8840 C.3    58  THR58       0.1808
     59  OG1        7.3020  -21.1980   38.7770 O.3    58  THR58      -0.2208
     60  CG2        5.5930  -19.7560   39.6760 C.3    58  THR58       0.0379
     61  N          9.6510  -20.3440   41.4070 N.am   59  TYR59      -0.1973
     62  CA        10.9370  -20.9310   41.7540 C.3    59  TYR59       0.1639
     63  C         10.7180  -22.2150   42.5390 C.2    59  TYR59       0.2290
     64  O          9.8740  -22.2650   43.4390 O.2    59  TYR59      -0.2864
     65  CB        11.7960  -19.9570   42.5700 C.3    59  TYR59       0.0560
     66  CG        13.1660  -20.4930   42.9190 C.ar   59  TYR59      -0.0198
     67  CD1       14.2460  -20.2960   42.0690 C.ar   59  TYR59      -0.0009
     68  CD2       13.3800  -21.1950   44.0980 C.ar   59  TYR59      -0.0009
     69  CE1       15.5000  -20.7830   42.3820 C.ar   59  TYR59       0.0417
     70  CE2       14.6310  -21.6870   44.4200 C.ar   59  TYR59       0.0417
     71  CZ        15.6870  -21.4780   43.5590 C.ar   59  TYR59       0.1957
     72  OH        16.9340  -21.9650   43.8750 O.3    59  TYR59      -0.2866
     73  N          6.9240  -12.5030   51.1860 N.3    99  GLY99      -0.1210
     74  CA         8.2270  -12.0690   50.7220 C.3    99  GLY99       0.1956
     75  C          8.3640  -10.5630   50.6480 C.2    99  GLY99       0.2611
     76  O          7.8570   -9.8420   51.5120 O.2    99  GLY99      -0.2717
     77  N          9.0500  -10.0760   49.6180 N.am  100  ASP100     -0.1973
     78  CA         9.2430   -8.6460   49.4470 C.3   100  ASP100      0.1709
     79  C          8.0160   -8.0090   48.8010 C.2   100  ASP100      0.2293
     80  O          7.1960   -8.6740   48.1620 O.2   100  ASP100     -0.2864
     81  CB        10.4810   -8.3640   48.5950 C.3   100  ASP100      0.1436
     82  CG        11.7670   -8.8060   49.2650 C.2   100  ASP100      0.3671
     83  OD1       12.3720   -7.9870   49.9890 O.co2 100  ASP100     -0.2456
     84  OD2       12.1740   -9.9700   49.0660 O.co2 100  ASP100     -0.2456
     85  N         15.1030   -5.6000   46.6300 N.3   107  TYR107     -0.1241
     86  CA        14.5490   -6.7610   47.3080 C.3   107  TYR107      0.1605
     87  C         15.4670   -7.2300   48.4290 C.2   107  TYR107      0.2264
     88  O         16.6940   -7.1300   48.3440 O.2   107  TYR107     -0.2867
     89  CB        14.3160   -7.8980   46.3120 C.3   107  TYR107      0.0534
     90  CG        13.2410   -7.6020   45.2890 C.ar  107  TYR107     -0.0201
     91  CD1       12.1340   -6.8320   45.6200 C.ar  107  TYR107     -0.0009
     92  CD2       13.3360   -8.0880   43.9920 C.ar  107  TYR107     -0.0009
     93  CE1       11.1490   -6.5580   44.6900 C.ar  107  TYR107      0.0417
     94  CE2       12.3560   -7.8200   43.0540 C.ar  107  TYR107      0.0417
     95  CZ        11.2650   -7.0550   43.4090 C.ar  107  TYR107      0.1957
     96  OH        10.2880   -6.7850   42.4790 O.3   107  TYR107     -0.2866
     97  N         14.7010  -10.4740   49.9630 N.3   109  TYR109     -0.1227
     98  CA        14.6450  -11.9330   49.9320 C.3   109  TYR109      0.1736
     99  C         14.4480  -12.5140   51.3290 C.2   109  TYR109      0.2595
    100  O         14.9490  -13.5970   51.6420 O.2   109  TYR109     -0.2718
    101  CB        15.8980  -12.5190   49.2760 C.3   109  TYR109      0.0548
    102  CG        16.1630  -11.9660   47.8960 C.ar  109  TYR109     -0.0200
    103  CD1       15.5670  -12.5270   46.7750 C.ar  109  TYR109     -0.0009
    104  CD2       17.0050  -10.8770   47.7130 C.ar  109  TYR109     -0.0009
    105  CE1       15.8040  -12.0220   45.5110 C.ar  109  TYR109      0.0417
    106  CE2       17.2480  -10.3650   46.4530 C.ar  109  TYR109      0.0417
    107  CZ        16.6450  -10.9410   45.3560 C.ar  109  TYR109      0.1957
    108  OH        16.8840  -10.4350   44.0990 O.3   109  TYR109     -0.2866
    109  N         13.7170  -11.7940   52.1750 N.am  110  ALA110     -0.1966
    110  CA        13.4190  -12.2260   53.5290 C.3   110  ALA110      0.1728
    111  C         11.9190  -12.4350   53.6860 C.2   110  ALA110      0.2616
    112  O         11.1080  -11.8720   52.9440 O.2   110  ALA110     -0.2715
    113  CB        13.9180  -11.2080   54.5630 C.3   110  ALA110      0.0334
    114  N         11.5580  -13.2570   54.6680 N.am  111  MET111     -0.1977
    115  CA        10.1670  -13.5760   54.9720 C.3   111  MET111      0.1605
    116  C          9.8680  -13.0870   56.3830 C.2   111  MET111      0.2287
    117  O         10.3320  -13.6790   57.3630 O.2   111  MET111     -0.2864
    118  CB         9.9110  -15.0750   54.8310 C.3   111  MET111      0.0413
    119  CG        10.0400  -15.5770   53.4010 C.3   111  MET111      0.0598
    120  SD        10.6590  -17.2650   53.2910 S.3   111  MET111     -0.1393
    121  CE        12.3220  -17.0550   53.9230 C.3   111  MET111      0.0692
@<TRIPOS>BOND
     1    53    52    1
     2    48    49    1
     3    49    52    1
     4    49    50    1
     5    47    45   am
     6    50    54   am
     7    50    51    2
     8    59    58    1
     9    54    55    1
    10    57    56    2
    11    60    58    1
    12    45    46    2
    13    45    44    1
    14    58    55    1
    15    55    56    1
    16    56    61   am
    17    44    41    1
    18    61    62    1
    19    12    11    1
    20    62    63    1
    21    62    65    1
    22    39    37    1
    23    37    36    1
    24    67    69   ar
    25    67    66   ar
    26    41    40    1
    27    41    42    1
    28    69    71   ar
    29    40    34   am
    30    96    95    1
    31    63    64    2
    32    42    43    2
    33    65    66    1
    34    11     9   ar
    35    11    10   ar
    36    66    68   ar
    37    94    95   ar
    38    94    92   ar
    39     9     7   ar
    40    36    33    1
    41    36    38    1
    42    30    29    2
    43    95    93   ar
    44    33    34    1
    45    33    32    1
    46    71    72    1
    47    71    70   ar
    48    34    35    2
    49    10     8   ar
    50    92    90   ar
    51    68    70   ar
    52   108   107    1
    53     7     6   ar
    54    29    32   am
    55    29    28    1
    56    93    91   ar
    57     8     6   ar
    58    90    91   ar
    59    90    89    1
    60     6     5    1
    61   107   105   ar
    62   107   106   ar
    63   105   103   ar
    64    27    28    1
    65    28    31    1
    66    89    86    1
    67   106   104   ar
    68    85    86    1
    69     5     2    1
    70   103   102   ar
    71     2     1    1
    72     2     3    1
    73    86    87    1
    74   104   102   ar
    75   102   101    1
    76     3     4    2
    77    80    79    2
    78    88    87    2
    79    81    82    1
    80    81    78    1
    81    26    24    1
    82    79    78    1
    83    84    82   ar
    84    14    17    1
    85    14    13    1
    86    14    15    1
    87    17    18    1
    88    82    83   ar
    89    24    25    1
    90    24    23    1
    91   101    98    1
    92    22    21    2
    93    78    77    1
    94    77    75   am
    95    21    20    1
    96    98    97    1
    97    98    99    1
    98    15    16    2
    99    23    20    1
   100    75    74    1
   101    75    76    2
   102    74    73    1
   103    20    19    1
   104    99   100    2
   105    99   109   am
   106   109   110    1
   107   112   111    2
   108   120   119    1
   109   120   121    1
   110   119   118    1
   111   110   111    1
   112   110   113    1
   113   111   114   am
   114   114   115    1
   115   118   115    1
   116   115   116    1
   117   116   117    2
