@<TRIPOS>MOLECULE
tmp/5mhiA02.pdb
 136 127 0 0 0
SMALL
GASTEIGER

@<TRIPOS>ATOM
      1  N        -15.7220   30.1130  -30.9610 N.3    49  LEU49      -0.1231
      2  CA       -14.9110   30.2910  -29.7650 C.3    49  LEU49       0.1693
      3  C        -13.4890   29.7860  -29.9150 C.2    49  LEU49       0.2592
      4  O        -12.6470   30.1280  -29.0800 O.2    49  LEU49      -0.2718
      5  CB       -15.5410   29.5450  -28.5920 C.3    49  LEU49       0.0284
      6  CG       -16.9140   30.0360  -28.1570 C.3    49  LEU49       0.0019
      7  CD1      -17.5110   29.0400  -27.1570 C.3    49  LEU49       0.0001
      8  CD2      -16.8530   31.4360  -27.5650 C.3    49  LEU49       0.0001
      9  N        -13.2270   28.9620  -30.9180 N.am   50  GLY50      -0.1957
     10  CA       -11.9080   28.4000  -31.1400 C.3    50  GLY50       0.1869
     11  C        -11.9490   27.5230  -32.3750 C.2    50  GLY50       0.2309
     12  O        -13.0120   27.0810  -32.8160 O.2    50  GLY50      -0.2863
     13  N        -15.0260   25.0920  -32.2830 N.3    57  VAL57      -0.1245
     14  CA       -15.9200   25.1250  -31.1360 C.3    57  VAL57       0.1561
     15  C        -16.7470   26.3900  -31.2420 C.2    57  VAL57       0.2260
     16  O        -16.1980   27.4900  -31.3840 O.2    57  VAL57      -0.2867
     17  CB       -15.1540   25.0840  -29.8070 C.3    57  VAL57       0.0252
     18  CG1      -16.1210   25.2150  -28.6360 C.3    57  VAL57       0.0019
     19  CG2      -14.3580   23.7880  -29.6830 C.3    57  VAL57       0.0019
     20  N        -21.1510   25.1990  -25.4230 N.3    70  ALA70      -0.1245
     21  CA       -20.0520   25.1230  -26.3770 C.3    70  ALA70       0.1562
     22  C        -20.2260   23.8530  -27.2010 C.2    70  ALA70       0.2260
     23  O        -20.2550   22.7560  -26.6470 O.2    70  ALA70      -0.2867
     24  CB       -18.7090   25.1050  -25.6520 C.3    70  ALA70       0.0290
     25  N        -18.6110   21.5350  -30.0230 N.3    72  LYS72      -0.1245
     26  CA       -17.4630   21.1410  -30.8150 C.3    72  LYS72       0.1561
     27  C        -17.9770   20.4190  -32.0560 C.2    72  LYS72       0.2260
     28  O        -18.7760   19.4790  -31.9470 O.2    72  LYS72      -0.2867
     29  CB       -16.5610   20.2260  -29.9790 C.3    72  LYS72       0.0271
     30  CG       -15.2960   19.7780  -30.6830 C.3    72  LYS72       0.0035
     31  CD       -14.3450   19.0680  -29.7170 C.3    72  LYS72       0.0206
     32  CE       -13.0680   18.6430  -30.3980 C.3    72  LYS72       0.1093
     33  NZ       -12.0950   18.0780  -29.4130 N.3    72  LYS72      -0.1314
     34  N        -14.9440   19.3740  -17.8320 N.3   104  VAL104     -0.1245
     35  CA       -16.1280   19.9250  -18.4750 C.3   104  VAL104      0.1561
     36  C        -17.1940   18.8430  -18.6290 C.2   104  VAL104      0.2260
     37  O        -16.8970   17.6650  -18.8790 O.2   104  VAL104     -0.2867
     38  CB       -15.7500   20.5470  -19.8290 C.3   104  VAL104      0.0252
     39  CG1      -15.3680   19.4590  -20.8440 C.3   104  VAL104      0.0019
     40  CG2      -16.8910   21.4160  -20.3580 C.3   104  VAL104      0.0019
     41  N        -21.1530   20.7990  -24.9270 N.3   120  MET120     -0.1230
     42  CA       -20.6540   20.8610  -23.5610 C.3   120  MET120      0.1702
     43  C        -21.2020   22.0930  -22.8520 C.2   120  MET120      0.2592
     44  O        -21.7220   23.0210  -23.4730 O.2   120  MET120     -0.2718
     45  CB       -19.1300   20.9950  -23.5590 C.3   120  MET120      0.0401
     46  CG       -18.3690   19.8110  -24.0160 C.3   120  MET120      0.0596
     47  SD       -16.7850   20.4840  -24.4760 S.3   120  MET120     -0.1393
     48  CE       -17.1200   20.9770  -26.1590 C.3   120  MET120      0.0692
     49  N        -21.0300   22.1010  -21.5330 N.am  121  GLU121     -0.1966
     50  CA       -21.2660   23.3030  -20.7450 C.3   121  GLU121      0.1733
     51  C        -20.3810   24.4350  -21.2550 C.2   121  GLU121      0.2616
     52  O        -19.1890   24.2410  -21.5190 O.2   121  GLU121     -0.2715
     53  CB       -20.9200   23.0140  -19.2800 C.3   121  GLU121      0.0429
     54  CG       -21.1330   24.2130  -18.3450 C.3   121  GLU121      0.1163
     55  CD       -20.9990   23.8840  -16.8510 C.2   121  GLU121      0.3649
     56  OE1      -21.2820   22.7430  -16.4440 O.co2 121  GLU121     -0.2457
     57  OE2      -20.6170   24.7930  -16.0770 O.co2 121  GLU121     -0.2457
     58  N        -20.9680   25.6220  -21.4040 N.am  122  TYR122     -0.1960
     59  CA       -20.2030   26.7960  -21.7970 C.3   122  TYR122      0.1771
     60  C        -19.5110   27.3780  -20.5680 C.2   122  TYR122      0.2619
     61  O        -20.1540   27.6380  -19.5430 O.2   122  TYR122     -0.2715
     62  CB       -21.1190   27.8370  -22.4440 C.3   122  TYR122      0.0574
     63  CG       -20.4260   29.1410  -22.8060 C.ar  122  TYR122     -0.0198
     64  CD1      -19.2200   29.1470  -23.4850 C.ar  122  TYR122     -0.0009
     65  CD2      -21.0020   30.3660  -22.4950 C.ar  122  TYR122     -0.0009
     66  CE1      -18.5960   30.3210  -23.8180 C.ar  122  TYR122      0.0417
     67  CE2      -20.3890   31.5520  -22.8280 C.ar  122  TYR122      0.0417
     68  CZ       -19.1760   31.5280  -23.4910 C.ar  122  TYR122      0.1957
     69  OH       -18.5260   32.7040  -23.8360 O.3   122  TYR122     -0.2866
     70  N        -18.1990   27.5640  -20.6740 N.am  123  VAL123     -0.1977
     71  CA       -17.3800   28.0680  -19.5760 C.3   123  VAL123      0.1596
     72  C        -16.9350   29.4610  -20.0000 C.2   123  VAL123      0.2287
     73  O        -16.0410   29.5900  -20.8410 O.2   123  VAL123     -0.2864
     74  CB       -16.1760   27.1510  -19.3240 C.3   123  VAL123      0.0276
     75  CG1      -15.3660   27.6550  -18.1580 C.3   123  VAL123      0.0022
     76  CG2      -16.6180   25.7130  -19.1200 C.3   123  VAL123      0.0022
     77  N         -9.9820   30.9570  -21.9840 N.3   127  GLU127     -0.1245
     78  CA        -8.8700   30.0290  -21.8150 C.3   127  GLU127      0.1567
     79  C         -7.8090   30.6150  -20.8910 C.2   127  GLU127      0.2260
     80  O         -7.4590   31.8020  -20.9910 O.2   127  GLU127     -0.2867
     81  CB        -8.1920   29.7740  -23.1590 C.3   127  GLU127      0.0388
     82  CG        -9.1150   29.1760  -24.2040 C.3   127  GLU127      0.1160
     83  CD        -8.4880   29.0740  -25.5880 C.2   127  GLU127      0.3649
     84  OE1       -7.3450   29.5350  -25.7690 O.co2 127  GLU127     -0.2457
     85  OE2       -9.1490   28.5060  -26.4860 O.co2 127  GLU127     -0.2457
     86  N         -4.1330   26.2410  -23.3940 N.3   170  GLU170     -0.1231
     87  CA        -5.2160   26.3710  -24.3680 C.3   170  GLU170      0.1699
     88  C         -6.4330   25.5240  -24.0000 C.2   170  GLU170      0.2592
     89  O         -7.5530   25.8300  -24.4340 O.2   170  GLU170     -0.2718
     90  CB        -4.7370   25.9340  -25.7490 C.3   170  GLU170      0.0402
     91  CG        -3.6860   26.8290  -26.4180 C.3   170  GLU170      0.1161
     92  CD        -2.2240   26.4870  -26.0870 C.2   170  GLU170      0.3649
     93  OE1       -1.9080   26.1340  -24.9190 O.co2 170  GLU170     -0.2457
     94  OE2       -1.3760   26.5730  -27.0200 O.co2 170  GLU170     -0.2457
     95  N         -6.2220   24.4300  -23.2750 N.am  171  ASN171     -0.1974
     96  CA        -7.2700   23.4690  -22.9650 C.3   171  ASN171      0.1688
     97  C         -7.8960   23.6700  -21.6000 C.2   171  ASN171      0.2292
     98  O         -8.7630   22.8850  -21.2190 O.2   171  ASN171     -0.2864
     99  CB        -6.7220   22.0430  -23.0410 C.3   171  ASN171      0.1181
    100  CG        -6.5390   21.5970  -24.4480 C.2   171  ASN171      0.2629
    101  OD1       -6.9260   22.3040  -25.3850 O.2   171  ASN171     -0.2716
    102  ND2       -6.0590   20.3990  -24.6290 N.am  171  ASN171     -0.0877
    103  N        -10.0860   26.0500  -19.2600 N.3   173  LEU173     -0.1245
    104  CA       -10.9660   27.2020  -19.2030 C.3   173  LEU173      0.1561
    105  C        -11.1130   27.6680  -17.7640 C.2   173  LEU173      0.2260
    106  O        -10.8970   26.9120  -16.8180 O.2   173  LEU173     -0.2867
    107  CB       -12.3330   26.8650  -19.7960 C.3   173  LEU173      0.0270
    108  CG       -12.2740   26.3700  -21.2370 C.3   173  LEU173      0.0019
    109  CD1      -13.6420   25.9380  -21.6260 C.3   173  LEU173      0.0001
    110  CD2      -11.7470   27.4500  -22.1800 C.3   173  LEU173      0.0001
    111  N        -10.9730   20.9250  -20.7920 N.3   183  THR183     -0.1203
    112  CA       -11.6950   20.5920  -22.0060 C.3   183  THR183      0.1994
    113  C        -10.7840   19.8060  -22.9450 C.2   183  THR183      0.2617
    114  O         -9.5910   19.5920  -22.6840 O.2   183  THR183     -0.2717
    115  CB       -12.1930   21.8520  -22.7280 C.3   183  THR183      0.1784
    116  OG1      -11.0800   22.6510  -23.1590 O.3   183  THR183     -0.2211
    117  CG2      -13.1310   22.6650  -21.8430 C.3   183  THR183      0.0376
    118  N        -11.3730   19.3840  -24.0480 N.am  184  ASP184     -0.1973
    119  CA       -10.6810   18.7720  -25.1700 C.3   184  ASP184      0.1709
    120  C        -10.0370   17.4390  -24.8130 C.2   184  ASP184      0.2293
    121  O         -8.8050   17.3160  -24.6790 O.2   184  ASP184     -0.2864
    122  CB        -9.6800   19.7180  -25.8000 C.3   184  ASP184      0.1436
    123  CG        -9.2050   19.2050  -27.1350 C.2   184  ASP184      0.3671
    124  OD1       -8.6000   19.9810  -27.8990 O.co2 184  ASP184     -0.2456
    125  OD2       -9.4600   18.0120  -27.4120 O.co2 184  ASP184     -0.2456
    126  N        -13.1070   35.6470  -24.7870 N.3   326  PHE326     -0.1241
    127  CA       -12.5540   34.8500  -25.8670 C.3   326  PHE326      0.1605
    128  C        -12.0580   35.7410  -26.9990 C.2   326  PHE326      0.2264
    129  O        -12.5750   36.8390  -27.2390 O.2   326  PHE326     -0.2867
    130  CB       -13.5810   33.8590  -26.4190 C.3   326  PHE326      0.0534
    131  CG       -13.9180   32.7570  -25.4590 C.ar  326  PHE326     -0.0203
    132  CD1      -13.2080   31.5760  -25.4780 C.ar  326  PHE326     -0.0042
    133  CD2      -14.9190   32.9250  -24.5190 C.ar  326  PHE326     -0.0042
    134  CE1      -13.4980   30.5560  -24.5940 C.ar  326  PHE326     -0.0003
    135  CE2      -15.2230   31.9250  -23.6350 C.ar  326  PHE326     -0.0003
    136  CZ       -14.5010   30.7220  -23.6640 C.ar  326  PHE326     -0.0000
@<TRIPOS>BOND
     1    12    11    2
     2    11    10    1
     3    13    14    1
     4    27    28    2
     5    27    26    1
     6    16    15    2
     7    15    14    1
     8    10     9    1
     9    14    17    1
    10     1     2    1
    11     9     3   am
    12    26    25    1
    13    26    29    1
    14    30    29    1
    15    30    31    1
    16    32    31    1
    17    32    33    1
    18     3     2    1
    19     3     4    2
    20    17    19    1
    21    17    18    1
    22     2     5    1
    23     5     6    1
    24     6     8    1
    25     6     7    1
    26   124   123   ar
    27   125   123   ar
    28   129   128    2
    29    22    23    2
    30    22    21    1
    31   123   122    1
    32    94    92   ar
    33   128   127    1
    34    85    83   ar
    35   130   127    1
    36   130   131    1
    37    91    92    1
    38    91    90    1
    39    21    24    1
    40    21    20    1
    41    48    47    1
    42    92    93   ar
    43   127   126    1
    44   122   119    1
    45    84    83   ar
    46    90    87    1
    47    83    82    1
    48   132   131   ar
    49   132   134   ar
    50   131   133   ar
    51   101   100    2
    52   119   120    1
    53   119   118    1
    54    41    42    1
    55   120   121    2
    56   102   100   am
    57   134   136   ar
    58   133   135   ar
    59    47    46    1
    60   100    99    1
    61    89    88    2
    62    87    88    1
    63    87    86    1
    64    82    81    1
    65   118   113   am
    66    46    45    1
    67    88    95   am
    68    69    68    1
    69    66    68   ar
    70    66    64   ar
    71   136   135   ar
    72    42    45    1
    73    42    43    1
    74    68    67   ar
    75    64    63   ar
    76    44    43    2
    77    95    96    1
    78    81    78    1
    79   116   115    1
    80    99    96    1
    81    96    97    1
    82   113   114    2
    83   113   112    1
    84    43    49   am
    85    67    65   ar
    86    63    65   ar
    87    63    62    1
    88   115   112    1
    89   115   117    1
    90    62    59    1
    91   110   108    1
    92   112   111    1
    93    77    78    1
    94    78    79    1
    95    59    58    1
    96    59    60    1
    97   109   108    1
    98    97    98    2
    99    49    50    1
   100    52    51    2
   101    58    51   am
   102    51    50    1
   103   108   107    1
   104    80    79    2
   105    39    38    1
   106    73    72    2
   107    50    53    1
   108    70    60   am
   109    70    71    1
   110    60    61    2
   111    40    38    1
   112    72    71    1
   113    38    35    1
   114   107   104    1
   115    71    74    1
   116    74    76    1
   117    74    75    1
   118    53    54    1
   119   103   104    1
   120   104   105    1
   121    37    36    2
   122    36    35    1
   123    35    34    1
   124    54    55    1
   125   105   106    2
   126    55    56   ar
   127    55    57   ar
