@<TRIPOS>MOLECULE
tmp/5mhlB00.pdb
 222 221 0 0 0
SMALL
GASTEIGER

@<TRIPOS>ATOM
      1  N         51.9080   22.7790   63.2950 N.3   200  TYR200     -0.1227
      2  CA        53.0680   23.5720   63.6920 C.3   200  TYR200      0.1736
      3  C         53.2120   23.4410   65.2060 C.2   200  TYR200      0.2596
      4  O         52.7190   22.4760   65.8010 O.2   200  TYR200     -0.2718
      5  CB        52.9350   25.0280   63.1880 C.3   200  TYR200      0.0548
      6  CG        51.7930   25.8350   63.7730 C.ar  200  TYR200     -0.0200
      7  CD1       50.4710   25.5810   63.4180 C.ar  200  TYR200     -0.0009
      8  CD2       52.0410   26.8800   64.6590 C.ar  200  TYR200     -0.0009
      9  CE1       49.4190   26.3400   63.9590 C.ar  200  TYR200      0.0417
     10  CE2       51.0050   27.6380   65.2020 C.ar  200  TYR200      0.0417
     11  CZ        49.7050   27.3690   64.8480 C.ar  200  TYR200      0.1957
     12  OH        48.6950   28.1180   65.3970 O.3   200  TYR200     -0.2866
     13  N         53.9000   24.4000   65.8330 N.am  201  GLY201     -0.1957
     14  CA        54.1800   24.3100   67.2570 C.3   201  GLY201      0.1869
     15  C         55.4590   23.5500   67.5670 C.2   201  GLY201      0.2309
     16  O         56.4880   23.7800   66.9260 O.2   201  GLY201     -0.2863
     17  N         50.4540   22.3630   67.5070 N.3   207  LYS207     -0.1245
     18  CA        49.4210   23.3040   67.1180 C.3   207  LYS207      0.1561
     19  C         48.9530   22.9700   65.7050 C.2   207  LYS207      0.2260
     20  O         49.7130   22.4300   64.8890 O.2   207  LYS207     -0.2867
     21  CB        49.9450   24.7380   67.1860 C.3   207  LYS207      0.0271
     22  CG        50.6670   25.0740   68.4850 C.3   207  LYS207      0.0035
     23  CD        49.6780   25.0560   69.6570 C.3   207  LYS207      0.0206
     24  CE        50.2010   25.8870   70.8300 C.3   207  LYS207      0.1093
     25  NZ        51.6440   25.5240   71.1200 N.3   207  LYS207     -0.1314
     26  N         46.5490   24.6090   62.3200 N.3   209  ARG209     -0.1245
     27  CA        46.0540   25.8160   61.6720 C.3   209  ARG209      0.1563
     28  C         45.2040   25.3700   60.4930 C.2   209  ARG209      0.2260
     29  O         45.7030   24.6680   59.6100 O.2   209  ARG209     -0.2867
     30  CB        47.2220   26.6730   61.1730 C.3   209  ARG209      0.0307
     31  CG        46.8490   27.9490   60.4340 C.3   209  ARG209      0.0489
     32  CD        48.1020   28.5190   59.7660 C.3   209  ARG209      0.2205
     33  NE        49.0960   28.9940   60.7280 N.pl3 209  ARG209     -0.0865
     34  CZ        49.1030   30.1850   61.3140 C.cat 209  ARG209      0.5346
     35  NH1       48.1620   31.0760   61.0370 N.pl3 209  ARG209      0.1354
     36  NH2       50.0710   30.4770   62.1780 N.pl3 209  ARG209      0.1354
     37  N         59.9360   37.7870   57.7540 N.3   265  TRP265     -0.1241
     38  CA        59.9440   37.5320   59.1900 C.3   265  TRP265      0.1605
     39  C         60.3480   38.7690   59.9820 C.2   265  TRP265      0.2264
     40  O         60.8080   38.6330   61.1200 O.2   265  TRP265     -0.2867
     41  CB        60.9080   36.3890   59.5330 C.3   265  TRP265      0.0550
     42  CG        60.4530   35.0260   59.1130 C.ar  265  TRP265      0.0003
     43  CD1       59.9430   34.0480   59.9190 C.ar  265  TRP265      0.0946
     44  CD2       60.4230   34.5010   57.7770 C.ar  265  TRP265      0.0152
     45  NE1       59.6150   32.9390   59.1700 N.ar  265  TRP265     -0.2442
     46  CE2       59.9040   33.1910   57.8540 C.ar  265  TRP265      0.0810
     47  CE3       60.7970   35.0070   56.5290 C.ar  265  TRP265      0.0012
     48  CZ2       59.7570   32.3790   56.7330 C.ar  265  TRP265      0.0191
     49  CZ3       60.6450   34.1960   55.4080 C.ar  265  TRP265      0.0001
     50  CH2       60.1310   32.9000   55.5190 C.ar  265  TRP265      0.0015
     51  N         54.9070   33.4250   55.2900 N.3   299  GLN299     -0.1231
     52  CA        55.9460   32.5930   55.8950 C.3   299  GLN299      0.1698
     53  C         55.7050   31.1430   55.4690 C.2   299  GLN299      0.2592
     54  O         54.8760   30.8990   54.5850 O.2   299  GLN299     -0.2718
     55  CB        55.9620   32.7520   57.4200 C.3   299  GLN299      0.0381
     56  CG        56.1930   34.2010   57.8710 C.3   299  GLN299      0.0905
     57  CD        56.4000   34.3360   59.3680 C.2   299  GLN299      0.2608
     58  OE1       56.3150   33.3550   60.1200 O.2   299  GLN299     -0.2717
     59  NE2       56.6750   35.5560   59.8130 N.am  299  GLN299     -0.0878
     60  N         56.4280   30.1820   56.0660 N.am  300  CYS300     -0.1956
     61  CA        56.5680   28.8670   55.4510 C.3   300  CYS300      0.1843
     62  C         55.2110   28.2130   55.1860 C.2   300  CYS300      0.2625
     63  O         54.9530   27.7050   54.0920 O.2   300  CYS300     -0.2714
     64  CB        57.4640   27.9760   56.3210 C.3   300  CYS300      0.0997
     65  SG        56.8300   27.5860   57.9510 S.3   300  CYS300     -0.0797
     66  N         54.3210   28.2270   56.1760 N.am  301  TRP301     -0.1974
     67  CA        53.0460   27.5450   56.0080 C.3   301  TRP301      0.1640
     68  C         52.1880   28.2200   54.9460 C.2   301  TRP301      0.2290
     69  O         51.3360   27.5680   54.3240 O.2   301  TRP301     -0.2864
     70  CB        52.3050   27.4960   57.3480 C.3   301  TRP301      0.0576
     71  CG        51.7100   28.8230   57.7440 C.ar  301  TRP301      0.0006
     72  CD1       50.4790   29.3060   57.4050 C.ar  301  TRP301      0.0946
     73  CD2       52.3230   29.8250   58.5590 C.ar  301  TRP301      0.0152
     74  NE1       50.2850   30.5420   57.9590 N.ar  301  TRP301     -0.2442
     75  CE2       51.4030   30.8900   58.6730 C.ar  301  TRP301      0.0810
     76  CE3       53.5650   29.9280   59.2000 C.ar  301  TRP301      0.0012
     77  CZ2       51.6870   32.0590   59.4080 C.ar  301  TRP301      0.0191
     78  CZ3       53.8400   31.0770   59.9280 C.ar  301  TRP301      0.0001
     79  CH2       52.9040   32.1280   60.0170 C.ar  301  TRP301      0.0015
     80  N         62.0290   20.8150   64.1600 N.3   325  PHE325     -0.1241
     81  CA        63.4700   21.0430   64.2200 C.3   325  PHE325      0.1605
     82  C         64.0660   20.8150   62.8410 C.2   325  PHE325      0.2264
     83  O         64.6390   19.7590   62.5620 O.2   325  PHE325     -0.2867
     84  CB        64.1370   20.1570   65.2710 C.3   325  PHE325      0.0534
     85  CG        63.6760   20.4310   66.6610 C.ar  325  PHE325     -0.0203
     86  CD1       63.3600   19.3830   67.5160 C.ar  325  PHE325     -0.0042
     87  CD2       63.5860   21.7400   67.1320 C.ar  325  PHE325     -0.0042
     88  CE1       62.9460   19.6200   68.8070 C.ar  325  PHE325     -0.0003
     89  CE2       63.1550   22.0010   68.4330 C.ar  325  PHE325     -0.0003
     90  CZ        62.8360   20.9350   69.2730 C.ar  325  PHE325     -0.0000
     91  N         77.6590   24.4860   63.7650 N.3   338  ILE338     -0.1245
     92  CA        77.3370   25.4960   64.7680 C.3   338  ILE338      0.1561
     93  C         78.6240   25.8730   65.4970 C.2   338  ILE338      0.2260
     94  O         79.1990   25.0590   66.2310 O.2   338  ILE338     -0.2867
     95  CB        76.2590   25.0100   65.7460 C.3   338  ILE338      0.0252
     96  CG1       75.0470   24.4950   64.9800 C.3   338  ILE338      0.0019
     97  CG2       75.8670   26.1390   66.6940 C.3   338  ILE338      0.0019
     98  CD1       74.4920   25.5070   64.0550 C.3   338  ILE338      0.0001
     99  N         76.8170   30.6550   71.1490 N.3   346  VAL346     -0.1245
    100  CA        76.8170   30.5080   69.6960 C.3   346  VAL346      0.1561
    101  C         77.4200   31.7710   69.0810 C.2   346  VAL346      0.2260
    102  O         76.8150   32.8440   69.1280 O.2   346  VAL346     -0.2867
    103  CB        75.3990   30.2550   69.1650 C.3   346  VAL346      0.0252
    104  CG1       75.3840   30.2010   67.6350 C.3   346  VAL346      0.0019
    105  CG2       74.8150   28.9750   69.7720 C.3   346  VAL346      0.0019
    106  N         77.6490   34.0970   66.4560 N.3   348  SER348     -0.1217
    107  CA        76.6640   34.4260   65.4270 C.3   348  SER348      0.1889
    108  C         77.2580   35.0550   64.1650 C.2   348  SER348      0.2288
    109  O         76.5190   35.2560   63.1890 O.2   348  SER348     -0.2866
    110  CB        75.6030   35.3630   66.0090 C.3   348  SER348      0.2089
    111  OG        76.1740   36.5900   66.3510 O.3   348  SER348     -0.2183
    112  N         78.4910   31.5310   62.3570 N.3   351  THR351     -0.1203
    113  CA        77.4390   30.5390   62.1710 C.3   351  THR351      0.1994
    114  C         76.4830   30.9990   61.0810 C.2   351  THR351      0.2618
    115  O         75.7990   32.0110   61.2410 O.2   351  THR351     -0.2717
    116  CB        76.6810   30.2930   63.4780 C.3   351  THR351      0.1784
    117  OG1       77.5570   29.6960   64.4400 O.3   351  THR351     -0.2211
    118  CG2       75.4800   29.3910   63.2520 C.3   351  THR351      0.0376
    119  N         76.4290   30.2530   59.9820 N.am  352  LYS352     -0.1965
    120  CA        75.4960   30.5400   58.8940 C.3   352  LYS352      0.1728
    121  C         74.3180   29.5780   58.8480 C.2   352  LYS352      0.2616
    122  O         73.1840   30.0130   58.6200 O.2   352  LYS352     -0.2715
    123  CB        76.2230   30.5070   57.5430 C.3   352  LYS352      0.0311
    124  CG        77.4450   31.4000   57.4640 C.3   352  LYS352      0.0038
    125  CD        77.0820   32.8820   57.5490 C.3   352  LYS352      0.0206
    126  CE        78.3210   33.7400   57.3430 C.3   352  LYS352      0.1093
    127  NZ        78.1300   35.1300   57.8190 N.3   352  LYS352     -0.1314
    128  N         74.5650   28.2780   59.0520 N.am  353  ASP353     -0.1957
    129  CA        73.4970   27.2960   59.1540 C.3   353  ASP353      0.1840
    130  C         72.5650   27.6570   60.3100 C.2   353  ASP353      0.2623
    131  O         72.9100   28.4260   61.2110 O.2   353  ASP353     -0.2715
    132  CB        74.0720   25.8890   59.3730 C.3   353  ASP353      0.1450
    133  CG        74.9550   25.4050   58.2050 C.2   353  ASP353      0.3671
    134  OD1       74.9670   26.0370   57.1270 O.co2 353  ASP353     -0.2456
    135  OD2       75.6610   24.3870   58.3820 O.co2 353  ASP353     -0.2456
    136  N         71.3730   27.0780   60.2840 N.am  354  SER354     -0.1936
    137  CA        70.3700   27.3320   61.3110 C.3   354  SER354      0.2055
    138  C         69.4060   26.1590   61.3410 C.2   354  SER354      0.2643
    139  O         69.2850   25.4140   60.3640 O.2   354  SER354     -0.2714
    140  CB        69.5960   28.6230   61.0340 C.3   354  SER354      0.2130
    141  OG        68.8540   28.5010   59.8250 O.3   354  SER354     -0.2179
    142  N         68.7310   25.9920   62.4790 N.am  355  VAL355     -0.1963
    143  CA        67.6100   25.0660   62.5660 C.3   355  VAL355      0.1727
    144  C         66.4180   25.8090   63.1540 C.2   355  VAL355      0.2616
    145  O         66.5730   26.6570   64.0420 O.2   355  VAL355     -0.2715
    146  CB        67.9360   23.7770   63.3680 C.3   355  VAL355      0.0290
    147  CG1       69.4380   23.6030   63.5840 C.3   355  VAL355      0.0023
    148  CG2       67.1620   23.7070   64.6560 C.3   355  VAL355      0.0023
    149  N         65.2320   25.5020   62.6270 N.am  356  TRP356     -0.1960
    150  CA        63.9890   26.1920   62.9290 C.3   356  TRP356      0.1771
    151  C         63.0820   25.2770   63.7450 C.2   356  TRP356      0.2620
    152  O         63.1510   24.0560   63.6220 O.2   356  TRP356     -0.2715
    153  CB        63.3180   26.6330   61.6210 C.3   356  TRP356      0.0590
    154  CG        64.1010   27.7500   60.9730 C.ar  356  TRP356      0.0006
    155  CD1       65.3620   27.6740   60.4360 C.ar  356  TRP356      0.0946
    156  CD2       63.6940   29.1180   60.8370 C.ar  356  TRP356      0.0152
    157  NE1       65.7600   28.9080   59.9770 N.ar  356  TRP356     -0.2442
    158  CE2       64.7520   29.8110   60.2070 C.ar  356  TRP356      0.0810
    159  CE3       62.5380   29.8240   61.1820 C.ar  356  TRP356      0.0012
    160  CZ2       64.6820   31.1760   59.9170 C.ar  356  TRP356      0.0191
    161  CZ3       62.4730   31.1830   60.8920 C.ar  356  TRP356      0.0001
    162  CH2       63.5370   31.8400   60.2650 C.ar  356  TRP356      0.0015
    163  N         62.2360   25.8640   64.5990 N.am  357  ASN357     -0.1958
    164  CA        61.3860   25.0320   65.4490 C.3   357  ASN357      0.1819
    165  C         60.4290   24.1710   64.6270 C.2   357  ASN357      0.2621
    166  O         60.1290   23.0370   65.0190 O.2   357  ASN357     -0.2715
    167  CB        60.6200   25.8910   66.4580 C.3   357  ASN357      0.1195
    168  CG        59.7530   26.9420   65.7980 C.2   357  ASN357      0.2630
    169  OD1       60.0010   27.3370   64.6580 O.2   357  ASN357     -0.2716
    170  ND2       58.7500   27.4290   66.5290 N.am  357  ASN357     -0.0877
    171  N         59.9700   24.6680   63.4810 N.am  358  TYR358     -0.1960
    172  CA        59.2590   23.8300   62.5250 C.3   358  TYR358      0.1771
    173  C         59.4090   24.4510   61.1520 C.2   358  TYR358      0.2619
    174  O         59.7860   25.6160   61.0120 O.2   358  TYR358     -0.2715
    175  CB        57.7740   23.6700   62.8660 C.3   358  TYR358      0.0574
    176  CG        56.9440   24.9100   62.6320 C.ar  358  TYR358     -0.0198
    177  CD1       56.7490   25.8360   63.6460 C.ar  358  TYR358     -0.0009
    178  CD2       56.3460   25.1500   61.4020 C.ar  358  TYR358     -0.0009
    179  CE1       55.9860   26.9730   63.4330 C.ar  358  TYR358      0.0417
    180  CE2       55.5770   26.2900   61.1800 C.ar  358  TYR358      0.0417
    181  CZ        55.4070   27.1990   62.1990 C.ar  358  TYR358      0.1957
    182  OH        54.6530   28.3310   61.9840 O.3   358  TYR358     -0.2866
    183  N         59.0860   23.6500   60.1420 N.am  359  HIS359     -0.1973
    184  CA        59.0970   24.0980   58.7620 C.3   359  HIS359      0.1656
    185  C         58.1430   23.2210   57.9670 C.2   359  HIS359      0.2291
    186  O         57.9950   22.0330   58.2600 O.2   359  HIS359     -0.2864
    187  CB        60.4990   24.0420   58.1710 C.3   359  HIS359      0.0771
    188  CG        60.5660   24.5110   56.7560 C.ar  359  HIS359      0.0820
    189  ND1       59.8560   25.6050   56.3070 N.ar  359  HIS359     -0.2267
    190  CD2       61.2940   24.0730   55.7040 C.ar  359  HIS359      0.1154
    191  CE1       60.1320   25.8090   55.0320 C.ar  359  HIS359      0.1986
    192  NE2       61.0040   24.8930   54.6430 N.ar  359  HIS359     -0.2212
    193  N         73.9840   17.6740   63.9060 N.3   425  LEU425     -0.1245
    194  CA        74.3600   18.9360   64.5270 C.3   425  LEU425      0.1561
    195  C         75.7870   18.8200   65.0500 C.2   425  LEU425      0.2260
    196  O         76.0460   18.0480   65.9790 O.2   425  LEU425     -0.2867
    197  CB        73.4020   19.2600   65.6670 C.3   425  LEU425      0.0270
    198  CG        72.0500   19.8580   65.3300 C.3   425  LEU425      0.0019
    199  CD1       71.1250   19.7100   66.5170 C.3   425  LEU425      0.0001
    200  CD2       72.2640   21.3150   65.0440 C.3   425  LEU425      0.0001
    201  N         78.8260   20.7220   66.8080 N.3   427  TYR427     -0.1241
    202  CA        79.2550   21.8830   67.5910 C.3   427  TYR427      0.1605
    203  C         80.7700   22.0510   67.5260 C.2   427  TYR427      0.2264
    204  O         81.5230   21.1730   67.9650 O.2   427  TYR427     -0.2867
    205  CB        78.7740   21.7840   69.0370 C.3   427  TYR427      0.0534
    206  CG        77.2670   21.8810   69.1200 C.ar  427  TYR427     -0.0201
    207  CD1       76.6260   23.1090   68.9990 C.ar  427  TYR427     -0.0009
    208  CD2       76.4860   20.7500   69.3290 C.ar  427  TYR427     -0.0009
    209  CE1       75.2460   23.2090   69.0790 C.ar  427  TYR427      0.0417
    210  CE2       75.1110   20.8370   69.4120 C.ar  427  TYR427      0.0417
    211  CZ        74.4960   22.0680   69.2870 C.ar  427  TYR427      0.1957
    212  OH        73.1260   22.1450   69.3690 O.3   427  TYR427     -0.2866
    213  N         68.6480   15.1570   67.0000 N.3   440  HIS440     -0.1241
    214  CA        67.7790   16.3110   67.2010 C.3   440  HIS440      0.1621
    215  C         67.0390   16.7180   65.9300 C.2   440  HIS440      0.2264
    216  O         65.8130   16.8890   65.9460 O.2   440  HIS440     -0.2867
    217  CB        68.5870   17.4820   67.7400 C.3   440  HIS440      0.0745
    218  CG        67.7390   18.6260   68.1860 C.ar  440  HIS440      0.0817
    219  ND1       66.6760   18.4660   69.0480 N.ar  440  HIS440     -0.2268
    220  CD2       67.8110   19.9490   67.9130 C.ar  440  HIS440      0.1154
    221  CE1       66.1210   19.6430   69.2760 C.ar  440  HIS440      0.1986
    222  NE2       66.7900   20.5600   68.6000 N.ar  440  HIS440     -0.2212
@<TRIPOS>BOND
     1    63    62    2
     2    69    68    2
     3    54    53    2
     4   192   191   ar
     5   192   190   ar
     6    68    67    1
     7   191   189   ar
     8    62    61    1
     9    62    66   am
    10    51    52    1
    11    49    50   ar
    12    49    47   ar
    13    61    60    1
    14    61    64    1
    15    53    52    1
    16    53    60   am
    17    50    48   ar
    18   190   188   ar
    19    52    55    1
    20    67    66    1
    21    67    70    1
    22   189   188   ar
    23    64    65    1
    24    47    44   ar
    25    48    46   ar
    26   188   187    1
    27   134   133   ar
    28   126   125    1
    29   126   127    1
    30    70    71    1
    31    72    71   ar
    32    72    74   ar
    33    55    56    1
    34   124   123    1
    35   124   125    1
    36   123   120    1
    37    71    73   ar
    38    37    38    1
    39    44    46   ar
    40    44    42   ar
    41    46    45   ar
    42    56    57    1
    43    74    75   ar
    44   185   186    2
    45   185   184    1
    46   187   184    1
    47   133   135   ar
    48   133   132    1
    49    73    75   ar
    50    73    76   ar
    51   122   121    2
    52    75    77   ar
    53   184   183    1
    54   121   120    1
    55   121   128   am
    56   120   119    1
    57   128   129    1
    58    42    41    1
    59    42    43   ar
    60   129   132    1
    61   129   130    1
    62    45    43   ar
    63    38    41    1
    64    38    39    1
    65    76    78   ar
    66    57    59   am
    67    57    58    2
    68    77    79   ar
    69    29    28    2
    70    32    31    1
    71    32    33    1
    72   141   140    1
    73   160   158   ar
    74   160   162   ar
    75    78    79   ar
    76   157   158   ar
    77   157   155   ar
    78   119   114   am
    79    39    40    2
    80   183   173   am
    81   158   156   ar
    82   162   161   ar
    83   136   130   am
    84   136   137    1
    85   130   131    2
    86   139   138    2
    87    31    30    1
    88   155   154   ar
    89    28    27    1
    90    33    34    2
    91   156   154   ar
    92   156   159   ar
    93   161   159   ar
    94   154   153    1
    95   174   173    2
    96   140   137    1
    97    35    34    1
    98   114   115    2
    99   114   113    1
   100   173   172    1
   101    30    27    1
   102   180   178   ar
   103   180   181   ar
   104   137   138    1
   105    34    36    1
   106   138   142   am
   107   178   176   ar
   108   153   150    1
   109    27    26    1
   110   182   181    1
   111   113   112    1
   112   113   116    1
   113   181   179   ar
   114   142   143    1
   115   172   175    1
   116   172   171    1
   117    83    82    2
   118   143   144    1
   119   143   146    1
   120   149   150    1
   121   149   144   am
   122   176   175    1
   123   176   177   ar
   124    82    81    1
   125   150   151    1
   126   144   145    2
   127     5     2    1
   128     5     6    1
   129   109   108    2
   130   118   116    1
   131     1     2    1
   132   146   147    1
   133   146   148    1
   134     7     6   ar
   135     7     9   ar
   136   179   177   ar
   137   116   117    1
   138   171   165   am
   139   152   151    2
   140     2     3    1
   141   151   163   am
   142    91    92    1
   143     6     8   ar
   144   193   194    1
   145     9    11   ar
   146    98    96    1
   147    80    81    1
   148   108   107    1
   149    81    84    1
   150   194   195    1
   151   194   197    1
   152   163   164    1
   153   165   166    2
   154   165   164    1
   155   169   168    2
   156     8    10   ar
   157    92    93    1
   158    92    95    1
   159    11    10   ar
   160    11    12    1
   161    20    19    2
   162    96    95    1
   163   200   198    1
   164   195   196    2
   165     3     4    2
   166     3    13   am
   167    84    85    1
   168   198   197    1
   169   198   199    1
   170   107   110    1
   171   107   106    1
   172   164   167    1
   173    93    94    2
   174    19    18    1
   175    95    97    1
   176   168   167    1
   177   168   170   am
   178    13    14    1
   179   215   216    2
   180   215   214    1
   181   110   111    1
   182    85    87   ar
   183    85    86   ar
   184   201   202    1
   185    16    15    2
   186   213   214    1
   187    18    21    1
   188    18    17    1
   189    87    89   ar
   190    21    22    1
   191   214   217    1
   192    14    15    1
   193    86    88   ar
   194   203   202    1
   195   203   204    2
   196   202   205    1
   197   104   103    1
   198   217   218    1
   199   220   218   ar
   200   220   222   ar
   201   218   219   ar
   202    89    90   ar
   203    22    23    1
   204   222   221   ar
   205    88    90   ar
   206   207   209   ar
   207   207   206   ar
   208   205   206    1
   209   219   221   ar
   210   209   211   ar
   211   101   102    2
   212   101   100    1
   213   206   208   ar
   214   103   100    1
   215   103   105    1
   216   211   212    1
   217   211   210   ar
   218   208   210   ar
   219    23    24    1
   220   100    99    1
   221    24    25    1
