@<TRIPOS>MOLECULE
tmp/5mhmB00.pdb
 248 245 0 0 0
SMALL
GASTEIGER

@<TRIPOS>ATOM
      1  N         52.0420   22.8780   63.3420 N.3   200  TYR200     -0.1241
      2  CA        53.1250   23.7880   63.6520 C.3   200  TYR200      0.1605
      3  C         53.3530   23.7120   65.1510 C.2   200  TYR200      0.2264
      4  O         52.9330   22.7510   65.8050 O.2   200  TYR200     -0.2867
      5  CB        52.8250   25.2140   63.1340 C.3   200  TYR200      0.0534
      6  CG        51.7600   26.0110   63.8800 C.ar  200  TYR200     -0.0201
      7  CD1       50.4040   25.7920   63.6510 C.ar  200  TYR200     -0.0009
      8  CD2       52.1170   27.0130   64.7830 C.ar  200  TYR200     -0.0009
      9  CE1       49.4390   26.5180   64.3150 C.ar  200  TYR200      0.0417
     10  CE2       51.1590   27.7550   65.4460 C.ar  200  TYR200      0.0417
     11  CZ        49.8220   27.5000   65.2100 C.ar  200  TYR200      0.1957
     12  OH        48.8690   28.2240   65.8770 O.3   200  TYR200     -0.2866
     13  N         55.7700   23.2020   68.2730 N.3   202  GLU202     -0.1245
     14  CA        57.0020   22.4900   68.5410 C.3   202  GLU202      0.1567
     15  C         56.5940   21.0800   68.9210 C.2   202  GLU202      0.2260
     16  O         55.4220   20.8120   69.1960 O.2   202  GLU202     -0.2867
     17  CB        57.8450   23.1990   69.6190 C.3   202  GLU202      0.0388
     18  CG        57.1230   23.4220   70.9280 C.3   202  GLU202      0.1160
     19  CD        57.7830   22.7060   72.1030 C.2   202  GLU202      0.3649
     20  OE1       57.3120   22.8990   73.2460 O.co2 202  GLU202     -0.2457
     21  OE2       58.7680   21.9590   71.8880 O.co2 202  GLU202     -0.2457
     22  N         46.8070   24.8350   62.3710 N.3   209  ARG209     -0.1245
     23  CA        46.2500   25.9690   61.6510 C.3   209  ARG209      0.1563
     24  C         45.3800   25.4290   60.5290 C.2   209  ARG209      0.2260
     25  O         45.8770   24.7090   59.6620 O.2   209  ARG209     -0.2867
     26  CB        47.3550   26.8540   61.0790 C.3   209  ARG209      0.0307
     27  CG        46.8020   27.9180   60.1620 C.3   209  ARG209      0.0489
     28  CD        47.8290   28.9410   59.7920 C.3   209  ARG209      0.2205
     29  NE        48.1540   29.8510   60.8840 N.pl3 209  ARG209     -0.0865
     30  CZ        47.5810   31.0400   61.0610 C.cat 209  ARG209      0.5346
     31  NH1       46.6260   31.4560   60.2350 N.pl3 209  ARG209      0.1354
     32  NH2       47.9620   31.8090   62.0690 N.pl3 209  ARG209      0.1354
     33  N         60.2500   38.2010   57.4320 N.3   265  TRP265     -0.1241
     34  CA        60.3700   37.8400   58.8390 C.3   265  TRP265      0.1605
     35  C         60.7410   39.0470   59.6990 C.2   265  TRP265      0.2264
     36  O         61.2630   38.8680   60.8010 O.2   265  TRP265     -0.2867
     37  CB        61.4040   36.7120   59.0080 C.3   265  TRP265      0.0550
     38  CG        61.0050   35.4060   58.3210 C.ar  265  TRP265      0.0003
     39  CD1       60.4980   34.2810   58.9260 C.ar  265  TRP265      0.0946
     40  CD2       61.0560   35.1090   56.9110 C.ar  265  TRP265      0.0152
     41  NE1       60.2370   33.3080   57.9800 N.ar  265  TRP265     -0.2442
     42  CE2       60.5790   33.7870   56.7410 C.ar  265  TRP265      0.0810
     43  CE3       61.4890   35.8160   55.7850 C.ar  265  TRP265      0.0012
     44  CZ2       60.5070   33.1680   55.4860 C.ar  265  TRP265      0.0191
     45  CZ3       61.4110   35.2050   54.5390 C.ar  265  TRP265      0.0001
     46  CH2       60.9230   33.8920   54.4010 C.ar  265  TRP265      0.0015
     47  N         50.8580   35.8020   59.5080 N.3   276  SER276     -0.1217
     48  CA        49.9210   35.0630   60.3440 C.3   276  SER276      0.1889
     49  C         48.4710   35.5170   60.1820 C.2   276  SER276      0.2288
     50  O         47.5900   34.9430   60.8310 O.2   276  SER276     -0.2866
     51  CB        50.3350   35.1850   61.8070 C.3   276  SER276      0.2089
     52  OG        50.3030   36.5570   62.1790 O.3   276  SER276     -0.2183
     53  N         55.2200   33.4000   55.1960 N.3   299  GLN299     -0.1231
     54  CA        56.2790   32.5420   55.7120 C.3   299  GLN299      0.1698
     55  C         55.9730   31.0760   55.3730 C.2   299  GLN299      0.2592
     56  O         55.0570   30.7950   54.5920 O.2   299  GLN299     -0.2718
     57  CB        56.4570   32.7630   57.2220 C.3   299  GLN299      0.0381
     58  CG        56.8830   34.2140   57.5780 C.3   299  GLN299      0.0905
     59  CD        57.1460   34.4140   59.0710 C.2   299  GLN299      0.2608
     60  OE1       57.1040   33.4600   59.8490 O.2   299  GLN299     -0.2717
     61  NE2       57.4410   35.6550   59.4680 N.am  299  GLN299     -0.0878
     62  N         56.7090   30.1410   55.9830 N.am  300  CYS300     -0.1956
     63  CA        56.7670   28.7630   55.4900 C.3   300  CYS300      0.1843
     64  C         55.3700   28.1550   55.2590 C.2   300  CYS300      0.2625
     65  O         55.0790   27.6360   54.1790 O.2   300  CYS300     -0.2714
     66  CB        57.6260   27.9300   56.4600 C.3   300  CYS300      0.0997
     67  SG        56.9420   27.5270   57.9830 S.3   300  CYS300     -0.0797
     68  N         54.4720   28.2490   56.2420 N.am  301  TRP301     -0.1974
     69  CA        53.1750   27.5950   56.0940 C.3   301  TRP301      0.1640
     70  C         52.2990   28.2690   55.0380 C.2   301  TRP301      0.2290
     71  O         51.4470   27.6050   54.4290 O.2   301  TRP301     -0.2864
     72  CB        52.4550   27.5540   57.4450 C.3   301  TRP301      0.0576
     73  CG        51.9610   28.9020   57.9240 C.ar  301  TRP301      0.0006
     74  CD1       50.6970   29.4180   57.7860 C.ar  301  TRP301      0.0946
     75  CD2       52.7260   29.8980   58.6170 C.ar  301  TRP301      0.0152
     76  NE1       50.6350   30.6680   58.3520 N.ar  301  TRP301     -0.2442
     77  CE2       51.8640   30.9870   58.8710 C.ar  301  TRP301      0.0810
     78  CE3       54.0600   29.9790   59.0410 C.ar  301  TRP301      0.0012
     79  CZ2       52.2940   32.1510   59.5360 C.ar  301  TRP301      0.0191
     80  CZ3       54.4820   31.1280   59.7120 C.ar  301  TRP301      0.0001
     81  CH2       53.6000   32.2020   59.9460 C.ar  301  TRP301      0.0015
     82  N         62.0770   20.7270   64.2680 N.3   325  PHE325     -0.1241
     83  CA        63.5280   20.9110   64.3370 C.3   325  PHE325      0.1605
     84  C         64.1390   20.7010   62.9520 C.2   325  PHE325      0.2264
     85  O         64.8670   19.7380   62.6900 O.2   325  PHE325     -0.2867
     86  CB        64.1800   19.9800   65.3690 C.3   325  PHE325      0.0534
     87  CG        63.7560   20.2440   66.7760 C.ar  325  PHE325     -0.0203
     88  CD1       63.7380   21.5330   67.2820 C.ar  325  PHE325     -0.0042
     89  CD2       63.3450   19.2090   67.5870 C.ar  325  PHE325     -0.0042
     90  CE1       63.3390   21.7770   68.5870 C.ar  325  PHE325     -0.0003
     91  CE2       62.9410   19.4470   68.8920 C.ar  325  PHE325     -0.0003
     92  CZ        62.9330   20.7380   69.3880 C.ar  325  PHE325     -0.0000
     93  N         74.9990   20.4280   60.4000 N.3   336  MET336     -0.1245
     94  CA        74.9420   21.7130   61.0950 C.3   336  MET336      0.1570
     95  C         76.3050   21.9840   61.7270 C.2   336  MET336      0.2261
     96  O         76.7370   21.2560   62.6270 O.2   336  MET336     -0.2867
     97  CB        73.8370   21.7280   62.1490 C.3   336  MET336      0.0387
     98  CG        72.4430   21.6000   61.5810 C.3   336  MET336      0.0595
     99  SD        72.0020   22.9670   60.4820 S.3   336  MET336     -0.1393
    100  CE        72.3370   22.2370   58.8700 C.3   336  MET336      0.0692
    101  N         78.2000   24.1750   64.0690 N.3   338  ILE338     -0.1245
    102  CA        77.9520   25.0990   65.1660 C.3   338  ILE338      0.1561
    103  C         79.2840   25.3960   65.8370 C.2   338  ILE338      0.2260
    104  O         79.8390   24.5550   66.5580 O.2   338  ILE338     -0.2867
    105  CB        76.9340   24.5280   66.1590 C.3   338  ILE338      0.0252
    106  CG1       75.6640   24.1040   65.4060 C.3   338  ILE338      0.0019
    107  CG2       76.6330   25.5500   67.2540 C.3   338  ILE338      0.0019
    108  CD1       74.8190   23.1140   66.1670 C.3   338  ILE338      0.0001
    109  N         78.3740   29.9600   72.1030 N.3   342  VAL342     -0.1245
    110  CA        78.2300   29.8930   70.6530 C.3   342  VAL342      0.1561
    111  C         78.8100   31.1500   70.0200 C.2   342  VAL342      0.2260
    112  O         78.4380   32.2730   70.3790 O.2   342  VAL342     -0.2867
    113  CB        76.7540   29.7050   70.2550 C.3   342  VAL342      0.0252
    114  CG1       76.6100   29.7020   68.7430 C.3   342  VAL342      0.0019
    115  CG2       76.2010   28.4070   70.8300 C.3   342  VAL342      0.0019
    116  N         79.0550   31.0990   63.0890 N.3   347  THR347     -0.1218
    117  CA        78.0000   30.1190   62.8680 C.3   347  THR347      0.1862
    118  C         76.9620   30.6990   61.9220 C.2   347  THR347      0.2287
    119  O         76.3770   31.7490   62.2060 O.2   347  THR347     -0.2866
    120  CB        77.3660   29.7260   64.1990 C.3   347  THR347      0.1770
    121  OG1       78.3690   29.1230   65.0320 O.3   347  THR347     -0.2211
    122  CG2       76.2140   28.7310   63.9850 C.3   347  THR347      0.0375
    123  N         74.7670   28.1610   59.8960 N.3   349  ASP349     -0.1225
    124  CA        73.6700   27.2050   59.8570 C.3   349  ASP349      0.1805
    125  C         72.6680   27.5010   60.9770 C.2   349  ASP349      0.2598
    126  O         73.0000   28.1140   61.9920 O.2   349  ASP349     -0.2718
    127  CB        74.2110   25.7800   60.0030 C.3   349  ASP349      0.1424
    128  CG        75.0910   25.3520   58.8290 C.2   349  ASP349      0.3668
    129  OD1       75.0190   25.9890   57.7470 O.co2 349  ASP349     -0.2456
    130  OD2       75.8330   24.3500   58.9850 O.co2 349  ASP349     -0.2456
    131  N         71.4270   27.0510   60.7970 N.am  350  SER350     -0.1938
    132  CA        70.4060   27.3140   61.8080 C.3   350  SER350      0.2055
    133  C         69.3790   26.1820   61.8460 C.2   350  SER350      0.2643
    134  O         69.3280   25.3210   60.9540 O.2   350  SER350     -0.2714
    135  CB        69.7120   28.6580   61.5550 C.3   350  SER350      0.2130
    136  OG        69.1780   28.7070   60.2370 O.3   350  SER350     -0.2179
    137  N         68.5480   26.1980   62.8970 N.am  351  VAL351     -0.1963
    138  CA        67.4370   25.2610   63.0460 C.3   351  VAL351      0.1727
    139  C         66.1510   26.0230   63.3680 C.2   351  VAL351      0.2616
    140  O         66.1470   26.9440   64.1940 O.2   351  VAL351     -0.2715
    141  CB        67.7200   24.1960   64.1300 C.3   351  VAL351      0.0290
    142  CG1       67.9570   24.8540   65.5160 C.3   351  VAL351      0.0023
    143  CG2       66.5860   23.1860   64.1830 C.3   351  VAL351      0.0023
    144  N         65.0570   25.6210   62.7150 N.am  352  TRP352     -0.1960
    145  CA        63.7210   26.1560   62.9610 C.3   352  TRP352      0.1771
    146  C         62.9630   25.2960   63.9600 C.2   352  TRP352      0.2620
    147  O         63.0660   24.0660   63.9280 O.2   352  TRP352     -0.2715
    148  CB        62.9210   26.2020   61.6550 C.3   352  TRP352      0.0590
    149  CG        63.4390   27.1680   60.6440 C.ar  352  TRP352      0.0006
    150  CD1       64.2940   26.9050   59.6110 C.ar  352  TRP352      0.0946
    151  CD2       63.1210   28.5620   60.5580 C.ar  352  TRP352      0.0152
    152  NE1       64.5310   28.0500   58.8910 N.ar  352  TRP352     -0.2442
    153  CE2       63.8290   29.0830   59.4570 C.ar  352  TRP352      0.0810
    154  CE3       62.3140   29.4210   61.3130 C.ar  352  TRP352      0.0012
    155  CZ2       63.7560   30.4260   59.0910 C.ar  352  TRP352      0.0191
    156  CZ3       62.2400   30.7530   60.9480 C.ar  352  TRP352      0.0001
    157  CH2       62.9520   31.2420   59.8430 C.ar  352  TRP352      0.0015
    158  N         62.1600   25.9340   64.8190 N.am  353  ASN353     -0.1958
    159  CA        61.2260   25.1470   65.6260 C.3   353  ASN353      0.1819
    160  C         60.3880   24.2190   64.7380 C.2   353  ASN353      0.2621
    161  O         60.1810   23.0400   65.0640 O.2   353  ASN353     -0.2715
    162  CB        60.3380   26.0620   66.4760 C.3   353  ASN353      0.1195
    163  CG        59.5050   27.0570   65.6460 C.2   353  ASN353      0.2630
    164  OD1       59.7210   27.2470   64.4430 O.2   353  ASN353     -0.2716
    165  ND2       58.5700   27.7260   66.3150 N.am  353  ASN353     -0.0877
    166  N         59.9530   24.7100   63.5820 N.am  354  TYR354     -0.1960
    167  CA        59.3740   23.8450   62.5630 C.3   354  TYR354      0.1771
    168  C         59.5570   24.5140   61.2190 C.2   354  TYR354      0.2619
    169  O         59.6600   25.7380   61.1290 O.2   354  TYR354     -0.2715
    170  CB        57.8780   23.5540   62.7860 C.3   354  TYR354      0.0574
    171  CG        56.9530   24.6890   62.3700 C.ar  354  TYR354     -0.0198
    172  CD1       56.6950   25.7460   63.2310 C.ar  354  TYR354     -0.0009
    173  CD2       56.3300   24.6960   61.1210 C.ar  354  TYR354     -0.0009
    174  CE1       55.8620   26.7890   62.8670 C.ar  354  TYR354      0.0417
    175  CE2       55.4870   25.7430   60.7440 C.ar  354  TYR354      0.0417
    176  CZ        55.2630   26.7870   61.6300 C.ar  354  TYR354      0.1957
    177  OH        54.4340   27.8330   61.2940 O.3   354  TYR354     -0.2866
    178  N         59.5840   23.6880   60.1770 N.am  355  HIS355     -0.1973
    179  CA        59.4510   24.1440   58.8040 C.3   355  HIS355      0.1656
    180  C         58.4620   23.2100   58.1310 C.2   355  HIS355      0.2291
    181  O         58.3000   22.0610   58.5500 O.2   355  HIS355     -0.2864
    182  CB        60.7870   24.1260   58.0620 C.3   355  HIS355      0.0771
    183  CG        60.7020   24.5640   56.6310 C.ar  355  HIS355      0.0820
    184  ND1       59.9620   25.6570   56.2260 N.ar  355  HIS355     -0.2267
    185  CD2       61.2920   24.0760   55.5150 C.ar  355  HIS355      0.1154
    186  CE1       60.0980   25.8180   54.9220 C.ar  355  HIS355      0.1986
    187  NE2       60.8970   24.8680   54.4650 N.ar  355  HIS355     -0.2212
    188  N         59.2740   27.8400   49.8650 N.3   380  THR380     -0.1204
    189  CA        59.8610   28.8310   50.7860 C.3   380  THR380      0.1979
    190  C         61.3020   29.0900   50.3660 C.2   380  THR380      0.2460
    191  O         62.0860   28.1390   50.2650 O.2   380  THR380     -0.2732
    192  CB        59.8460   28.3500   52.2400 C.3   380  THR380      0.1783
    193  OG1       58.4980   28.0970   52.6530 O.3   380  THR380     -0.2211
    194  CG2       60.4700   29.4340   53.1620 C.3   380  THR380      0.0376
    195  N         61.7000   30.3380   50.1260 N.am  381  PRO381     -0.2717
    196  CA        63.0900   30.5790   49.7230 C.3   381  PRO381      0.1535
    197  C         64.0310   30.3320   50.8950 C.2   381  PRO381      0.2598
    198  O         63.8750   30.9160   51.9720 O.2   381  PRO381     -0.2715
    199  CB        63.1010   32.0570   49.2950 C.3   381  PRO381      0.0310
    200  CG        61.6860   32.5330   49.3840 C.3   381  PRO381      0.0237
    201  CD        60.9610   31.6000   50.3080 C.3   381  PRO381      0.0939
    202  N         65.0170   29.4680   50.6780 N.am  382  GLN382     -0.1978
    203  CA        66.0730   29.2940   51.6720 C.3   382  GLN382      0.1601
    204  C         67.4200   29.2820   50.9670 C.2   382  GLN382      0.2287
    205  O         68.2430   30.1740   51.1820 O.2   382  GLN382     -0.2864
    206  CB        65.8700   28.0090   52.4800 C.3   382  GLN382      0.0394
    207  CG        64.6540   28.0640   53.3860 C.3   382  GLN382      0.0908
    208  CD        64.7760   27.1610   54.6030 C.2   382  GLN382      0.2608
    209  OE1       65.1860   27.6120   55.6830 O.2   382  GLN382     -0.2717
    210  NE2       64.4170   25.8810   54.4370 N.am  382  GLN382     -0.0878
    211  N         74.3250   17.4820   64.2410 N.3   421  LEU421     -0.1245
    212  CA        74.8440   18.7160   64.8110 C.3   421  LEU421      0.1561
    213  C         76.3060   18.4890   65.1600 C.2   421  LEU421      0.2260
    214  O         76.6340   17.5610   65.9100 O.2   421  LEU421     -0.2867
    215  CB        74.0700   19.1510   66.0540 C.3   421  LEU421      0.0270
    216  CG        72.5460   19.2050   66.0930 C.3   421  LEU421      0.0019
    217  CD1       72.1000   19.8310   67.4230 C.3   421  LEU421      0.0001
    218  CD2       72.0040   19.9690   64.8990 C.3   421  LEU421      0.0001
    219  N         79.3390   20.3160   66.9110 N.3   423  TYR423     -0.1241
    220  CA        79.8460   21.4090   67.7290 C.3   423  TYR423      0.1605
    221  C         81.3570   21.4800   67.5470 C.2   423  TYR423      0.2264
    222  O         82.0730   20.5180   67.8490 O.2   423  TYR423     -0.2867
    223  CB        79.4550   21.2350   69.1950 C.3   423  TYR423      0.0534
    224  CG        77.9530   21.2620   69.4080 C.ar  423  TYR423     -0.0201
    225  CD1       77.2750   22.4700   69.5800 C.ar  423  TYR423     -0.0009
    226  CD2       77.2070   20.0850   69.4110 C.ar  423  TYR423     -0.0009
    227  CE1       75.9010   22.5060   69.7690 C.ar  423  TYR423      0.0417
    228  CE2       75.8260   20.1090   69.5990 C.ar  423  TYR423      0.0417
    229  CZ        75.1830   21.3200   69.7820 C.ar  423  TYR423      0.1957
    230  OH        73.8180   21.3360   69.9660 O.3   423  TYR423     -0.2866
    231  N         68.9500   15.2880   67.1270 N.3   436  HIS436     -0.1226
    232  CA        68.1060   16.4510   67.3810 C.3   436  HIS436      0.1752
    233  C         67.2620   16.8130   66.1580 C.2   436  HIS436      0.2595
    234  O         66.0600   17.0770   66.2790 O.2   436  HIS436     -0.2718
    235  CB        68.9610   17.6470   67.7990 C.3   436  HIS436      0.0759
    236  CG        68.1640   18.8830   68.0820 C.ar  436  HIS436      0.0818
    237  ND1       67.1930   18.9350   69.0600 N.ar  436  HIS436     -0.2268
    238  CD2       68.1660   20.1030   67.4900 C.ar  436  HIS436      0.1154
    239  CE1       66.6490   20.1390   69.0740 C.ar  436  HIS436      0.1986
    240  NE2       67.2170   20.8640   68.1270 N.ar  436  HIS436     -0.2212
    241  N         67.8770   16.8310   64.9750 N.am  437  ILE437     -0.1980
    242  CA        67.2120   17.3350   63.7750 C.3   437  ILE437      0.1595
    243  C         66.1470   16.3500   63.3010 C.2   437  ILE437      0.2287
    244  O         66.3210   15.1230   63.3770 O.2   437  ILE437     -0.2864
    245  CB        68.2600   17.6160   62.6830 C.3   437  ILE437      0.0276
    246  CG1       69.2140   18.7280   63.1370 C.3   437  ILE437      0.0022
    247  CG2       67.6070   17.9870   61.3420 C.3   437  ILE437      0.0022
    248  CD1       68.5170   20.0160   63.4900 C.3   437  ILE437      0.0001
@<TRIPOS>BOND
     1   199   200    1
     2   199   196    1
     3   200   201    1
     4   196   195    1
     5   196   197    1
     6   188   189    1
     7   195   201    1
     8   195   190   am
     9   191   190    2
    10   190   189    1
    11   202   197   am
    12   202   203    1
    13   189   192    1
    14   197   198    2
    15   204   205    2
    16   204   203    1
    17   203   206    1
    18   192   193    1
    19   192   194    1
    20   206   207    1
    21   207   208    1
    22    65    64    2
    23    46    45   ar
    24    46    44   ar
    25    71    70    2
    26   210   208   am
    27   187   186   ar
    28   187   185   ar
    29    45    43   ar
    30    56    55    2
    31   208   209    2
    32   186   184   ar
    33    70    69    1
    34    53    54    1
    35    64    63    1
    36    64    68   am
    37    55    54    1
    38    55    62   am
    39    44    42   ar
    40    63    62    1
    41    63    66    1
    42   185   183   ar
    43    54    57    1
    44    43    40   ar
    45    69    68    1
    46    69    72    1
    47   184   183   ar
    48    66    67    1
    49   183   182    1
    50    42    40   ar
    51    42    41   ar
    52    40    38   ar
    53    57    58    1
    54    33    34    1
    55    72    73    1
    56    58    59    1
    57   129   128   ar
    58    74    73   ar
    59    74    76   ar
    60    73    75   ar
    61    41    39   ar
    62   182   179    1
    63   180   181    2
    64   180   179    1
    65    38    39   ar
    66    38    37    1
    67    76    77   ar
    68    75    77   ar
    69    75    78   ar
    70   179   178    1
    71   128   130   ar
    72   128   127    1
    73    34    37    1
    74    34    35    1
    75   100    99    1
    76    77    79   ar
    77   152   153   ar
    78   152   150   ar
    79    78    80   ar
    80    59    61   am
    81    59    60    2
    82   155   153   ar
    83   155   157   ar
    84   153   151   ar
    85    47    48    1
    86    79    81   ar
    87   150   149   ar
    88    25    24    2
    89    35    36    2
    90    80    81   ar
    91    28    27    1
    92    28    29    1
    93   157   156   ar
    94   124   123    1
    95   124   127    1
    96   124   125    1
    97    27    26    1
    98   178   168   am
    99    49    48    1
   100    49    50    2
   101    31    30    1
   102   136   135    1
   103    48    51    1
   104    93    94    1
   105    99    98    1
   106    24    23    1
   107   151   149   ar
   108   151   154   ar
   109   149   148    1
   110   175   173   ar
   111   175   176   ar
   112   131   125   am
   113   131   132    1
   114    29    30    2
   115   156   154   ar
   116   134   133    2
   117   125   126    2
   118    30    32    1
   119    26    23    1
   120    94    95    1
   121    94    97    1
   122   173   171   ar
   123   169   168    2
   124   168   167    1
   125   177   176    1
   126   247   245    1
   127   135   132    1
   128    98    97    1
   129   176   174   ar
   130    23    22    1
   131   148   145    1
   132    95    96    2
   133    51    52    1
   134   132   133    1
   135   133   137   am
   136   118   119    2
   137   118   117    1
   138   171   170    1
   139   171   172   ar
   140   167   170    1
   141   167   166    1
   142   245   246    1
   143   245   242    1
   144    85    84    2
   145   144   145    1
   146   144   139   am
   147   174   172   ar
   148   117   116    1
   149   117   120    1
   150   137   138    1
   151    84    83    1
   152   145   146    1
   153   138   139    1
   154   138   141    1
   155     5     2    1
   156     5     6    1
   157   246   248    1
   158   243   244    2
   159   243   242    1
   160     1     2    1
   161   139   140    2
   162   166   160   am
   163     7     6   ar
   164     7     9   ar
   165     2     3    1
   166   242   241    1
   167     6     8   ar
   168   147   146    2
   169   146   158   am
   170   122   120    1
   171   101   102    1
   172   141   143    1
   173   141   142    1
   174   120   121    1
   175   211   212    1
   176    82    83    1
   177     9    11   ar
   178    83    86    1
   179   164   163    2
   180   160   161    2
   181   160   159    1
   182     8    10   ar
   183   212   213    1
   184   212   215    1
   185   158   159    1
   186   218   216    1
   187   241   233   am
   188     3     4    2
   189   213   214    2
   190   102   103    1
   191   102   105    1
   192    11    10   ar
   193    11    12    1
   194    86    87    1
   195   106   105    1
   196   106   108    1
   197   159   162    1
   198   163   165   am
   199   163   162    1
   200   103   104    2
   201   215   216    1
   202   216   217    1
   203   233   234    2
   204   233   232    1
   205   105   107    1
   206    87    88   ar
   207    87    89   ar
   208   219   220    1
   209   231   232    1
   210    88    90   ar
   211   232   235    1
   212   238   236   ar
   213   238   240   ar
   214   221   220    1
   215   221   222    2
   216    89    91   ar
   217   220   223    1
   218   235   236    1
   219   236   237   ar
   220   240   239   ar
   221    13    14    1
   222    14    15    1
   223    14    17    1
   224    90    92   ar
   225   114   113    1
   226    91    92   ar
   227    15    16    2
   228   237   239   ar
   229   223   224    1
   230   224   226   ar
   231   224   225   ar
   232   226   228   ar
   233   225   227   ar
   234   228   229   ar
   235    17    18    1
   236   227   229   ar
   237   229   230    1
   238   111   112    2
   239   111   110    1
   240   113   110    1
   241   113   115    1
   242   110   109    1
   243    18    19    1
   244    21    19   ar
   245    19    20   ar
