@<TRIPOS>MOLECULE
tmp/5mhnB00.pdb
 256 252 0 0 0
SMALL
GASTEIGER

@<TRIPOS>ATOM
      1  N         52.4720   22.6140   63.7360 N.3   200  TYR200     -0.1241
      2  CA        53.6390   23.3610   64.1830 C.3   200  TYR200      0.1605
      3  C         53.7580   23.1740   65.6950 C.2   200  TYR200      0.2264
      4  O         53.1400   22.2680   66.2660 O.2   200  TYR200     -0.2867
      5  CB        53.5490   24.8300   63.7220 C.3   200  TYR200      0.0534
      6  CG        52.4120   25.6190   64.3230 C.ar  200  TYR200     -0.0201
      7  CD1       51.0960   25.3810   63.9440 C.ar  200  TYR200     -0.0009
      8  CD2       52.6530   26.5910   65.2920 C.ar  200  TYR200     -0.0009
      9  CE1       50.0450   26.1010   64.5050 C.ar  200  TYR200      0.0417
     10  CE2       51.6110   27.3160   65.8620 C.ar  200  TYR200      0.0417
     11  CZ        50.3090   27.0670   65.4660 C.ar  200  TYR200      0.1957
     12  OH        49.2720   27.7860   66.0200 O.3   200  TYR200     -0.2866
     13  N         55.9870   22.1100   69.0280 N.3   202  GLU202     -0.1245
     14  CA        57.1420   21.3120   69.4240 C.3   202  GLU202      0.1567
     15  C         56.8000   19.8370   69.2740 C.2   202  GLU202      0.2260
     16  O         55.6350   19.4790   69.1020 O.2   202  GLU202     -0.2867
     17  CB        57.5700   21.6230   70.8650 C.3   202  GLU202      0.0388
     18  CG        58.0100   23.0500   71.0770 C.3   202  GLU202      0.1160
     19  CD        59.2640   23.4430   70.3650 C.2   202  GLU202      0.3649
     20  OE1       60.0370   22.5640   69.9010 O.co2 202  GLU202     -0.2457
     21  OE2       59.5250   24.6550   70.3710 O.co2 202  GLU202     -0.2457
     22  N         47.3750   24.4880   62.7120 N.3   209  ARG209     -0.1245
     23  CA        46.9150   25.6600   61.9840 C.3   209  ARG209      0.1563
     24  C         46.0460   25.1630   60.8370 C.2   209  ARG209      0.2260
     25  O         46.5460   24.5200   59.9060 O.2   209  ARG209     -0.2867
     26  CB        48.1040   26.4690   61.4720 C.3   209  ARG209      0.0307
     27  CG        47.7420   27.5750   60.5170 C.3   209  ARG209      0.0489
     28  CD        46.7330   28.4920   61.1620 C.3   209  ARG209      0.2205
     29  NE        46.8350   29.8520   60.6570 N.pl3 209  ARG209     -0.0865
     30  CZ        47.6630   30.7630   61.1610 C.cat 209  ARG209      0.5346
     31  NH1       48.4580   30.4460   62.1790 N.pl3 209  ARG209      0.1354
     32  NH2       47.7010   31.9850   60.6470 N.pl3 209  ARG209      0.1354
     33  N         60.2480   38.3620   58.2110 N.3   265  TRP265     -0.1241
     34  CA        60.2430   38.1220   59.6530 C.3   265  TRP265      0.1605
     35  C         60.4340   39.4030   60.4580 C.2   265  TRP265      0.2264
     36  O         60.7150   39.3150   61.6570 O.2   265  TRP265     -0.2867
     37  CB        61.3280   37.1260   60.0600 C.3   265  TRP265      0.0550
     38  CG        60.9850   35.6950   59.8890 C.ar  265  TRP265      0.0003
     39  CD1       60.5830   34.8360   60.8730 C.ar  265  TRP265      0.0946
     40  CD2       60.9880   34.9410   58.6740 C.ar  265  TRP265      0.0152
     41  NE1       60.3480   33.5940   60.3490 N.ar  265  TRP265     -0.2442
     42  CE2       60.5890   33.6270   59.0000 C.ar  265  TRP265      0.0810
     43  CE3       61.2950   35.2460   57.3440 C.ar  265  TRP265      0.0012
     44  CZ2       60.4820   32.6170   58.0430 C.ar  265  TRP265      0.0191
     45  CZ3       61.1900   34.2520   56.3970 C.ar  265  TRP265      0.0001
     46  CH2       60.7850   32.9480   56.7480 C.ar  265  TRP265      0.0015
     47  N         50.9090   35.7230   59.8710 N.3   276  SER276     -0.1217
     48  CA        49.9640   35.1080   60.7860 C.3   276  SER276      0.1889
     49  C         48.5120   35.4240   60.4600 C.2   276  SER276      0.2288
     50  O         47.6190   34.7940   61.0310 O.2   276  SER276     -0.2866
     51  CB        50.2790   35.5680   62.2100 C.3   276  SER276      0.2089
     52  OG        50.1600   36.9820   62.3300 O.3   276  SER276     -0.2183
     53  N         55.5520   33.2610   55.3870 N.3   299  GLN299     -0.1231
     54  CA        56.5950   32.3990   55.9350 C.3   299  GLN299      0.1698
     55  C         56.2810   30.9530   55.5180 C.2   299  GLN299      0.2592
     56  O         55.3060   30.6890   54.8010 O.2   299  GLN299     -0.2718
     57  CB        56.6890   32.5320   57.4620 C.3   299  GLN299      0.0381
     58  CG        56.9460   33.9590   57.9700 C.3   299  GLN299      0.0905
     59  CD        57.1540   34.0460   59.4900 C.2   299  GLN299      0.2608
     60  OE1       57.0860   33.0390   60.1980 O.2   299  GLN299     -0.2717
     61  NE2       57.4030   35.2600   59.9900 N.am  299  GLN299     -0.0878
     62  N         57.1030   30.0160   56.0020 N.am  300  CYS300     -0.1956
     63  CA        57.0810   28.6100   55.6110 C.3   300  CYS300      0.1843
     64  C         55.6860   28.0650   55.3110 C.2   300  CYS300      0.2625
     65  O         55.3860   27.6480   54.1900 O.2   300  CYS300     -0.2714
     66  CB        57.7080   27.8070   56.7540 C.3   300  CYS300      0.0997
     67  SG        56.6600   27.6560   58.0950 S.3   300  CYS300     -0.0797
     68  N         54.8080   28.0920   56.3140 N.am  301  TRP301     -0.1974
     69  CA        53.5080   27.4450   56.1910 C.3   301  TRP301      0.1640
     70  C         52.6330   28.1330   55.1580 C.2   301  TRP301      0.2290
     71  O         51.7780   27.4770   54.5540 O.2   301  TRP301     -0.2864
     72  CB        52.8000   27.4180   57.5510 C.3   301  TRP301      0.0576
     73  CG        52.2350   28.7510   58.0230 C.ar  301  TRP301      0.0006
     74  CD1       50.9530   29.2040   57.8490 C.ar  301  TRP301      0.0946
     75  CD2       52.9150   29.7660   58.7840 C.ar  301  TRP301      0.0152
     76  NE1       50.8050   30.4460   58.4270 N.ar  301  TRP301     -0.2442
     77  CE2       51.9920   30.8100   59.0100 C.ar  301  TRP301      0.0810
     78  CE3       54.2160   29.9060   59.2700 C.ar  301  TRP301      0.0012
     79  CZ2       52.3320   31.9720   59.7110 C.ar  301  TRP301      0.0191
     80  CZ3       54.5540   31.0700   59.9690 C.ar  301  TRP301      0.0001
     81  CH2       53.6140   32.0810   60.1850 C.ar  301  TRP301      0.0015
     82  N         62.6800   20.6780   64.2080 N.3   325  PHE325     -0.1241
     83  CA        64.1300   20.8780   64.2380 C.3   325  PHE325      0.1605
     84  C         64.7250   20.6990   62.8390 C.2   325  PHE325      0.2264
     85  O         65.5380   19.8130   62.5770 O.2   325  PHE325     -0.2867
     86  CB        64.8020   19.9710   65.2730 C.3   325  PHE325      0.0534
     87  CG        64.4650   20.3320   66.6980 C.ar  325  PHE325     -0.0203
     88  CD1       63.3050   19.8670   67.2900 C.ar  325  PHE325     -0.0042
     89  CD2       65.3030   21.1470   67.4410 C.ar  325  PHE325     -0.0042
     90  CE1       62.9890   20.2010   68.5960 C.ar  325  PHE325     -0.0003
     91  CE2       64.9970   21.4760   68.7530 C.ar  325  PHE325     -0.0003
     92  CZ        63.8370   20.9990   69.3310 C.ar  325  PHE325     -0.0000
     93  N         75.7190   20.5040   60.0210 N.3   336  MET336     -0.1245
     94  CA        75.6410   21.7900   60.6950 C.3   336  MET336      0.1570
     95  C         76.9900   22.0730   61.3480 C.2   336  MET336      0.2261
     96  O         77.4260   21.3350   62.2400 O.2   336  MET336     -0.2867
     97  CB        74.5220   21.8130   61.7330 C.3   336  MET336      0.0387
     98  CG        73.1310   21.5590   61.1870 C.3   336  MET336      0.0595
     99  SD        72.4510   22.8250   60.1080 S.3   336  MET336     -0.1393
    100  CE        72.8630   22.1480   58.5030 C.3   336  MET336      0.0692
    101  N         78.9990   24.2040   63.7060 N.3   338  ILE338     -0.1245
    102  CA        78.7270   25.0610   64.8540 C.3   338  ILE338      0.1561
    103  C         80.0590   25.3950   65.5150 C.2   338  ILE338      0.2260
    104  O         80.6750   24.5360   66.1550 O.2   338  ILE338     -0.2867
    105  CB        77.7660   24.3800   65.8330 C.3   338  ILE338      0.0252
    106  CG1       76.5430   23.8550   65.0710 C.3   338  ILE338      0.0019
    107  CG2       77.3630   25.3340   66.9470 C.3   338  ILE338      0.0019
    108  CD1       75.6800   22.9100   65.8780 C.3   338  ILE338      0.0001
    109  N         80.6550   29.7800   71.8300 N.3   341  VAL341     -0.1245
    110  CA        79.9240   29.4780   70.6090 C.3   341  VAL341      0.1561
    111  C         79.9350   30.7030   69.6690 C.2   341  VAL341      0.2260
    112  O         79.0490   31.5600   69.7030 O.2   341  VAL341     -0.2867
    113  CB        78.4850   28.9690   70.9380 C.3   341  VAL341      0.0252
    114  CG1       77.7710   29.9010   71.9160 C.3   341  VAL341      0.0019
    115  CG2       77.6700   28.7390   69.6690 C.3   341  VAL341      0.0019
    116  N         79.7620   31.0220   62.8750 N.3   346  THR346     -0.1218
    117  CA        78.6460   30.1060   62.6760 C.3   346  THR346      0.1862
    118  C         77.6220   30.7320   61.7410 C.2   346  THR346      0.2287
    119  O         77.0070   31.7480   62.0780 O.2   346  THR346     -0.2866
    120  CB        77.9880   29.7460   64.0080 C.3   346  THR346      0.1770
    121  OG1       78.8710   28.9260   64.7810 O.3   346  THR346     -0.2211
    122  CG2       76.6650   29.0190   63.7920 C.3   346  THR346      0.0375
    123  N         75.3810   28.3650   59.7860 N.3   348  ASP348     -0.1225
    124  CA        74.2420   27.4640   59.7000 C.3   348  ASP348      0.1805
    125  C         73.2870   27.7210   60.8620 C.2   348  ASP348      0.2598
    126  O         73.6370   28.3580   61.8560 O.2   348  ASP348     -0.2718
    127  CB        74.6890   25.9990   59.7250 C.3   348  ASP348      0.1424
    128  CG        75.5200   25.6070   58.5180 C.2   348  ASP348      0.3668
    129  OD1       75.4950   26.3290   57.4890 O.co2 348  ASP348     -0.2456
    130  OD2       76.1980   24.5560   58.6070 O.co2 348  ASP348     -0.2456
    131  N         72.0740   27.1860   60.7430 N.am  349  SER349     -0.1938
    132  CA        71.0160   27.4350   61.7140 C.3   349  SER349      0.2055
    133  C         70.0370   26.2660   61.6990 C.2   349  SER349      0.2643
    134  O         70.0290   25.4460   60.7760 O.2   349  SER349     -0.2714
    135  CB        70.2900   28.7580   61.4280 C.3   349  SER349      0.2130
    136  OG        69.8830   28.8610   60.0700 O.3   349  SER349     -0.2179
    137  N         69.1980   26.2070   62.7330 N.am  350  VAL350     -0.1963
    138  CA        68.1250   25.2260   62.8240 C.3   350  VAL350      0.1727
    139  C         66.8130   25.9310   63.1610 C.2   350  VAL350      0.2616
    140  O         66.7620   26.7590   64.0780 O.2   350  VAL350     -0.2715
    141  CB        68.4450   24.1430   63.8720 C.3   350  VAL350      0.0290
    142  CG1       68.7350   24.7910   65.2170 C.3   350  VAL350      0.0023
    143  CG2       67.2950   23.1520   63.9720 C.3   350  VAL350      0.0023
    144  N         65.7520   25.5920   62.4320 N.am  351  TRP351     -0.1960
    145  CA        64.4240   26.1300   62.7020 C.3   351  TRP351      0.1771
    146  C         63.6590   25.2440   63.6750 C.2   351  TRP351      0.2620
    147  O         63.7520   24.0110   63.6160 O.2   351  TRP351     -0.2715
    148  CB        63.6150   26.2430   61.4190 C.3   351  TRP351      0.0590
    149  CG        64.1330   27.1980   60.4160 C.ar  351  TRP351      0.0006
    150  CD1       64.9490   26.9150   59.3530 C.ar  351  TRP351      0.0946
    151  CD2       63.8180   28.5830   60.3230 C.ar  351  TRP351      0.0152
    152  NE1       65.1730   28.0440   58.6180 N.ar  351  TRP351     -0.2442
    153  CE2       64.4870   29.0860   59.1900 C.ar  351  TRP351      0.0810
    154  CE3       63.0290   29.4540   61.0900 C.ar  351  TRP351      0.0012
    155  CZ2       64.3980   30.4100   58.8090 C.ar  351  TRP351      0.0191
    156  CZ3       62.9430   30.7660   60.7130 C.ar  351  TRP351      0.0001
    157  CH2       63.6210   31.2350   59.5790 C.ar  351  TRP351      0.0015
    158  N         62.8520   25.8800   64.5320 N.am  352  ASN352     -0.1958
    159  CA        62.0060   25.1160   65.4440 C.3   352  ASN352      0.1819
    160  C         61.1070   24.1680   64.6780 C.2   352  ASN352      0.2621
    161  O         60.7850   23.0810   65.1670 O.2   352  ASN352     -0.2715
    162  CB        61.1630   26.0480   66.3180 C.3   352  ASN352      0.1195
    163  CG        60.2740   26.9690   65.5120 C.2   352  ASN352      0.2630
    164  OD1       60.5690   27.2980   64.3590 O.2   352  ASN352     -0.2716
    165  ND2       59.1640   27.3820   66.1120 N.am  352  ASN352     -0.0877
    166  N         60.6990   24.5650   63.4840 N.am  353  TYR353     -0.1960
    167  CA        59.9840   23.7020   62.5730 C.3   353  TYR353      0.1771
    168  C         60.0030   24.3680   61.2140 C.2   353  TYR353      0.2619
    169  O         60.1040   25.5900   61.1050 O.2   353  TYR353     -0.2715
    170  CB        58.5470   23.4590   63.0280 C.3   353  TYR353      0.0574
    171  CG        57.6360   24.6310   62.8130 C.ar  353  TYR353     -0.0198
    172  CD1       57.4510   25.5890   63.8050 C.ar  353  TYR353     -0.0009
    173  CD2       56.9510   24.7800   61.6160 C.ar  353  TYR353     -0.0009
    174  CE1       56.6120   26.6680   63.6060 C.ar  353  TYR353      0.0417
    175  CE2       56.1220   25.8490   61.4030 C.ar  353  TYR353      0.0417
    176  CZ        55.9520   26.7940   62.4000 C.ar  353  TYR353      0.1957
    177  OH        55.1080   27.8570   62.1660 O.3   353  TYR353     -0.2866
    178  N         59.8640   23.5520   60.1810 N.am  354  HIS354     -0.1973
    179  CA        59.7520   24.0470   58.8210 C.3   354  HIS354      0.1656
    180  C         58.7020   23.2190   58.0960 C.2   354  HIS354      0.2291
    181  O         58.4250   22.0740   58.4640 O.2   354  HIS354     -0.2864
    182  CB        61.1040   24.0000   58.1050 C.3   354  HIS354      0.0771
    183  CG        61.0560   24.4360   56.6840 C.ar  354  HIS354      0.0820
    184  ND1       60.2530   25.4640   56.2470 N.ar  354  HIS354     -0.2267
    185  CD2       61.7010   23.9700   55.5910 C.ar  354  HIS354      0.1154
    186  CE1       60.4240   25.6320   54.9480 C.ar  354  HIS354      0.1986
    187  NE2       61.2870   24.7270   54.5220 N.ar  354  HIS354     -0.2212
    188  N         59.4090   27.8330   49.8820 N.3   379  THR379     -0.1204
    189  CA        60.0340   28.8060   50.7790 C.3   379  THR379      0.1979
    190  C         61.4690   29.0450   50.3170 C.2   379  THR379      0.2460
    191  O         62.2150   28.0810   50.1190 O.2   379  THR379     -0.2732
    192  CB        60.0570   28.3240   52.2440 C.3   379  THR379      0.1783
    193  OG1       58.7350   28.2860   52.7970 O.3   379  THR379     -0.2211
    194  CG2       60.9240   29.2600   53.1050 C.3   379  THR379      0.0376
    195  N         61.8870   30.2900   50.1090 N.am  380  PRO380     -0.2717
    196  CA        63.2720   30.5360   49.6790 C.3   380  PRO380      0.1535
    197  C         64.2390   30.2720   50.8220 C.2   380  PRO380      0.2598
    198  O         64.1100   30.8490   51.9020 O.2   380  PRO380     -0.2715
    199  CB        63.2650   32.0230   49.2870 C.3   380  PRO380      0.0310
    200  CG        61.8130   32.3780   49.1640 C.3   380  PRO380      0.0237
    201  CD        61.1200   31.5430   50.1800 C.3   380  PRO380      0.0939
    202  N         65.2130   29.4050   50.5860 N.am  381  GLN381     -0.1978
    203  CA        66.2610   29.2690   51.5850 C.3   381  GLN381      0.1601
    204  C         67.6300   29.2320   50.9280 C.2   381  GLN381      0.2287
    205  O         68.5600   29.8730   51.4030 O.2   381  GLN381     -0.2864
    206  CB        66.0360   28.0300   52.4590 C.3   381  GLN381      0.0394
    207  CG        64.9230   28.2190   53.4810 C.3   381  GLN381      0.0908
    208  CD        64.9400   27.1790   54.5950 C.2   381  GLN381      0.2608
    209  OE1       65.2050   27.5110   55.7630 O.2   381  GLN381     -0.2717
    210  NE2       64.6590   25.9150   54.2440 N.am  381  GLN381     -0.0878
    211  N         75.1640   17.5590   63.8730 N.3   420  LEU420     -0.1245
    212  CA        75.7660   18.7840   64.3820 C.3   420  LEU420      0.1561
    213  C         77.2410   18.5210   64.6490 C.2   420  LEU420      0.2260
    214  O         77.5830   17.6000   65.3950 O.2   420  LEU420     -0.2867
    215  CB        75.0750   19.2580   65.6570 C.3   420  LEU420      0.0270
    216  CG        73.5490   19.2690   65.7160 C.3   420  LEU420      0.0019
    217  CD1       73.0840   19.9360   67.0070 C.3   420  LEU420      0.0001
    218  CD2       72.9580   19.9650   64.5050 C.3   420  LEU420      0.0001
    219  N         80.4760   20.2530   66.1490 N.3   422  TYR422     -0.1241
    220  CA        81.0050   21.3390   66.9630 C.3   422  TYR422      0.1605
    221  C         82.5080   21.4660   66.7130 C.2   422  TYR422      0.2264
    222  O         83.2560   20.4990   66.8940 O.2   422  TYR422     -0.2867
    223  CB        80.6970   21.0900   68.4420 C.3   422  TYR422      0.0534
    224  CG        79.2230   21.2160   68.7950 C.ar  422  TYR422     -0.0201
    225  CD1       78.7090   22.3760   69.3670 C.ar  422  TYR422     -0.0009
    226  CD2       78.3490   20.1670   68.5640 C.ar  422  TYR422     -0.0009
    227  CE1       77.3540   22.4850   69.6880 C.ar  422  TYR422      0.0417
    228  CE2       77.0030   20.2660   68.8780 C.ar  422  TYR422      0.0417
    229  CZ        76.5090   21.4180   69.4330 C.ar  422  TYR422      0.1957
    230  OH        75.1700   21.4820   69.7380 O.3   422  TYR422     -0.2866
    231  N         76.3780   15.8140   67.5870 N.3   430  ASP430     -0.1239
    232  CA        75.0000   15.4730   67.9220 C.3   430  ASP430      0.1674
    233  C         74.3390   14.8960   66.6740 C.2   430  ASP430      0.2266
    234  O         74.1950   15.5940   65.6660 O.2   430  ASP430     -0.2867
    235  CB        74.2300   16.6900   68.4500 C.3   430  ASP430      0.1410
    236  CG        72.8660   16.3190   69.0550 C.2   430  ASP430      0.3668
    237  OD1       72.2950   15.2670   68.6940 O.co2 430  ASP430     -0.2456
    238  OD2       72.3470   17.0820   69.8910 O.co2 430  ASP430     -0.2456
    239  N         69.7370   15.4710   67.0200 N.3   433  HIS433     -0.1226
    240  CA        69.0390   16.7360   67.2220 C.3   433  HIS433      0.1752
    241  C         68.1250   17.0560   66.0520 C.2   433  HIS433      0.2595
    242  O         66.9670   17.4360   66.2490 O.2   433  HIS433     -0.2718
    243  CB        70.0520   17.8640   67.4340 C.3   433  HIS433      0.0759
    244  CG        69.4360   19.2010   67.7100 C.ar  433  HIS433      0.0818
    245  ND1       68.6570   19.4500   68.8190 N.ar  433  HIS433     -0.2268
    246  CD2       69.5330   20.3800   67.0500 C.ar  433  HIS433      0.1154
    247  CE1       68.2790   20.7170   68.8170 C.ar  433  HIS433      0.1986
    248  NE2       68.7970   21.3030   67.7530 N.ar  433  HIS433     -0.2212
    249  N         68.6190   16.8780   64.8350 N.am  434  ILE434     -0.1980
    250  CA        67.9300   17.3500   63.6380 C.3   434  ILE434      0.1595
    251  C         66.8280   16.3790   63.2430 C.2   434  ILE434      0.2287
    252  O         67.0270   15.1540   63.2260 O.2   434  ILE434     -0.2864
    253  CB        68.9250   17.5460   62.4860 C.3   434  ILE434      0.0276
    254  CG1       69.8730   18.6850   62.8380 C.3   434  ILE434      0.0022
    255  CG2       68.1870   17.8220   61.1910 C.3   434  ILE434      0.0022
    256  CD1       69.1470   19.9420   63.2510 C.3   434  ILE434      0.0001
@<TRIPOS>BOND
     1   200   199    1
     2   200   201    1
     3   199   196    1
     4   196   195    1
     5   196   197    1
     6   188   189    1
     7   195   201    1
     8   195   190   am
     9   191   190    2
    10   190   189    1
    11   202   197   am
    12   202   203    1
    13   189   192    1
    14   197   198    2
    15   204   205    2
    16   204   203    1
    17   203   206    1
    18   192   193    1
    19   192   194    1
    20   206   207    1
    21   207   208    1
    22    65    64    2
    23   210   208   am
    24   187   186   ar
    25   187   185   ar
    26    71    70    2
    27   208   209    2
    28    56    55    2
    29   186   184   ar
    30    70    69    1
    31    64    63    1
    32    64    68   am
    33    53    54    1
    34    55    54    1
    35    55    62   am
    36   185   183   ar
    37    63    62    1
    38    63    66    1
    39    54    57    1
    40    69    68    1
    41    69    72    1
    42   184   183   ar
    43    45    46   ar
    44    45    43   ar
    45   183   182    1
    46    46    44   ar
    47    66    67    1
    48    43    40   ar
    49    57    58    1
    50   129   128   ar
    51    72    73    1
    52    74    73   ar
    53    74    76   ar
    54    58    59    1
    55    73    75   ar
    56    44    42   ar
    57   180   181    2
    58   180   179    1
    59   182   179    1
    60    33    34    1
    61    76    77   ar
    62   100    99    1
    63   128   130   ar
    64   128   127    1
    65   152   153   ar
    66   152   150   ar
    67    40    42   ar
    68    40    38   ar
    69    75    77   ar
    70    75    78   ar
    71   155   153   ar
    72   155   157   ar
    73   179   178    1
    74    42    41   ar
    75    77    79   ar
    76   153   151   ar
    77    78    80   ar
    78   150   149   ar
    79    59    61   am
    80    59    60    2
    81   157   156   ar
    82    34    37    1
    83    34    35    1
    84   124   127    1
    85   124   123    1
    86   124   125    1
    87    79    81   ar
    88    47    48    1
    89    38    37    1
    90    38    39   ar
    91    25    24    2
    92    80    81   ar
    93    93    94    1
    94   136   135    1
    95    99    98    1
    96   178   168   am
    97   151   149   ar
    98   151   154   ar
    99    41    39   ar
   100   149   148    1
   101    35    36    2
   102    49    48    1
   103    49    50    2
   104    27    28    1
   105    27    26    1
   106    32    30    1
   107    29    30    2
   108    29    28    1
   109    94    95    1
   110    94    97    1
   111   156   154   ar
   112   131   125   am
   113   131   132    1
   114   134   133    2
   115    48    51    1
   116    24    23    1
   117   125   126    2
   118   169   168    2
   119    30    31    1
   120    98    97    1
   121   255   253    1
   122   168   167    1
   123    95    96    2
   124   175   173   ar
   125   175   176   ar
   126   148   145    1
   127   135   132    1
   128    26    23    1
   129   173   171   ar
   130   133   132    1
   131   133   137   am
   132   118   119    2
   133   118   117    1
   134    23    22    1
   135   177   176    1
   136    51    52    1
   137   176   174   ar
   138   144   145    1
   139   144   139   am
   140   253   254    1
   141   253   250    1
   142   167   170    1
   143   167   166    1
   144    85    84    2
   145   117   116    1
   146   117   120    1
   147   145   146    1
   148   137   138    1
   149   171   170    1
   150   171   172   ar
   151   138   139    1
   152   138   141    1
   153   254   256    1
   154    84    83    1
   155   139   140    2
   156   252   251    2
   157   251   250    1
   158   166   160   am
   159   174   172   ar
   160   147   146    2
   161   250   249    1
   162   146   158   am
   163   101   102    1
   164     5     2    1
   165     5     6    1
   166     1     2    1
   167   122   120    1
   168   141   143    1
   169   141   142    1
   170   211   212    1
   171     7     6   ar
   172     7     9   ar
   173   120   121    1
   174     2     3    1
   175    82    83    1
   176    83    86    1
   177     6     8   ar
   178   164   163    2
   179   212   213    1
   180   212   215    1
   181   218   216    1
   182     9    11   ar
   183   158   159    1
   184   213   214    2
   185   160   161    2
   186   160   159    1
   187   249   241   am
   188   102   103    1
   189   102   105    1
   190   106   105    1
   191   106   108    1
   192    86    87    1
   193     8    10   ar
   194   159   162    1
   195    11    10   ar
   196    11    12    1
   197   163   165   am
   198   163   162    1
   199   103   104    2
   200   215   216    1
   201   234   233    2
   202     3     4    2
   203   216   217    1
   204   105   107    1
   205   241   242    2
   206   241   240    1
   207   219   220    1
   208   233   232    1
   209    87    88   ar
   210    87    89   ar
   211   221   222    2
   212   221   220    1
   213   220   223    1
   214   239   240    1
   215   246   244   ar
   216   246   248   ar
   217   240   243    1
   218    88    90   ar
   219   243   244    1
   220    89    91   ar
   221   231   232    1
   222   244   245   ar
   223   248   247   ar
   224   232   235    1
   225   223   224    1
   226   235   236    1
   227   226   224   ar
   228   226   228   ar
   229    90    92   ar
   230   237   236   ar
   231    91    92   ar
   232   224   225   ar
   233   247   245   ar
   234   228   229   ar
   235    13    14    1
   236   236   238   ar
   237    16    15    2
   238    15    14    1
   239   225   227   ar
   240    14    17    1
   241   229   227   ar
   242   229   230    1
   243   111   112    2
   244   111   110    1
   245   115   113    1
   246    20    19   ar
   247    19    21   ar
   248    19    18    1
   249   110   113    1
   250   110   109    1
   251    17    18    1
   252   113   114    1
