@<TRIPOS>MOLECULE
tmp/5mhnA00.pdb
 256 251 0 0 0
SMALL
GASTEIGER

@<TRIPOS>ATOM
      1  N         41.9740   63.9560    8.2070 N.3   198  ILE198     -0.1245
      2  CA        43.4140   64.1670    8.1830 C.3   198  ILE198      0.1561
      3  C         43.9060   64.2190    9.6180 C.2   198  ILE198      0.2260
      4  O         43.3280   64.9310   10.4480 O.2   198  ILE198     -0.2867
      5  CB        43.7820   65.4610    7.4400 C.3   198  ILE198      0.0252
      6  CG1       43.0900   65.4670    6.0750 C.3   198  ILE198      0.0019
      7  CG2       45.3110   65.6100    7.3710 C.3   198  ILE198      0.0019
      8  CD1       43.3140   66.6840    5.2280 C.3   198  ILE198      0.0001
      9  N         46.7170   64.9200   12.6480 N.3   200  TYR200     -0.1241
     10  CA        47.7960   65.8320   13.0120 C.3   200  TYR200      0.1605
     11  C         48.0170   65.7160   14.5160 C.2   200  TYR200      0.2264
     12  O         47.7030   64.6880   15.1240 O.2   200  TYR200     -0.2867
     13  CB        47.4820   67.2740   12.5550 C.3   200  TYR200      0.0534
     14  CG        46.3080   67.9610   13.2310 C.ar  200  TYR200     -0.0201
     15  CD1       45.0050   67.5170   13.0160 C.ar  200  TYR200     -0.0009
     16  CD2       46.4960   69.0970   14.0290 C.ar  200  TYR200     -0.0009
     17  CE1       43.9210   68.1550   13.5870 C.ar  200  TYR200      0.0417
     18  CE2       45.4120   69.7490   14.6190 C.ar  200  TYR200      0.0417
     19  CZ        44.1250   69.2650   14.3870 C.ar  200  TYR200      0.1957
     20  OH        43.0260   69.8690   14.9530 O.3   200  TYR200     -0.2866
     21  N         50.4240   65.2830   17.7990 N.3   202  GLU202     -0.1245
     22  CA        51.6670   64.6240   18.1730 C.3   202  GLU202      0.1567
     23  C         51.4030   63.1290   18.3070 C.2   202  GLU202      0.2260
     24  O         50.2570   62.6980   18.4250 O.2   202  GLU202     -0.2867
     25  CB        52.2430   65.2010   19.4780 C.3   202  GLU202      0.0388
     26  CG        52.6080   66.6620   19.3920 C.3   202  GLU202      0.1160
     27  CD        53.7380   66.9830   18.4680 C.2   202  GLU202      0.3649
     28  OE1       54.5090   66.0730   18.0610 O.co2 202  GLU202     -0.2457
     29  OE2       53.9160   68.1890   18.2390 O.co2 202  GLU202     -0.2457
     30  N         41.3910   66.4360   11.8260 N.3   209  ARG209     -0.1245
     31  CA        40.7480   67.4730   11.0230 C.3   209  ARG209      0.1563
     32  C         39.9210   66.8320    9.9140 C.2   209  ARG209      0.2260
     33  O         40.4620   66.1020    9.0750 O.2   209  ARG209     -0.2867
     34  CB        41.7590   68.4260   10.3980 C.3   209  ARG209      0.0307
     35  CG        41.0790   69.6500    9.8560 C.3   209  ARG209      0.0489
     36  CD        42.0290   70.5540    9.1180 C.3   209  ARG209      0.2205
     37  NE        42.3130   71.7700    9.8810 N.pl3 209  ARG209     -0.0865
     38  CZ        41.4890   72.8140    9.9630 C.cat 209  ARG209      0.5346
     39  NH1       41.8360   73.8710   10.6790 N.pl3 209  ARG209      0.1354
     40  NH2       40.3150   72.8040    9.3380 N.pl3 209  ARG209      0.1354
     41  N         54.1150   79.8430    6.0970 N.3   265  TRP265     -0.1241
     42  CA        54.2460   79.3870    7.4750 C.3   265  TRP265      0.1605
     43  C         54.5400   80.5390    8.4330 C.2   265  TRP265      0.2264
     44  O         55.0160   80.3010    9.5500 O.2   265  TRP265     -0.2867
     45  CB        55.3380   78.3150    7.5490 C.3   265  TRP265      0.0550
     46  CG        54.9220   77.0650    6.8070 C.ar  265  TRP265      0.0003
     47  CD1       54.3630   75.9470    7.3350 C.ar  265  TRP265      0.0946
     48  CD2       55.0300   76.8300    5.3850 C.ar  265  TRP265      0.0152
     49  NE1       54.1030   75.0320    6.3400 N.ar  265  TRP265     -0.2442
     50  CE2       54.5080   75.5460    5.1350 C.ar  265  TRP265      0.0810
     51  CE3       55.5130   77.5860    4.3000 C.ar  265  TRP265      0.0012
     52  CZ2       54.4570   74.9910    3.8410 C.ar  265  TRP265      0.0191
     53  CZ3       55.4640   77.0360    3.0170 C.ar  265  TRP265      0.0001
     54  CH2       54.9390   75.7520    2.8010 C.ar  265  TRP265      0.0015
     55  N         44.7520   77.4490    8.3850 N.3   276  SER276     -0.1217
     56  CA        43.8460   76.7720    9.3050 C.3   276  SER276      0.1889
     57  C         42.3730   77.0760    9.0580 C.2   276  SER276      0.2288
     58  O         41.5270   76.4400    9.6890 O.2   276  SER276     -0.2866
     59  CB        44.1830   77.1480   10.7480 C.3   276  SER276      0.2089
     60  OG        44.0080   78.5470   10.9690 O.3   276  SER276     -0.2183
     61  N         49.3180   75.0510    3.9170 N.3   299  GLN299     -0.1231
     62  CA        50.4350   74.2690    4.4360 C.3   299  GLN299      0.1698
     63  C         50.1600   72.7900    4.1420 C.2   299  GLN299      0.2592
     64  O         49.1450   72.4380    3.5210 O.2   299  GLN299     -0.2718
     65  CB        50.6390   74.5030    5.9410 C.3   299  GLN299      0.0381
     66  CG        50.8600   75.9640    6.3490 C.3   299  GLN299      0.0905
     67  CD        51.2560   76.1250    7.8270 C.2   299  GLN299      0.2608
     68  OE1       51.3760   75.1450    8.5500 O.2   299  GLN299     -0.2717
     69  NE2       51.4410   77.3710    8.2740 N.am  299  GLN299     -0.0878
     70  N         51.0490   71.9230    4.6330 N.am  300  CYS300     -0.1956
     71  CA        51.0850   70.4980    4.2940 C.3   300  CYS300      0.1843
     72  C         49.6940   69.8930    4.0560 C.2   300  CYS300      0.2625
     73  O         49.3940   69.4270    2.9500 O.2   300  CYS300     -0.2714
     74  CB        51.8790   69.7280    5.3810 C.3   300  CYS300      0.0997
     75  SG        51.1220   69.4370    6.9030 S.3   300  CYS300     -0.0797
     76  N         48.8090   69.9590    5.0510 N.am  301  TRP301     -0.1974
     77  CA        47.5380   69.2470    4.9490 C.3   301  TRP301      0.1640
     78  C         46.6160   69.8360    3.8930 C.2   301  TRP301      0.2290
     79  O         45.8400   69.0970    3.2790 O.2   301  TRP301     -0.2864
     80  CB        46.8360   69.2250    6.3070 C.3   301  TRP301      0.0576
     81  CG        46.2280   70.5480    6.7620 C.ar  301  TRP301      0.0006
     82  CD1       44.9230   70.9430    6.6340 C.ar  301  TRP301      0.0946
     83  CD2       46.9050   71.6220    7.4460 C.ar  301  TRP301      0.0152
     84  NE1       44.7420   72.1880    7.1910 N.ar  301  TRP301     -0.2442
     85  CE2       45.9410   72.6270    7.7030 C.ar  301  TRP301      0.0810
     86  CE3       48.2220   71.8150    7.8960 C.ar  301  TRP301      0.0012
     87  CZ2       46.2650   73.8380    8.3620 C.ar  301  TRP301      0.0191
     88  CZ3       48.5430   73.0170    8.5530 C.ar  301  TRP301      0.0001
     89  CH2       47.5630   74.0070    8.7780 C.ar  301  TRP301      0.0015
     90  N         56.9830   63.2250   13.1550 N.3   325  PHE325     -0.1241
     91  CA        58.4320   63.4400   13.1110 C.3   325  PHE325      0.1605
     92  C         58.9680   63.2170   11.6910 C.2   325  PHE325      0.2264
     93  O         59.7190   62.2870   11.4060 O.2   325  PHE325     -0.2867
     94  CB        59.1610   62.5580   14.1340 C.3   325  PHE325      0.0534
     95  CG        58.8870   62.9410   15.5560 C.ar  325  PHE325     -0.0203
     96  CD1       59.6540   63.9050   16.1870 C.ar  325  PHE325     -0.0042
     97  CD2       57.8560   62.3540   16.2580 C.ar  325  PHE325     -0.0042
     98  CE1       59.4030   64.2700   17.4990 C.ar  325  PHE325     -0.0003
     99  CE2       57.5970   62.7180   17.5720 C.ar  325  PHE325     -0.0003
    100  CZ        58.3690   63.6770   18.1900 C.ar  325  PHE325     -0.0000
    101  N         69.9630   63.2110    8.7310 N.3   336  MET336     -0.1245
    102  CA        69.8380   64.5270    9.3420 C.3   336  MET336      0.1570
    103  C         71.2060   64.9600    9.8430 C.2   336  MET336      0.2261
    104  O         71.7970   64.3030   10.7070 O.2   336  MET336     -0.2867
    105  CB        68.8110   64.5020   10.4690 C.3   336  MET336      0.0387
    106  CG        67.4260   64.1350    9.9790 C.3   336  MET336      0.0595
    107  SD        66.6030   65.3920    8.9800 S.3   336  MET336     -0.1393
    108  CE        67.0760   64.9150    7.3190 C.3   336  MET336      0.0692
    109  N         73.2130   67.3610   11.8870 N.3   338  ILE338     -0.1245
    110  CA        72.9920   68.2660   13.0040 C.3   338  ILE338      0.1561
    111  C         74.3570   68.6990   13.5170 C.2   338  ILE338      0.2260
    112  O         75.0810   67.8980   14.1200 O.2   338  ILE338     -0.2867
    113  CB        72.1720   67.6000   14.1130 C.3   338  ILE338      0.0252
    114  CG1       70.9220   66.9600   13.5250 C.3   338  ILE338      0.0019
    115  CG2       71.8160   68.6130   15.1910 C.3   338  ILE338      0.0019
    116  CD1       70.2100   66.0810   14.4880 C.3   338  ILE338      0.0001
    117  N         73.8040   73.6890   19.8750 N.3   341  VAL341     -0.1245
    118  CA        73.6810   73.3280   18.4610 C.3   341  VAL341      0.1561
    119  C         73.8320   74.5350   17.5500 C.2   341  VAL341      0.2260
    120  O         73.1670   75.5540   17.7210 O.2   341  VAL341     -0.2867
    121  CB        72.3390   72.5920   18.1530 C.3   341  VAL341      0.0252
    122  CG1       71.1610   73.3300   18.7500 C.3   341  VAL341      0.0019
    123  CG2       72.1460   72.4800   16.6540 C.3   341  VAL341      0.0019
    124  N         73.6650   74.1620   10.6390 N.3   346  THR346     -0.1218
    125  CA        72.6590   73.1150   10.5450 C.3   346  THR346      0.1862
    126  C         71.5200   73.5820    9.6460 C.2   346  THR346      0.2287
    127  O         70.8320   74.5590    9.9580 O.2   346  THR346     -0.2866
    128  CB        72.1330   72.7390   11.9230 C.3   346  THR346      0.1770
    129  OG1       73.1780   72.1050   12.6760 O.3   346  THR346     -0.2211
    130  CG2       70.9580   71.7740   11.7870 C.3   346  THR346      0.0375
    131  N         69.2420   71.0570    8.0520 N.3   348  ASP348     -0.1225
    132  CA        68.1310   70.1170    8.0520 C.3   348  ASP348      0.1805
    133  C         67.1790   70.4080    9.2080 C.2   348  ASP348      0.2598
    134  O         67.5000   71.1380   10.1480 O.2   348  ASP348     -0.2718
    135  CB        68.6350   68.6810    8.1310 C.3   348  ASP348      0.1424
    136  CG        69.4670   68.3050    6.9410 C.2   348  ASP348      0.3668
    137  OD1       69.3960   69.0280    5.9280 O.co2 348  ASP348     -0.2456
    138  OD2       70.1820   67.2870    7.0180 O.co2 348  ASP348     -0.2456
    139  N         65.9970   69.8010    9.1380 N.am  349  SER349     -0.1938
    140  CA        64.9350   70.1030   10.0840 C.3   349  SER349      0.2055
    141  C         64.0160   68.8990   10.2030 C.2   349  SER349      0.2643
    142  O         63.9950   68.0230    9.3350 O.2   349  SER349     -0.2714
    143  CB        64.1380   71.3270    9.6300 C.3   349  SER349      0.2130
    144  OG        63.7320   71.1650    8.2780 O.3   349  SER349     -0.2179
    145  N         63.2270   68.8820   11.2750 N.am  350  VAL350     -0.1963
    146  CA        62.2010   67.8680   11.4640 C.3   350  VAL350      0.1727
    147  C         60.8870   68.5580   11.8180 C.2   350  VAL350      0.2616
    148  O         60.8610   69.4780   12.6470 O.2   350  VAL350     -0.2715
    149  CB        62.5970   66.8400   12.5410 C.3   350  VAL350      0.0290
    150  CG1       62.8950   67.5390   13.8510 C.3   350  VAL350      0.0023
    151  CG2       61.5000   65.7620   12.6960 C.3   350  VAL350      0.0023
    152  N         59.8080   68.1260   11.1670 N.am  351  TRP351     -0.1960
    153  CA        58.4520   68.5980   11.4100 C.3   351  TRP351      0.1771
    154  C         57.7740   67.7510   12.4770 C.2   351  TRP351      0.2620
    155  O         58.0040   66.5420   12.5720 O.2   351  TRP351     -0.2715
    156  CB        57.6160   68.5320   10.1220 C.3   351  TRP351      0.0590
    157  CG        58.1190   69.4380    9.0440 C.ar  351  TRP351      0.0006
    158  CD1       58.9350   69.1060    7.9990 C.ar  351  TRP351      0.0946
    159  CD2       57.8700   70.8340    8.9300 C.ar  351  TRP351      0.0152
    160  NE1       59.1940   70.2090    7.2340 N.ar  351  TRP351     -0.2442
    161  CE2       58.5570   71.2880    7.7890 C.ar  351  TRP351      0.0810
    162  CE3       57.1270   71.7480    9.6800 C.ar  351  TRP351      0.0012
    163  CZ2       58.5210   72.6220    7.3800 C.ar  351  TRP351      0.0191
    164  CZ3       57.0840   73.0610    9.2670 C.ar  351  TRP351      0.0001
    165  CH2       57.7700   73.4840    8.1240 C.ar  351  TRP351      0.0015
    166  N         56.9260   68.3940   13.2840 N.am  352  ASN352     -0.1958
    167  CA        56.1370   67.6260   14.2420 C.3   352  ASN352      0.1819
    168  C         55.2740   66.5950   13.5260 C.2   352  ASN352      0.2621
    169  O         55.0340   65.5050   14.0570 O.2   352  ASN352     -0.2715
    170  CB        55.2940   68.5630   15.1120 C.3   352  ASN352      0.1195
    171  CG        54.3570   69.4310   14.3050 C.2   352  ASN352      0.2630
    172  OD1       54.6000   69.6880   13.1290 O.2   352  ASN352     -0.2716
    173  ND2       53.2930   69.9200   14.9450 N.am  352  ASN352     -0.0877
    174  N         54.8250   66.9100   12.3150 N.am  353  TYR353     -0.1960
    175  CA        54.1460   65.9650   11.4440 C.3   353  TYR353      0.1771
    176  C         54.1070   66.5600   10.0430 C.2   353  TYR353      0.2619
    177  O         54.1930   67.7800    9.8690 O.2   353  TYR353     -0.2715
    178  CB        52.7350   65.6490   11.9350 C.3   353  TYR353      0.0574
    179  CG        51.7930   66.7930   11.7340 C.ar  353  TYR353     -0.0198
    180  CD1       51.0800   66.9330   10.5420 C.ar  353  TYR353     -0.0009
    181  CD2       51.6250   67.7510   12.7180 C.ar  353  TYR353     -0.0009
    182  CE1       50.2270   67.9930   10.3400 C.ar  353  TYR353      0.0417
    183  CE2       50.7650   68.8060   12.5310 C.ar  353  TYR353      0.0417
    184  CZ        50.0710   68.9250   11.3320 C.ar  353  TYR353      0.1957
    185  OH        49.2090   69.9820   11.1230 O.3   353  TYR353     -0.2866
    186  N         53.9600   65.6830    9.0450 N.am  354  HIS354     -0.1973
    187  CA        53.8180   66.1110    7.6610 C.3   354  HIS354      0.1656
    188  C         52.7670   65.2470    6.9810 C.2   354  HIS354      0.2291
    189  O         52.5150   64.1100    7.3850 O.2   354  HIS354     -0.2864
    190  CB        55.1560   66.0440    6.9090 C.3   354  HIS354      0.0771
    191  CG        55.0930   66.4940    5.4790 C.ar  354  HIS354      0.0820
    192  ND1       54.2870   67.5280    5.0530 N.ar  354  HIS354     -0.2267
    193  CD2       55.7980   66.0980    4.3910 C.ar  354  HIS354      0.1154
    194  CE1       54.4640   67.7160    3.7560 C.ar  354  HIS354      0.1986
    195  NE2       55.3790   66.8620    3.3310 N.ar  354  HIS354     -0.2212
    196  N         53.2110   69.4890   -1.3540 N.3   379  THR379     -0.1204
    197  CA        53.8410   70.4990   -0.5060 C.3   379  THR379      0.1979
    198  C         55.2560   70.7680   -1.0140 C.2   379  THR379      0.2460
    199  O         56.0480   69.8200   -1.1550 O.2   379  THR379     -0.2732
    200  CB        53.9060   70.0550    0.9610 C.3   379  THR379      0.1783
    201  OG1       52.5830   69.9790    1.5070 O.3   379  THR379     -0.2211
    202  CG2       54.7000   71.0710    1.7820 C.3   379  THR379      0.0376
    203  N         55.6130   72.0230   -1.3080 N.am  380  PRO380     -0.2717
    204  CA        56.9630   72.3080   -1.8290 C.3   380  PRO380      0.1535
    205  C         58.0060   72.1390   -0.7390 C.2   380  PRO380      0.2598
    206  O         57.9270   72.7650    0.3160 O.2   380  PRO380     -0.2715
    207  CB        56.8660   73.7680   -2.3000 C.3   380  PRO380      0.0310
    208  CG        55.7480   74.3390   -1.5100 C.3   380  PRO380      0.0237
    209  CD        54.7470   73.2140   -1.3870 C.3   380  PRO380      0.0939
    210  N         58.9830   71.2850   -0.9950 N.am  381  GLN381     -0.1978
    211  CA        60.0930   71.1960   -0.0660 C.3   381  GLN381      0.1601
    212  C         61.3960   71.1800   -0.8400 C.2   381  GLN381      0.2287
    213  O         62.2750   72.0070   -0.6010 O.2   381  GLN381     -0.2864
    214  CB        59.9600   69.9550    0.8200 C.3   381  GLN381      0.0394
    215  CG        58.9140   70.0890    1.9240 C.3   381  GLN381      0.0908
    216  CD        59.0400   69.0040    2.9820 C.2   381  GLN381      0.2608
    217  OE1       59.3920   69.2720    4.1350 O.2   381  GLN381     -0.2717
    218  NE2       58.7440   67.7730    2.5930 N.am  381  GLN381     -0.0878
    219  N         69.5600   60.5110   12.6480 N.3   420  LEU420     -0.1245
    220  CA        70.1250   61.7910   13.0720 C.3   420  LEU420      0.1561
    221  C         71.6220   61.6210   13.2950 C.2   420  LEU420      0.2260
    222  O         72.0420   60.7250   14.0320 O.2   420  LEU420     -0.2867
    223  CB        69.4560   62.2910   14.3500 C.3   420  LEU420      0.0270
    224  CG        67.9310   62.1730   14.4090 C.3   420  LEU420      0.0019
    225  CD1       67.4110   62.8710   15.6560 C.3   420  LEU420      0.0001
    226  CD2       67.2730   62.7420   13.1720 C.3   420  LEU420      0.0001
    227  N         74.8400   63.5390   14.6270 N.3   422  TYR422     -0.1241
    228  CA        75.3570   64.6820   15.3720 C.3   422  TYR422      0.1605
    229  C         76.8370   64.8680   15.0410 C.2   422  TYR422      0.2264
    230  O         77.6550   63.9760   15.2990 O.2   422  TYR422     -0.2867
    231  CB        75.1370   64.4860   16.8740 C.3   422  TYR422      0.0534
    232  CG        73.6800   64.5720   17.3260 C.ar  422  TYR422     -0.0201
    233  CD1       72.8240   63.4760   17.2520 C.ar  422  TYR422     -0.0009
    234  CD2       73.1650   65.7630   17.8180 C.ar  422  TYR422     -0.0009
    235  CE1       71.4940   63.5760   17.6770 C.ar  422  TYR422      0.0417
    236  CE2       71.8500   65.8690   18.2360 C.ar  422  TYR422      0.0417
    237  CZ        71.0180   64.7870   18.1680 C.ar  422  TYR422      0.1957
    238  OH        69.7150   64.9470   18.5930 O.3   422  TYR422     -0.2866
    239  N         71.0440   58.9860   16.3810 N.3   433  ASP433     -0.1239
    240  CA        69.6900   58.6180   16.7920 C.3   433  ASP433      0.1674
    241  C         68.9840   57.9400   15.6250 C.2   433  ASP433      0.2266
    242  O         68.7010   58.5850   14.6100 O.2   433  ASP433     -0.2867
    243  CB        68.8920   59.8380   17.2500 C.3   433  ASP433      0.1410
    244  CG        67.5680   59.4660   17.9110 C.2   433  ASP433      0.3668
    245  OD1       67.0370   58.3640   17.6540 O.co2 433  ASP433     -0.2456
    246  OD2       67.0410   60.2900   18.6840 O.co2 433  ASP433     -0.2456
    247  N         64.3330   58.4330   15.9030 N.3   436  HIS436     -0.1241
    248  CA        63.6060   59.6810   16.0740 C.3   436  HIS436      0.1621
    249  C         62.6570   59.9340   14.9080 C.2   436  HIS436      0.2264
    250  O         61.5050   60.3380   15.1110 O.2   436  HIS436     -0.2867
    251  CB        64.5850   60.8390   16.2370 C.3   436  HIS436      0.0745
    252  CG        63.9200   62.1370   16.5570 C.ar  436  HIS436      0.0817
    253  ND1       63.2500   62.3530   17.7420 N.ar  436  HIS436     -0.2268
    254  CD2       63.7750   63.2710   15.8310 C.ar  436  HIS436      0.1154
    255  CE1       62.7470   63.5750   17.7440 C.ar  436  HIS436      0.1986
    256  NE2       63.0480   64.1520   16.5940 N.ar  436  HIS436     -0.2212
@<TRIPOS>BOND
     1   207   204    1
     2   207   208    1
     3   204   203    1
     4   204   205    1
     5   208   209    1
     6   209   203    1
     7   196   197    1
     8   203   198   am
     9   199   198    2
    10   198   197    1
    11   210   205   am
    12   210   211    1
    13   212   213    2
    14   212   211    1
    15   205   206    2
    16   197   200    1
    17   211   214    1
    18   214   215    1
    19   200   201    1
    20   200   202    1
    21   215   216    1
    22   218   216   am
    23    54    53   ar
    24    54    52   ar
    25    73    72    2
    26   216   217    2
    27    53    51   ar
    28    79    78    2
    29   195   194   ar
    30   195   193   ar
    31    64    63    2
    32   194   192   ar
    33    52    50   ar
    34    78    77    1
    35    61    62    1
    36    72    71    1
    37    72    76   am
    38    63    62    1
    39    63    70   am
    40    71    70    1
    41    71    74    1
    42    51    48   ar
    43   193   191   ar
    44    62    65    1
    45    77    76    1
    46    77    80    1
    47   192   191   ar
    48    50    48   ar
    49    50    49   ar
    50     8     6    1
    51    74    75    1
    52    48    46   ar
    53   191   190    1
    54   137   136   ar
    55    65    66    1
    56     6     5    1
    57    41    42    1
    58    80    81    1
    59    49    47   ar
    60    66    67    1
    61    82    81   ar
    62    82    84   ar
    63    81    83   ar
    64    46    47   ar
    65    46    45    1
    66   190   187    1
    67   136   138   ar
    68   136   135    1
    69   188   189    2
    70   188   187    1
    71    84    85   ar
    72   160   161   ar
    73   160   158   ar
    74   108   107    1
    75     7     5    1
    76   163   161   ar
    77   163   165   ar
    78     5     2    1
    79    83    85   ar
    80    83    86   ar
    81    42    45    1
    82    42    43    1
    83   187   186    1
    84    85    87   ar
    85   161   159   ar
    86    67    69   am
    87    67    68    2
    88    86    88   ar
    89   158   157   ar
    90   131   132    1
    91   132   135    1
    92   132   133    1
    93   165   164   ar
    94     2     1    1
    95     2     3    1
    96   144   143    1
    97    87    89   ar
    98    55    56    1
    99    43    44    2
   100    88    89   ar
   101   101   102    1
   102   159   157   ar
   103   159   162   ar
   104   107   106    1
   105   157   156    1
   106   186   176   am
   107    57    56    1
   108    57    58    2
   109    33    32    2
   110    36    35    1
   111    36    37    1
   112   139   133   am
   113   139   140    1
   114   133   134    2
   115   164   162   ar
   116    56    59    1
   117   142   141    2
   118    40    38    1
   119   102   103    1
   120   102   105    1
   121     3     4    2
   122   143   140    1
   123   126   127    2
   124   126   125    1
   125   103   104    2
   126    35    34    1
   127   177   176    2
   128    37    38    2
   129    32    31    1
   130    38    39    1
   131   106   105    1
   132   176   175    1
   133   140   141    1
   134   156   153    1
   135   141   145   am
   136   182   180   ar
   137   182   184   ar
   138    34    31    1
   139   180   179   ar
   140   125   124    1
   141   125   128    1
   142    59    60    1
   143    31    30    1
   144   185   184    1
   145   152   153    1
   146   152   147   am
   147   145   146    1
   148   184   183   ar
   149    93    92    2
   150   153   154    1
   151   175   178    1
   152   175   174    1
   153   146   147    1
   154   146   149    1
   155    92    91    1
   156   179   178    1
   157   179   181   ar
   158   130   128    1
   159   147   148    2
   160   109   110    1
   161   128   129    1
   162   174   168   am
   163   154   155    2
   164   154   166   am
   165   183   181   ar
   166   149   151    1
   167   149   150    1
   168    13    10    1
   169    13    14    1
   170     9    10    1
   171   219   220    1
   172   110   111    1
   173   110   113    1
   174    10    11    1
   175    15    14   ar
   176    15    17   ar
   177   220   221    1
   178   220   223    1
   179    91    90    1
   180    91    94    1
   181   172   171    2
   182   226   224    1
   183    14    16   ar
   184   166   167    1
   185   221   222    2
   186   111   112    2
   187   114   113    1
   188   114   116    1
   189   168   169    2
   190   168   167    1
   191    17    19   ar
   192    16    18   ar
   193   113   115    1
   194    94    95    1
   195   167   170    1
   196   171   173   am
   197   171   170    1
   198   223   224    1
   199    19    18   ar
   200    19    20    1
   201   224   225    1
   202    11    12    2
   203   242   241    2
   204   227   228    1
   205   249   250    2
   206   249   248    1
   207   229   230    2
   208   229   228    1
   209   228   231    1
   210    95    96   ar
   211    95    97   ar
   212   241   240    1
   213   254   252   ar
   214   254   256   ar
   215   247   248    1
   216   248   251    1
   217    96    98   ar
   218   251   252    1
   219    97    99   ar
   220   239   240    1
   221   252   253   ar
   222   256   255   ar
   223   123   121    1
   224   240   243    1
   225   231   232    1
   226   243   244    1
   227   233   232   ar
   228   233   235   ar
   229   232   234   ar
   230    98   100   ar
   231   119   120    2
   232   119   118    1
   233    99   100   ar
   234   245   244   ar
   235   235   237   ar
   236   253   255   ar
   237    21    22    1
   238   234   236   ar
   239   244   246   ar
   240    28    27   ar
   241   121   118    1
   242   121   122    1
   243   237   236   ar
   244   237   238    1
   245    22    23    1
   246    22    25    1
   247    29    27   ar
   248    23    24    2
   249   118   117    1
   250    27    26    1
   251    26    25    1
