@<TRIPOS>MOLECULE
tmp/5mhoB00.pdb
 265 260 0 0 0
SMALL
GASTEIGER

@<TRIPOS>ATOM
      1  N         52.8880   22.8010   63.5660 N.3   200  TYR200     -0.1241
      2  CA        54.0350   23.6500   63.8640 C.3   200  TYR200      0.1605
      3  C         54.2670   23.6590   65.3720 C.2   200  TYR200      0.2264
      4  O         53.6200   22.9210   66.1230 O.2   200  TYR200     -0.2867
      5  CB        53.8260   25.0560   63.2930 C.3   200  TYR200      0.0534
      6  CG        52.7000   25.8380   63.9270 C.ar  200  TYR200     -0.0201
      7  CD1       51.3800   25.6000   63.5700 C.ar  200  TYR200     -0.0009
      8  CD2       52.9560   26.8310   64.8630 C.ar  200  TYR200     -0.0009
      9  CE1       50.3450   26.3140   64.1390 C.ar  200  TYR200      0.0417
     10  CE2       51.9260   27.5530   65.4370 C.ar  200  TYR200      0.0417
     11  CZ        50.6220   27.2900   65.0700 C.ar  200  TYR200      0.1957
     12  OH        49.5890   28.0030   65.6340 O.3   200  TYR200     -0.2866
     13  N         57.1660   23.3430   68.6070 N.3   202  GLU202     -0.1245
     14  CA        58.3840   22.6130   68.9230 C.3   202  GLU202      0.1567
     15  C         58.1380   21.1100   68.8300 C.2   202  GLU202      0.2260
     16  O         57.0160   20.6460   68.6160 O.2   202  GLU202     -0.2867
     17  CB        58.8930   22.9920   70.3180 C.3   202  GLU202      0.0388
     18  CG        59.6300   24.3130   70.3460 C.3   202  GLU202      0.1160
     19  CD        58.7380   25.4920   70.6800 C.2   202  GLU202      0.3649
     20  OE1       57.7660   25.3250   71.4440 O.co2 202  GLU202     -0.2457
     21  OE2       59.0120   26.6040   70.1860 O.co2 202  GLU202     -0.2457
     22  N         51.4530   22.5140   67.8000 N.3   207  LYS207     -0.1245
     23  CA        50.2500   23.2770   67.5090 C.3   207  LYS207      0.1561
     24  C         49.7340   22.9100   66.1230 C.2   207  LYS207      0.2260
     25  O         50.4450   22.3170   65.3070 O.2   207  LYS207     -0.2867
     26  CB        50.5210   24.7810   67.5950 C.3   207  LYS207      0.0271
     27  CG        51.1070   25.1550   68.9750 C.3   207  LYS207      0.0035
     28  CD        51.1470   26.6730   69.1190 C.3   207  LYS207      0.0206
     29  CE        51.4680   27.0390   70.5870 C.3   207  LYS207      0.1093
     30  NZ        52.8460   26.5100   70.8610 N.3   207  LYS207     -0.1314
     31  N         47.3700   24.3850   62.7680 N.3   209  ARG209     -0.1245
     32  CA        46.8310   25.5320   62.0480 C.3   209  ARG209      0.1563
     33  C         46.0170   25.0260   60.8640 C.2   209  ARG209      0.2260
     34  O         46.5410   24.2900   60.0210 O.2   209  ARG209     -0.2867
     35  CB        47.9680   26.4450   61.5780 C.3   209  ARG209      0.0307
     36  CG        47.6330   27.9260   61.5030 C.3   209  ARG209      0.0489
     37  CD        46.8970   28.2720   60.2250 C.3   209  ARG209      0.2205
     38  NE        45.5160   28.6590   60.4890 N.pl3 209  ARG209     -0.0865
     39  CZ        45.1230   29.9100   60.6990 C.cat 209  ARG209      0.5346
     40  NH1       46.0080   30.8970   60.6720 N.pl3 209  ARG209      0.1354
     41  NH2       43.8460   30.1730   60.9360 N.pl3 209  ARG209      0.1354
     42  N         60.4600   38.6560   57.9060 N.3   265  TRP265     -0.1241
     43  CA        60.5830   38.3020   59.3160 C.3   265  TRP265      0.1605
     44  C         60.7820   39.5160   60.2240 C.2   265  TRP265      0.2264
     45  O         61.0870   39.3360   61.4100 O.2   265  TRP265     -0.2867
     46  CB        61.7440   37.3140   59.5300 C.3   265  TRP265      0.0550
     47  CG        61.5060   35.8930   59.0560 C.ar  265  TRP265      0.0003
     48  CD1       61.2410   34.8080   59.8450 C.ar  265  TRP265      0.0946
     49  CD2       61.5220   35.4050   57.7050 C.ar  265  TRP265      0.0152
     50  NE1       61.0890   33.6820   59.0740 N.ar  265  TRP265     -0.2442
     51  CE2       61.2550   34.0200   57.7570 C.ar  265  TRP265      0.0810
     52  CE3       61.7330   36.0020   56.4580 C.ar  265  TRP265      0.0012
     53  CZ2       61.1920   33.2260   56.6120 C.ar  265  TRP265      0.0191
     54  CZ3       61.6680   35.2110   55.3220 C.ar  265  TRP265      0.0001
     55  CH2       61.4010   33.8390   55.4080 C.ar  265  TRP265      0.0015
     56  N         51.2850   35.6320   59.9570 N.3   276  SER276     -0.1217
     57  CA        50.3530   34.9430   60.8420 C.3   276  SER276      0.1889
     58  C         48.8930   35.2840   60.5630 C.2   276  SER276      0.2288
     59  O         48.0090   34.6340   61.1310 O.2   276  SER276     -0.2866
     60  CB        50.6820   35.2730   62.3000 C.3   276  SER276      0.2089
     61  OG        50.5240   36.6580   62.5590 O.3   276  SER276     -0.2183
     62  N         55.6220   33.3370   55.2860 N.3   299  GLN299     -0.1231
     63  CA        56.7050   32.5610   55.8650 C.3   299  GLN299      0.1698
     64  C         56.4980   31.0970   55.4890 C.2   299  GLN299      0.2592
     65  O         55.6690   30.7640   54.6360 O.2   299  GLN299     -0.2718
     66  CB        56.7940   32.7640   57.3840 C.3   299  GLN299      0.0381
     67  CG        57.2640   34.1520   57.8010 C.3   299  GLN299      0.0905
     68  CD        57.5330   34.2590   59.2920 C.2   299  GLN299      0.2608
     69  OE1       57.6260   33.2510   59.9930 O.2   299  GLN299     -0.2717
     70  NE2       57.6570   35.4870   59.7840 N.am  299  GLN299     -0.0878
     71  N         57.2640   30.2290   56.1540 N.am  300  CYS300     -0.1956
     72  CA        57.3820   28.8230   55.7750 C.3   300  CYS300      0.1843
     73  C         56.0250   28.1790   55.5030 C.2   300  CYS300      0.2625
     74  O         55.7880   27.6360   54.4190 O.2   300  CYS300     -0.2714
     75  CB        58.1390   28.0520   56.8620 C.3   300  CYS300      0.0997
     76  SG        57.2520   27.3350   58.0870 S.3   300  CYS300     -0.0797
     77  N         55.1130   28.2410   56.4770 N.am  301  TRP301     -0.1974
     78  CA        53.8400   27.5430   56.3340 C.3   301  TRP301      0.1640
     79  C         52.9250   28.2000   55.3100 C.2   301  TRP301      0.2290
     80  O         52.0190   27.5360   54.7940 O.2   301  TRP301     -0.2864
     81  CB        53.1250   27.4650   57.6820 C.3   301  TRP301      0.0576
     82  CG        52.5500   28.7720   58.1360 C.ar  301  TRP301      0.0006
     83  CD1       51.2630   29.1990   57.9820 C.ar  301  TRP301      0.0946
     84  CD2       53.2450   29.8290   58.8100 C.ar  301  TRP301      0.0152
     85  NE1       51.1110   30.4520   58.5250 N.ar  301  TRP301     -0.2442
     86  CE2       52.3140   30.8630   59.0370 C.ar  301  TRP301      0.0810
     87  CE3       54.5630   30.0010   59.2440 C.ar  301  TRP301      0.0012
     88  CZ2       52.6570   32.0500   59.6810 C.ar  301  TRP301      0.0191
     89  CZ3       54.9020   31.1800   59.8830 C.ar  301  TRP301      0.0001
     90  CH2       53.9530   32.1900   60.0940 C.ar  301  TRP301      0.0015
     91  N         62.8540   20.7480   64.1120 N.3   325  PHE325     -0.1241
     92  CA        64.3130   20.8760   64.1950 C.3   325  PHE325      0.1605
     93  C         64.9410   20.7820   62.8030 C.2   325  PHE325      0.2264
     94  O         65.9180   20.0640   62.5840 O.2   325  PHE325     -0.2867
     95  CB        64.9100   19.8370   65.1510 C.3   325  PHE325      0.0534
     96  CG        64.7380   20.1820   66.6000 C.ar  325  PHE325     -0.0203
     97  CD1       63.7200   19.6100   67.3440 C.ar  325  PHE325     -0.0042
     98  CD2       65.5560   21.1250   67.2010 C.ar  325  PHE325     -0.0042
     99  CE1       63.5490   19.9410   68.6740 C.ar  325  PHE325     -0.0003
    100  CE2       65.3950   21.4540   68.5320 C.ar  325  PHE325     -0.0003
    101  CZ        64.3870   20.8640   69.2690 C.ar  325  PHE325     -0.0000
    102  N         75.9610   20.3610   60.0000 N.3   336  MET336     -0.1245
    103  CA        75.7800   21.6010   60.7530 C.3   336  MET336      0.1570
    104  C         77.1120   21.9860   61.3820 C.2   336  MET336      0.2261
    105  O         77.4700   21.5040   62.4600 O.2   336  MET336     -0.2867
    106  CB        74.6850   21.4420   61.8010 C.3   336  MET336      0.0387
    107  CG        73.2860   21.3050   61.2220 C.3   336  MET336      0.0595
    108  SD        72.7930   22.7350   60.2370 S.3   336  MET336     -0.1393
    109  CE        73.0070   22.1040   58.5740 C.3   336  MET336      0.0692
    110  N         79.2470   24.0920   63.4790 N.3   338  ILE338     -0.1245
    111  CA        79.0660   25.0050   64.6020 C.3   338  ILE338      0.1561
    112  C         80.4340   25.2970   65.1980 C.2   338  ILE338      0.2260
    113  O         81.1730   24.3710   65.5480 O.2   338  ILE338     -0.2867
    114  CB        78.1220   24.4200   65.6660 C.3   338  ILE338      0.0252
    115  CG1       76.7740   24.0650   65.0450 C.3   338  ILE338      0.0019
    116  CG2       77.9340   25.4010   66.8140 C.3   338  ILE338      0.0019
    117  CD1       75.8780   23.2950   65.9750 C.3   338  ILE338      0.0001
    118  N         79.8310   29.9110   72.0320 N.3   340  VAL340     -0.1245
    119  CA        79.4420   29.6590   70.6490 C.3   340  VAL340      0.1561
    120  C         79.6850   30.8990   69.7970 C.2   340  VAL340      0.2260
    121  O         78.9450   31.8790   69.8820 O.2   340  VAL340     -0.2867
    122  CB        77.9710   29.2150   70.5560 C.3   340  VAL340      0.0252
    123  CG1       77.5470   28.9570   69.1140 C.3   340  VAL340      0.0019
    124  CG2       77.8030   27.9140   71.3450 C.3   340  VAL340      0.0019
    125  N         80.0200   31.2770   62.7100 N.3   345  THR345     -0.1218
    126  CA        78.9640   30.3080   62.4520 C.3   345  THR345      0.1862
    127  C         77.9090   30.9100   61.5320 C.2   345  THR345      0.2287
    128  O         77.4390   32.0290   61.7590 O.2   345  THR345     -0.2866
    129  CB        78.3200   29.8580   63.7630 C.3   345  THR345      0.1770
    130  OG1       79.3060   29.2320   64.5930 O.3   345  THR345     -0.2211
    131  CG2       77.1880   28.8760   63.5010 C.3   345  THR345      0.0375
    132  N         75.4980   28.3650   59.9710 N.3   347  ASP347     -0.1225
    133  CA        74.4710   27.3400   59.8530 C.3   347  ASP347      0.1805
    134  C         73.4590   27.5050   60.9790 C.2   347  ASP347      0.2598
    135  O         73.8370   27.6260   62.1480 O.2   347  ASP347     -0.2718
    136  CB        75.0910   25.9430   59.8910 C.3   347  ASP347      0.1424
    137  CG        75.8160   25.5910   58.6070 C.2   347  ASP347      0.3668
    138  OD1       75.5040   26.2000   57.5620 O.co2 347  ASP347     -0.2456
    139  OD2       76.6970   24.7060   58.6410 O.co2 347  ASP347     -0.2456
    140  N         72.1790   27.5200   60.6210 N.am  348  SER348     -0.1938
    141  CA        71.0900   27.7380   61.5610 C.3   348  SER348      0.2055
    142  C         70.2170   26.4930   61.6730 C.2   348  SER348      0.2643
    143  O         70.3490   25.5340   60.9080 O.2   348  SER348     -0.2714
    144  CB        70.2440   28.9440   61.1350 C.3   348  SER348      0.2130
    145  OG        69.9700   28.9130   59.7440 O.3   348  SER348     -0.2179
    146  N         69.3120   26.5220   62.6510 N.am  349  VAL349     -0.1963
    147  CA        68.3480   25.4480   62.8700 C.3   349  VAL349      0.1727
    148  C         67.0120   26.0820   63.2300 C.2   349  VAL349      0.2616
    149  O         66.9230   26.8530   64.1920 O.2   349  VAL349     -0.2715
    150  CB        68.7920   24.4690   63.9740 C.3   349  VAL349      0.0290
    151  CG1       69.2240   25.2230   65.2280 C.3   349  VAL349      0.0023
    152  CG2       67.6770   23.4840   64.2930 C.3   349  VAL349      0.0023
    153  N         65.9800   25.7790   62.4540 N.am  350  TRP350     -0.1960
    154  CA        64.6480   26.2730   62.7540 C.3   350  TRP350      0.1771
    155  C         63.9370   25.3160   63.7000 C.2   350  TRP350      0.2620
    156  O         64.2170   24.1150   63.7270 O.2   350  TRP350     -0.2715
    157  CB        63.8360   26.4490   61.4710 C.3   350  TRP350      0.0590
    158  CG        64.4510   27.4170   60.5070 C.ar  350  TRP350      0.0006
    159  CD1       65.4320   27.1580   59.5940 C.ar  350  TRP350      0.0946
    160  CD2       64.1200   28.8020   60.3580 C.ar  350  TRP350      0.0152
    161  NE1       65.7350   28.2990   58.8900 N.ar  350  TRP350     -0.2442
    162  CE2       64.9430   29.3220   59.3400 C.ar  350  TRP350      0.0810
    163  CE3       63.2080   29.6540   60.9890 C.ar  350  TRP350      0.0012
    164  CZ2       64.8800   30.6550   58.9390 C.ar  350  TRP350      0.0191
    165  CZ3       63.1470   30.9750   60.5890 C.ar  350  TRP350      0.0001
    166  CH2       63.9770   31.4620   59.5730 C.ar  350  TRP350      0.0015
    167  N         63.0110   25.8660   64.4880 N.am  351  ASN351     -0.1958
    168  CA        62.1690   25.0170   65.3230 C.3   351  ASN351      0.1819
    169  C         61.2920   24.1170   64.4660 C.2   351  ASN351      0.2621
    170  O         61.0290   22.9630   64.8260 O.2   351  ASN351     -0.2715
    171  CB        61.3150   25.8730   66.2580 C.3   351  ASN351      0.1195
    172  CG        60.5270   26.9340   65.5200 C.2   351  ASN351      0.2630
    173  OD1       60.9700   27.4500   64.4940 O.2   351  ASN351     -0.2716
    174  ND2       59.3520   27.2690   66.0400 N.am  351  ASN351     -0.0877
    175  N         60.8370   24.6250   63.3230 N.am  352  TYR352     -0.1960
    176  CA        60.0950   23.8210   62.3660 C.3   352  TYR352      0.1771
    177  C         60.1980   24.4670   60.9940 C.2   352  TYR352      0.2619
    178  O         60.4910   25.6580   60.8650 O.2   352  TYR352     -0.2715
    179  CB        58.6280   23.6600   62.7840 C.3   352  TYR352      0.0574
    180  CG        57.7780   24.8890   62.5520 C.ar  352  TYR352     -0.0198
    181  CD1       57.6790   25.8770   63.5200 C.ar  352  TYR352     -0.0009
    182  CD2       57.0670   25.0550   61.3700 C.ar  352  TYR352     -0.0009
    183  CE1       56.9010   26.9990   63.3160 C.ar  352  TYR352      0.0417
    184  CE2       56.2900   26.1760   61.1560 C.ar  352  TYR352      0.0417
    185  CZ        56.2100   27.1460   62.1310 C.ar  352  TYR352      0.1957
    186  OH        55.4320   28.2640   61.9240 O.3   352  TYR352     -0.2866
    187  N         59.9520   23.6560   59.9690 N.am  353  HIS353     -0.1973
    188  CA        59.8850   24.1130   58.5890 C.3   353  HIS353      0.1656
    189  C         58.7580   23.3690   57.8920 C.2   353  HIS353      0.2291
    190  O         58.4040   22.2510   58.2750 O.2   353  HIS353     -0.2864
    191  CB        61.2120   23.8870   57.8490 C.3   353  HIS353      0.0771
    192  CG        61.2900   24.5610   56.5130 C.ar  353  HIS353      0.0820
    193  ND1       60.4110   25.5450   56.1180 N.ar  353  HIS353     -0.2267
    194  CD2       62.1440   24.3820   55.4770 C.ar  353  HIS353      0.1154
    195  CE1       60.7190   25.9450   54.8970 C.ar  353  HIS353      0.1986
    196  NE2       61.7680   25.2560   54.4860 N.ar  353  HIS353     -0.2212
    197  N         59.6180   27.9250   49.7930 N.3   378  THR378     -0.1204
    198  CA        60.2460   28.8600   50.7130 C.3   378  THR378      0.1979
    199  C         61.6800   29.1540   50.2730 C.2   378  THR378      0.2460
    200  O         62.4760   28.2170   50.1100 O.2   378  THR378     -0.2732
    201  CB        60.2430   28.2960   52.1330 C.3   378  THR378      0.1783
    202  OG1       58.9150   28.3440   52.6670 O.3   378  THR378     -0.2211
    203  CG2       61.1740   29.0970   53.0300 C.3   378  THR378      0.0376
    204  N         62.0430   30.4210   50.0670 N.am  379  PRO379     -0.2717
    205  CA        63.4220   30.7450   49.6700 C.3   379  PRO379      0.1535
    206  C         64.3760   30.5140   50.8320 C.2   379  PRO379      0.2598
    207  O         64.2650   31.1560   51.8790 O.2   379  PRO379     -0.2715
    208  CB        63.3490   32.2290   49.2860 C.3   379  PRO379      0.0310
    209  CG        61.8890   32.5750   49.2480 C.3   379  PRO379      0.0237
    210  CD        61.1960   31.6200   50.1580 C.3   379  PRO379      0.0939
    211  N         65.3080   29.5810   50.6490 N.am  380  GLN380     -0.1978
    212  CA        66.3280   29.3220   51.6570 C.3   380  GLN380      0.1601
    213  C         67.7180   29.3320   51.0370 C.2   380  GLN380      0.2287
    214  O         68.6050   30.0590   51.4950 O.2   380  GLN380     -0.2864
    215  CB        66.0700   27.9890   52.3590 C.3   380  GLN380      0.0394
    216  CG        65.1110   28.0840   53.5290 C.3   380  GLN380      0.0908
    217  CD        65.3720   27.0180   54.5720 C.2   380  GLN380      0.2608
    218  OE1       65.4990   27.3120   55.7610 O.2   380  GLN380     -0.2717
    219  NE2       65.4510   25.7690   54.1320 N.am  380  GLN380     -0.0878
    220  N         75.8440   17.3660   63.3960 N.3   419  LEU419     -0.1245
    221  CA        76.4600   18.5980   63.8690 C.3   419  LEU419      0.1561
    222  C         77.9210   18.3540   64.2220 C.2   419  LEU419      0.2260
    223  O         78.2480   17.3640   64.8840 O.2   419  LEU419     -0.2867
    224  CB        75.7030   19.1550   65.0740 C.3   419  LEU419      0.0270
    225  CG        74.1850   19.2690   64.8970 C.3   419  LEU419      0.0019
    226  CD1       73.4570   18.0330   65.3920 C.3   419  LEU419      0.0001
    227  CD2       73.6670   20.4940   65.6030 C.3   419  LEU419      0.0001
    228  N         80.8110   20.3200   66.0190 N.3   421  TYR421     -0.1241
    229  CA        81.3040   21.4320   66.8290 C.3   421  TYR421      0.1605
    230  C         82.7990   21.6020   66.5930 C.2   421  TYR421      0.2264
    231  O         83.6200   20.9090   67.1990 O.2   421  TYR421     -0.2867
    232  CB        81.0190   21.1950   68.3080 C.3   421  TYR421      0.0534
    233  CG        79.5560   21.0530   68.6700 C.ar  421  TYR421     -0.0201
    234  CD1       78.8030   22.1590   69.0390 C.ar  421  TYR421     -0.0009
    235  CD2       78.9340   19.8130   68.6640 C.ar  421  TYR421     -0.0009
    236  CE1       77.4700   22.0370   69.3790 C.ar  421  TYR421      0.0417
    237  CE2       77.6000   19.6800   69.0040 C.ar  421  TYR421      0.0417
    238  CZ        76.8730   20.7940   69.3600 C.ar  421  TYR421      0.1957
    239  OH        75.5460   20.6620   69.6980 O.3   421  TYR421     -0.2866
    240  N         77.0430   15.7690   67.4600 N.3   430  ASP430     -0.1239
    241  CA        75.6730   15.3600   67.7370 C.3   430  ASP430      0.1674
    242  C         75.0530   14.7900   66.4680 C.2   430  ASP430      0.2266
    243  O         75.2050   15.3580   65.3820 O.2   430  ASP430     -0.2867
    244  CB        74.8510   16.5440   68.2570 C.3   430  ASP430      0.1410
    245  CG        73.4760   16.1360   68.7710 C.2   430  ASP430      0.3668
    246  OD1       72.9930   15.0370   68.4320 O.co2 430  ASP430     -0.2456
    247  OD2       72.8720   16.9290   69.5240 O.co2 430  ASP430     -0.2456
    248  N         70.0990   15.4560   66.8070 N.3   433  HIS433     -0.1226
    249  CA        69.4280   16.7280   67.0480 C.3   433  HIS433      0.1752
    250  C         68.5840   17.1620   65.8550 C.2   433  HIS433      0.2595
    251  O         67.4500   17.6210   66.0290 O.2   433  HIS433     -0.2718
    252  CB        70.4640   17.8010   67.3890 C.3   433  HIS433      0.0759
    253  CG        69.8850   19.1670   67.5850 C.ar  433  HIS433      0.0818
    254  ND1       69.0860   19.4900   68.6610 N.ar  433  HIS433     -0.2268
    255  CD2       69.9950   20.2950   66.8450 C.ar  433  HIS433      0.1154
    256  CE1       68.7260   20.7580   68.5730 C.ar  433  HIS433      0.1986
    257  NE2       69.2630   21.2690   67.4800 N.ar  433  HIS433     -0.2212
    258  N         69.1120   17.0180   64.6450 N.am  434  ILE434     -0.1980
    259  CA        68.4160   17.4690   63.4450 C.3   434  ILE434      0.1595
    260  C         67.3390   16.4640   63.0640 C.2   434  ILE434      0.2287
    261  O         67.5600   15.2460   63.0960 O.2   434  ILE434     -0.2864
    262  CB        69.4180   17.6820   62.2960 C.3   434  ILE434      0.0276
    263  CG1       70.4020   18.7990   62.6480 C.3   434  ILE434      0.0022
    264  CG2       68.6930   17.9950   60.9950 C.3   434  ILE434      0.0022
    265  CD1       69.7350   20.0840   63.0930 C.3   434  ILE434      0.0001
@<TRIPOS>BOND
     1   209   208    1
     2   209   210    1
     3   208   205    1
     4   205   204    1
     5   205   206    1
     6   197   198    1
     7   204   210    1
     8   204   199   am
     9   200   199    2
    10   199   198    1
    11   211   206   am
    12   211   212    1
    13   198   201    1
    14   206   207    2
    15   213   214    2
    16   213   212    1
    17   212   215    1
    18   201   202    1
    19   201   203    1
    20   215   216    1
    21   216   217    1
    22   219   217   am
    23    74    73    2
    24   196   195   ar
    25   196   194   ar
    26   217   218    2
    27    65    64    2
    28    80    79    2
    29   195   193   ar
    30    62    63    1
    31    79    78    1
    32    54    55   ar
    33    54    52   ar
    34    55    53   ar
    35   194   192   ar
    36    64    63    1
    37    64    71   am
    38    73    72    1
    39    73    77   am
    40    72    71    1
    41    72    75    1
    42    63    66    1
    43   193   192   ar
    44    78    77    1
    45    78    81    1
    46    52    49   ar
    47   192   191    1
    48    53    51   ar
    49    75    76    1
    50    66    67    1
    51   138   137   ar
    52    81    82    1
    53    49    51   ar
    54    49    47   ar
    55    51    50   ar
    56    67    68    1
    57   191   188    1
    58   189   190    2
    59   189   188    1
    60    42    43    1
    61    83    82   ar
    62    83    85   ar
    63    82    84   ar
    64    85    86   ar
    65   109   108    1
    66   188   187    1
    67   137   139   ar
    68   137   136    1
    69    84    86   ar
    70    84    87   ar
    71   161   162   ar
    72   161   159   ar
    73   164   162   ar
    74   164   166   ar
    75    86    88   ar
    76    47    46    1
    77    47    48   ar
    78    50    48   ar
    79    87    89   ar
    80    68    70   am
    81    68    69    2
    82    43    46    1
    83    43    44    1
    84   162   160   ar
    85   166   165   ar
    86   159   158   ar
    87    88    90   ar
    88   145   144    1
    89   133   136    1
    90   133   132    1
    91   133   134    1
    92    89    90   ar
    93    56    57    1
    94   187   177   am
    95   102   103    1
    96    34    33    2
    97    44    45    2
    98    37    38    1
    99    37    36    1
   100   108   107    1
   101   160   158   ar
   102   160   163   ar
   103    38    39    2
   104   158   157    1
   105    58    57    1
   106    58    59    2
   107   165   163   ar
   108   140   134   am
   109   140   141    1
   110    40    39    1
   111    39    41    1
   112   103   104    1
   113   103   106    1
   114    57    60    1
   115    33    32    1
   116   178   177    2
   117   143   142    2
   118   134   135    2
   119   177   176    1
   120   264   262    1
   121   144   141    1
   122   184   182   ar
   123   184   185   ar
   124   107   106    1
   125   182   180   ar
   126   104   105    2
   127   157   154    1
   128    36    35    1
   129   127   128    2
   130   127   126    1
   131   141   142    1
   132    35    32    1
   133   142   146   am
   134   186   185    1
   135    32    31    1
   136   185   183   ar
   137   262   263    1
   138   262   259    1
   139    60    61    1
   140   176   179    1
   141   176   175    1
   142   126   125    1
   143   126   129    1
   144   153   154    1
   145   153   148   am
   146   180   179    1
   147   180   181   ar
   148    94    93    2
   149   263   265    1
   150   146   147    1
   151   154   155    1
   152    93    92    1
   153   147   148    1
   154   147   150    1
   155   260   261    2
   156   260   259    1
   157   148   149    2
   158     5     2    1
   159     5     6    1
   160   183   181   ar
   161   175   169   am
   162   220   221    1
   163   259   258    1
   164   110   111    1
   165   131   129    1
   166     1     2    1
   167     7     6   ar
   168     7     9   ar
   169   155   156    2
   170   155   167   am
   171   129   130    1
   172     2     3    1
   173   221   222    1
   174   221   224    1
   175     6     8   ar
   176   150   152    1
   177   150   151    1
   178    91    92    1
   179     9    11   ar
   180    92    95    1
   181   222   223    2
   182   169   170    2
   183   169   168    1
   184   167   168    1
   185   173   172    2
   186   111   112    1
   187   111   114    1
   188   258   250   am
   189     8    10   ar
   190   225   224    1
   191   225   226    1
   192   225   227    1
   193   115   114    1
   194   115   117    1
   195    11    10   ar
   196    11    12    1
   197    95    96    1
   198   112   113    2
   199    25    24    2
   200   168   171    1
   201     3     4    2
   202   243   242    2
   203   172   174   am
   204   172   171    1
   205   114   116    1
   206   250   251    2
   207   250   249    1
   208   228   229    1
   209    24    23    1
   210   242   241    1
   211   230   229    1
   212   230   231    2
   213    96    98   ar
   214    96    97   ar
   215   248   249    1
   216   229   232    1
   217   255   257   ar
   218   255   253   ar
   219   249   252    1
   220    98   100   ar
   221    97    99   ar
   222   252   253    1
   223   240   241    1
   224   257   256   ar
   225    23    26    1
   226    23    22    1
   227   253   254   ar
   228    26    27    1
   229   241   244    1
   230   244   245    1
   231   232   233    1
   232   246   245   ar
   233   100   101   ar
   234   256   254   ar
   235    13    14    1
   236    16    15    2
   237   235   233   ar
   238   235   237   ar
   239   233   234   ar
   240    99   101   ar
   241   245   247   ar
   242    15    14    1
   243    14    17    1
   244    27    28    1
   245   237   238   ar
   246   234   236   ar
   247   123   122    1
   248    28    29    1
   249   238   236   ar
   250   238   239    1
   251   120   121    2
   252   120   119    1
   253    21    19   ar
   254    17    18    1
   255    18    19    1
   256   122   119    1
   257   122   124    1
   258    29    30    1
   259   119   118    1
   260    19    20   ar
