@<TRIPOS>MOLECULE
tmp/5mhoA00.pdb
 240 237 0 0 0
SMALL
GASTEIGER

@<TRIPOS>ATOM
      1  N         46.7470   65.1840   12.7370 N.3   200  TYR200     -0.1241
      2  CA        47.8430   66.1120   12.9890 C.3   200  TYR200      0.1605
      3  C         48.0630   66.1960   14.4950 C.2   200  TYR200      0.2264
      4  O         47.4280   65.4780   15.2740 O.2   200  TYR200     -0.2867
      5  CB        47.5540   67.4890   12.3820 C.3   200  TYR200      0.0534
      6  CG        46.4280   68.2520   13.0410 C.ar  200  TYR200     -0.0201
      7  CD1       45.1010   67.9700   12.7460 C.ar  200  TYR200     -0.0009
      8  CD2       46.6960   69.2620   13.9560 C.ar  200  TYR200     -0.0009
      9  CE1       44.0720   68.6720   13.3460 C.ar  200  TYR200      0.0417
     10  CE2       45.6750   69.9670   14.5610 C.ar  200  TYR200      0.0417
     11  CZ        44.3660   69.6700   14.2510 C.ar  200  TYR200      0.1957
     12  OH        43.3460   70.3700   14.8520 O.3   200  TYR200     -0.2866
     13  N         50.8220   66.0520   17.8190 N.3   202  GLU202     -0.1245
     14  CA        52.0140   65.3150   18.2100 C.3   202  GLU202      0.1567
     15  C         51.7330   63.8150   18.1720 C.2   202  GLU202      0.2260
     16  O         50.6050   63.3710   17.9470 O.2   202  GLU202     -0.2867
     17  CB        52.4810   65.7470   19.6040 C.3   202  GLU202      0.0388
     18  CG        52.6380   67.2620   19.6590 C.3   202  GLU202      0.1160
     19  CD        53.8780   67.7930   18.9930 C.2   202  GLU202      0.3649
     20  OE1       54.6500   66.9760   18.4840 O.co2 202  GLU202     -0.2457
     21  OE2       54.0860   69.0450   18.9770 O.co2 202  GLU202     -0.2457
     22  N         41.3770   66.6900   11.9660 N.3   209  ARG209     -0.1245
     23  CA        40.7440   67.7200   11.1560 C.3   209  ARG209      0.1563
     24  C         39.9670   67.0650   10.0220 C.2   209  ARG209      0.2260
     25  O         40.5260   66.2690    9.2600 O.2   209  ARG209     -0.2867
     26  CB        41.7810   68.6910   10.5870 C.3   209  ARG209      0.0307
     27  CG        41.1990   69.6930    9.6070 C.3   209  ARG209      0.0489
     28  CD        42.2440   70.6830    9.1340 C.3   209  ARG209      0.2205
     29  NE        41.7290   72.0490    9.1490 N.pl3 209  ARG209     -0.0865
     30  CZ        41.8120   72.8620   10.1970 C.cat 209  ARG209      0.5346
     31  NH1       41.3150   74.0900   10.1280 N.pl3 209  ARG209      0.1354
     32  NH2       42.3940   72.4480   11.3140 N.pl3 209  ARG209      0.1354
     33  N         54.0040   80.0900    6.0140 N.3   265  TRP265     -0.1241
     34  CA        54.1190   79.5920    7.3770 C.3   265  TRP265      0.1605
     35  C         54.4290   80.7060    8.3740 C.2   265  TRP265      0.2264
     36  O         54.7430   80.4120    9.5330 O.2   265  TRP265     -0.2867
     37  CB        55.2070   78.5120    7.4580 C.3   265  TRP265      0.0550
     38  CG        54.8810   77.2450    6.7140 C.ar  265  TRP265      0.0003
     39  CD1       54.4520   76.0650    7.2490 C.ar  265  TRP265      0.0946
     40  CD2       55.0070   77.0200    5.3010 C.ar  265  TRP265      0.0152
     41  NE1       54.2800   75.1280    6.2560 N.ar  265  TRP265     -0.2442
     42  CE2       54.6160   75.6890    5.0520 C.ar  265  TRP265      0.0810
     43  CE3       55.4070   77.8180    4.2220 C.ar  265  TRP265      0.0012
     44  CZ2       54.6100   75.1400    3.7710 C.ar  265  TRP265      0.0191
     45  CZ3       55.3970   77.2700    2.9510 C.ar  265  TRP265      0.0001
     46  CH2       55.0030   75.9450    2.7370 C.ar  265  TRP265      0.0015
     47  N         44.8040   77.5710    8.5820 N.3   276  SER276     -0.1217
     48  CA        43.8960   76.9380    9.5310 C.3   276  SER276      0.1889
     49  C         42.4300   77.2550    9.2610 C.2   276  SER276      0.2288
     50  O         41.5600   76.6640    9.9100 O.2   276  SER276     -0.2866
     51  CB        44.2490   77.3590   10.9580 C.3   276  SER276      0.2089
     52  OG        44.0790   78.7550   11.1330 O.3   276  SER276     -0.2183
     53  N         49.1710   75.2360    3.8770 N.3   299  GLN299     -0.1231
     54  CA        50.2810   74.5250    4.4930 C.3   299  GLN299      0.1698
     55  C         50.1020   73.0350    4.2280 C.2   299  GLN299      0.2592
     56  O         49.2860   72.6250    3.3960 O.2   299  GLN299     -0.2718
     57  CB        50.3880   74.8220    5.9950 C.3   299  GLN299      0.0381
     58  CG        50.8340   76.2330    6.3220 C.3   299  GLN299      0.0905
     59  CD        51.1260   76.4220    7.7970 C.2   299  GLN299      0.2608
     60  OE1       51.2470   75.4530    8.5460 O.2   299  GLN299     -0.2717
     61  NE2       51.2520   77.6740    8.2200 N.am  299  GLN299     -0.0878
     62  N         50.8820   72.2350    4.9580 N.am  300  CYS300     -0.1956
     63  CA        51.0180   70.8020    4.7210 C.3   300  CYS300      0.1843
     64  C         49.6800   70.0990    4.5010 C.2   300  CYS300      0.2625
     65  O         49.4710   69.4510    3.4710 O.2   300  CYS300     -0.2714
     66  CB        51.7980   70.1770    5.8900 C.3   300  CYS300      0.0997
     67  SG        50.9510   69.6470    7.2310 S.3   300  CYS300     -0.0797
     68  N         48.7560   70.2290    5.4550 N.am  301  TRP301     -0.1974
     69  CA        47.4910   69.5090    5.3560 C.3   301  TRP301      0.1640
     70  C         46.5610   70.0880    4.2970 C.2   301  TRP301      0.2290
     71  O         45.6670   69.3780    3.8250 O.2   301  TRP301     -0.2864
     72  CB        46.7940   69.4900    6.7170 C.3   301  TRP301      0.0576
     73  CG        46.2400   70.8170    7.1330 C.ar  301  TRP301      0.0006
     74  CD1       44.9560   71.2530    6.9870 C.ar  301  TRP301      0.0946
     75  CD2       46.9580   71.8830    7.7630 C.ar  301  TRP301      0.0152
     76  NE1       44.8290   72.5250    7.4900 N.ar  301  TRP301     -0.2442
     77  CE2       46.0440   72.9350    7.9720 C.ar  301  TRP301      0.0810
     78  CE3       48.2850   72.0510    8.1710 C.ar  301  TRP301      0.0012
     79  CZ2       46.4150   74.1380    8.5720 C.ar  301  TRP301      0.0191
     80  CZ3       48.6510   73.2440    8.7660 C.ar  301  TRP301      0.0001
     81  CH2       47.7200   74.2720    8.9600 C.ar  301  TRP301      0.0015
     82  N         56.8110   63.3940   13.2110 N.3   325  PHE325     -0.1241
     83  CA        58.2640   63.5970   13.2500 C.3   325  PHE325      0.1605
     84  C         58.8810   63.4140   11.8630 C.2   325  PHE325      0.2264
     85  O         59.8530   62.6790   11.6810 O.2   325  PHE325     -0.2867
     86  CB        58.9590   62.6980   14.2790 C.3   325  PHE325      0.0534
     87  CG        58.7880   63.1540   15.7000 C.ar  325  PHE325     -0.0203
     88  CD1       59.4110   64.3080   16.1480 C.ar  325  PHE325     -0.0042
     89  CD2       58.0830   62.3870   16.6100 C.ar  325  PHE325     -0.0042
     90  CE1       59.2680   64.7250   17.4600 C.ar  325  PHE325     -0.0003
     91  CE2       57.9490   62.7930   17.9260 C.ar  325  PHE325     -0.0003
     92  CZ        58.5420   63.9610   18.3500 C.ar  325  PHE325     -0.0000
     93  N         69.9640   63.4030    8.8820 N.3   336  MET336     -0.1245
     94  CA        69.6860   64.6430    9.6020 C.3   336  MET336      0.1570
     95  C         71.0090   65.1500   10.1600 C.2   336  MET336      0.2261
     96  O         71.4500   64.7240   11.2300 O.2   336  MET336     -0.2867
     97  CB        68.6550   64.4100   10.6990 C.3   336  MET336      0.0387
     98  CG        67.2560   64.1110   10.1840 C.3   336  MET336      0.0595
     99  SD        66.5740   65.4530    9.1900 S.3   336  MET336     -0.1393
    100  CE        66.7870   64.8130    7.5290 C.3   336  MET336      0.0692
    101  N         73.0730   67.3610   12.1540 N.3   338  ILE338     -0.1245
    102  CA        72.8670   68.2450   13.2940 C.3   338  ILE338      0.1561
    103  C         74.2330   68.6950   13.7880 C.2   338  ILE338      0.2260
    104  O         75.0860   67.8620   14.1160 O.2   338  ILE338     -0.2867
    105  CB        72.0770   67.5500   14.4120 C.3   338  ILE338      0.0252
    106  CG1       70.7440   67.0290   13.8730 C.3   338  ILE338      0.0019
    107  CG2       71.8450   68.5090   15.5710 C.3   338  ILE338      0.0019
    108  CD1       69.9960   66.1450   14.8430 C.3   338  ILE338      0.0001
    109  N         73.2130   74.2370   20.4330 N.3   340  VAL340     -0.1245
    110  CA        73.4840   73.4980   19.2070 C.3   340  VAL340      0.1561
    111  C         74.2890   74.3740   18.2520 C.2   340  VAL340      0.2260
    112  O         75.4210   74.7550   18.5510 O.2   340  VAL340     -0.2867
    113  CB        72.1760   73.0140   18.5450 C.3   340  VAL340      0.0252
    114  CG1       72.4350   71.7950   17.6630 C.3   340  VAL340      0.0019
    115  CG2       71.1260   72.7070   19.6010 C.3   340  VAL340      0.0019
    116  N         73.7000   74.3110   10.7590 N.3   345  THR345     -0.1218
    117  CA        72.6500   73.3140   10.6020 C.3   345  THR345      0.1862
    118  C         71.5500   73.8430    9.6920 C.2   345  THR345      0.2287
    119  O         71.0710   74.9670    9.8690 O.2   345  THR345     -0.2866
    120  CB        72.0660   72.9320   11.9620 C.3   345  THR345      0.1770
    121  OG1       73.0950   72.3730   12.7870 O.3   345  THR345     -0.2211
    122  CG2       70.9470   71.9160   11.8010 C.3   345  THR345      0.0375
    123  N         69.1470   71.1590    8.3570 N.3   347  ASP347     -0.1225
    124  CA        68.1570   70.0920    8.3120 C.3   347  ASP347      0.1805
    125  C         67.1580   70.2540    9.4490 C.2   347  ASP347      0.2598
    126  O         67.5490   70.4240   10.6090 O.2   347  ASP347     -0.2718
    127  CB        68.8330   68.7250    8.3980 C.3   347  ASP347      0.1424
    128  CG        69.5390   68.3430    7.1170 C.2   347  ASP347      0.3668
    129  OD1       69.1760   68.8790    6.0480 O.co2 347  ASP347     -0.2456
    130  OD2       70.4660   67.5110    7.1840 O.co2 347  ASP347     -0.2456
    131  N         65.8750   70.2000    9.1130 N.am  348  SER348     -0.1938
    132  CA        64.7960   70.3940   10.0670 C.3   348  SER348      0.2055
    133  C         63.9940   69.1090   10.2250 C.2   348  SER348      0.2643
    134  O         64.1540   68.1450    9.4710 O.2   348  SER348     -0.2714
    135  CB        63.8830   71.5420    9.6240 C.3   348  SER348      0.2130
    136  OG        63.5900   71.4520    8.2410 O.3   348  SER348     -0.2179
    137  N         63.1140   69.1110   11.2250 N.am  349  VAL349     -0.1963
    138  CA        62.2160   67.9930   11.4920 C.3   349  VAL349      0.1727
    139  C         60.8860   68.5620   11.9700 C.2   349  VAL349      0.2616
    140  O         60.8380   69.2910   12.9680 O.2   349  VAL349     -0.2715
    141  CB        62.7990   67.0030   12.5180 C.3   349  VAL349      0.0290
    142  CG1       63.3560   67.7330   13.7310 C.3   349  VAL349      0.0023
    143  CG2       61.7400   65.9960   12.9420 C.3   349  VAL349      0.0023
    144  N         59.8140   68.2530   11.2480 N.am  350  TRP350     -0.1960
    145  CA        58.4910   68.7620   11.5670 C.3   350  TRP350      0.1771
    146  C         57.8160   67.8760   12.6040 C.2   350  TRP350      0.2620
    147  O         58.1090   66.6840   12.7150 O.2   350  TRP350     -0.2715
    148  CB        57.6210   68.8390   10.3110 C.3   350  TRP350      0.0590
    149  CG        58.2080   69.7040    9.2430 C.ar  350  TRP350      0.0006
    150  CD1       59.1230   69.3360    8.3000 C.ar  350  TRP350      0.0946
    151  CD2       57.9470   71.0950    9.0260 C.ar  350  TRP350      0.0152
    152  NE1       59.4370   70.4080    7.5010 N.ar  350  TRP350     -0.2442
    153  CE2       58.7290   71.5010    7.9280 C.ar  350  TRP350      0.0810
    154  CE3       57.1220   72.0350    9.6510 C.ar  350  TRP350      0.0012
    155  CZ2       58.7130   72.8060    7.4420 C.ar  350  TRP350      0.0191
    156  CZ3       57.1050   73.3280    9.1660 C.ar  350  TRP350      0.0001
    157  CH2       57.8940   73.7020    8.0720 C.ar  350  TRP350      0.0015
    158  N         56.9020   68.4750   13.3700 N.am  351  ASN351     -0.1958
    159  CA        56.0920   67.6810   14.2860 C.3   351  ASN351      0.1819
    160  C         55.2210   66.6930   13.5200 C.2   351  ASN351      0.2621
    161  O         54.9890   65.5690   13.9820 O.2   351  ASN351     -0.2715
    162  CB        55.2450   68.5980   15.1690 C.3   351  ASN351      0.1195
    163  CG        54.4440   69.6040   14.3680 C.2   351  ASN351      0.2630
    164  OD1       54.8740   70.0500   13.3040 O.2   351  ASN351     -0.2716
    165  ND2       53.2750   69.9720   14.8790 N.am  351  ASN351     -0.0877
    166  N         54.7320   67.0920   12.3480 N.am  352  TYR352     -0.1960
    167  CA        54.0230   66.1800   11.4620 C.3   352  TYR352      0.1771
    168  C         54.0680   66.7470   10.0500 C.2   352  TYR352      0.2619
    169  O         54.3040   67.9410    9.8490 O.2   352  TYR352     -0.2715
    170  CB        52.5740   65.9580   11.9080 C.3   352  TYR352      0.0574
    171  CG        51.6550   67.1000   11.5640 C.ar  352  TYR352     -0.0198
    172  CD1       51.5590   68.2130   12.3860 C.ar  352  TYR352     -0.0009
    173  CD2       50.8810   67.0660   10.4100 C.ar  352  TYR352     -0.0009
    174  CE1       50.7180   69.2580   12.0700 C.ar  352  TYR352      0.0417
    175  CE2       50.0420   68.1060   10.0860 C.ar  352  TYR352      0.0417
    176  CZ        49.9650   69.2030   10.9170 C.ar  352  TYR352      0.1957
    177  OH        49.1240   70.2430   10.6000 O.3   352  TYR352     -0.2866
    178  N         53.8410   65.8700    9.0750 N.am  353  HIS353     -0.1973
    179  CA        53.7270   66.2650    7.6790 C.3   353  HIS353      0.1656
    180  C         52.6360   65.4320    7.0220 C.2   353  HIS353      0.2291
    181  O         52.3530   64.3100    7.4460 O.2   353  HIS353     -0.2864
    182  CB        55.0540   66.0900    6.9260 C.3   353  HIS353      0.0771
    183  CG        55.0800   66.7360    5.5760 C.ar  353  HIS353      0.0820
    184  ND1       54.1510   67.6730    5.1780 N.ar  353  HIS353     -0.2267
    185  CD2       55.9180   66.5700    4.5250 C.ar  353  HIS353      0.1154
    186  CE1       54.4190   68.0610    3.9450 C.ar  353  HIS353      0.1986
    187  NE2       55.4860   67.4060    3.5250 N.ar  353  HIS353     -0.2212
    188  N         53.1660   69.6560   -1.3130 N.3   378  THR378     -0.1204
    189  CA        53.7680   70.6520   -0.4390 C.3   378  THR378      0.1979
    190  C         55.1920   70.9650   -0.8980 C.2   378  THR378      0.2460
    191  O         56.0060   70.0410   -1.0450 O.2   378  THR378     -0.2732
    192  CB        53.7790   70.1480    1.0050 C.3   378  THR378      0.1783
    193  OG1       52.4440   70.1810    1.5260 O.3   378  THR378     -0.2211
    194  CG2       54.6830   71.0120    1.8660 C.3   378  THR378      0.0376
    195  N         55.5260   72.2340   -1.1440 N.am  379  PRO379     -0.2717
    196  CA        56.8900   72.5730   -1.5800 C.3   379  PRO379      0.1535
    197  C         57.8820   72.3810   -0.4430 C.2   379  PRO379      0.2598
    198  O         57.8040   73.0580    0.5840 O.2   379  PRO379     -0.2715
    199  CB        56.7830   74.0500   -1.9840 C.3   379  PRO379      0.0310
    200  CG        55.3210   74.3790   -1.9840 C.3   379  PRO379      0.0237
    201  CD        54.6670   73.4240   -1.0400 C.3   379  PRO379      0.0939
    202  N         58.8170   71.4530   -0.6310 N.am  380  GLN380     -0.1978
    203  CA        59.8770   71.2490    0.3470 C.3   380  GLN380      0.1601
    204  C         61.2350   71.2620   -0.3410 C.2   380  GLN380      0.2287
    205  O         62.1120   72.0530    0.0220 O.2   380  GLN380     -0.2864
    206  CB        59.6660   69.9420    1.1160 C.3   380  GLN380      0.0394
    207  CG        58.7280   70.0820    2.3080 C.3   380  GLN380      0.0908
    208  CD        59.0200   69.0820    3.4140 C.2   380  GLN380      0.2608
    209  OE1       59.1540   69.4520    4.5810 O.2   380  GLN380     -0.2717
    210  NE2       59.1100   67.8090    3.0530 N.am  380  GLN380     -0.0878
    211  N         69.4570   60.4360   12.8910 N.3   419  LEU419     -0.1245
    212  CA        69.9950   61.7240   13.3030 C.3   419  LEU419      0.1561
    213  C         71.4960   61.5750   13.5020 C.2   419  LEU419      0.2260
    214  O         71.9510   60.6500   14.1810 O.2   419  LEU419     -0.2867
    215  CB        69.3380   62.2040   14.5990 C.3   419  LEU419      0.0270
    216  CG        67.8100   62.1630   14.7030 C.3   419  LEU419      0.0019
    217  CD1       67.3520   62.7010   16.0500 C.3   419  LEU419      0.0001
    218  CD2       67.1680   62.9400   13.5770 C.3   419  LEU419      0.0001
    219  N         74.5050   63.7130   14.8370 N.3   421  TYR421     -0.1241
    220  CA        75.0950   64.8820   15.4700 C.3   421  TYR421      0.1605
    221  C         76.5590   64.9920   15.0610 C.2   421  TYR421      0.2264
    222  O         77.4330   64.3810   15.6850 O.2   421  TYR421     -0.2867
    223  CB        74.9620   64.8000   16.9950 C.3   421  TYR421      0.0534
    224  CG        73.5310   64.6900   17.4720 C.ar  421  TYR421     -0.0201
    225  CD1       72.7640   65.8240   17.7010 C.ar  421  TYR421     -0.0009
    226  CD2       72.9490   63.4500   17.6950 C.ar  421  TYR421     -0.0009
    227  CE1       71.4550   65.7260   18.1380 C.ar  421  TYR421      0.0417
    228  CE2       71.6440   63.3410   18.1340 C.ar  421  TYR421      0.0417
    229  CZ        70.9010   64.4820   18.3530 C.ar  421  TYR421      0.1957
    230  OH        69.6010   64.3750   18.7900 O.3   421  TYR421     -0.2866
    231  N         64.0710   58.4140   16.1630 N.3   432  HIS432     -0.1241
    232  CA        63.3190   59.6480   16.3610 C.3   432  HIS432      0.1621
    233  C         62.4670   60.0050   15.1460 C.2   432  HIS432      0.2264
    234  O         61.3190   60.4380   15.2980 O.2   432  HIS432     -0.2867
    235  CB        64.2690   60.7960   16.6950 C.3   432  HIS432      0.0745
    236  CG        63.5810   62.1130   16.8710 C.ar  432  HIS432      0.0817
    237  ND1       62.7520   62.3800   17.9400 N.ar  432  HIS432     -0.2268
    238  CD2       63.5900   63.2340   16.1120 C.ar  432  HIS432      0.1154
    239  CE1       62.2860   63.6120   17.8350 C.ar  432  HIS432      0.1986
    240  NE2       62.7770   64.1510   16.7330 N.ar  432  HIS432     -0.2212
@<TRIPOS>BOND
     1   199   200    1
     2   199   196    1
     3   200   201    1
     4   196   195    1
     5   196   197    1
     6   188   189    1
     7   195   201    1
     8   195   190   am
     9   191   190    2
    10   190   189    1
    11   202   197   am
    12   202   203    1
    13   197   198    2
    14   189   192    1
    15   204   205    2
    16   204   203    1
    17   203   206    1
    18   192   193    1
    19   192   194    1
    20   206   207    1
    21   207   208    1
    22    46    45   ar
    23    46    44   ar
    24    45    43   ar
    25   210   208   am
    26    56    55    2
    27   208   209    2
    28    65    64    2
    29   187   186   ar
    30   187   185   ar
    31    44    42   ar
    32    71    70    2
    33    53    54    1
    34   186   184   ar
    35    43    40   ar
    36    55    54    1
    37    55    62   am
    38    70    69    1
    39    54    57    1
    40    64    63    1
    41    64    68   am
    42   185   183   ar
    43    63    62    1
    44    63    66    1
    45    42    40   ar
    46    42    41   ar
    47   184   183   ar
    48    40    38   ar
    49    69    68    1
    50    69    72    1
    51   183   182    1
    52    66    67    1
    53    57    58    1
    54    33    34    1
    55   129   128   ar
    56    41    39   ar
    57    58    59    1
    58    38    39   ar
    59    38    37    1
    60    72    73    1
    61   182   179    1
    62    74    73   ar
    63    74    76   ar
    64   180   181    2
    65   180   179    1
    66   128   130   ar
    67   128   127    1
    68    73    75   ar
    69    34    37    1
    70    34    35    1
    71   155   153   ar
    72   155   157   ar
    73    76    77   ar
    74   152   153   ar
    75   152   150   ar
    76   100    99    1
    77   179   178    1
    78    75    77   ar
    79    75    78   ar
    80    59    61   am
    81    59    60    2
    82   153   151   ar
    83    77    79   ar
    84   157   156   ar
    85    78    80   ar
    86   136   135    1
    87   150   149   ar
    88   124   123    1
    89   124   127    1
    90   124   125    1
    91    35    36    2
    92    79    81   ar
    93    47    48    1
    94    80    81   ar
    95    93    94    1
    96   151   149   ar
    97   151   154   ar
    98   178   168   am
    99   131   125   am
   100   131   132    1
   101    28    29    1
   102    28    27    1
   103    29    30    2
   104   156   154   ar
   105    99    98    1
   106   149   148    1
   107    25    24    2
   108    49    48    1
   109    49    50    2
   110   125   126    2
   111   134   133    2
   112    48    51    1
   113    94    95    1
   114    94    97    1
   115    27    26    1
   116   135   132    1
   117   118   119    2
   118   118   117    1
   119   169   168    2
   120    24    23    1
   121   168   167    1
   122   132   133    1
   123   175   173   ar
   124   175   176   ar
   125    31    30    1
   126    95    96    2
   127    98    97    1
   128    30    32    1
   129   133   137   am
   130   148   145    1
   131   173   171   ar
   132    26    23    1
   133   177   176    1
   134   117   116    1
   135   117   120    1
   136   176   174   ar
   137    51    52    1
   138    23    22    1
   139   137   138    1
   140   144   145    1
   141   144   139   am
   142   167   170    1
   143   167   166    1
   144   138   139    1
   145   138   141    1
   146   171   170    1
   147   171   172   ar
   148   145   146    1
   149    85    84    2
   150   122   120    1
   151    84    83    1
   152   120   121    1
   153   139   140    2
   154   174   172   ar
   155   101   102    1
   156   166   160   am
   157     5     2    1
   158     5     6    1
   159   141   143    1
   160   141   142    1
   161   146   147    2
   162   146   158   am
   163     1     2    1
   164     7     6   ar
   165     7     9   ar
   166   211   212    1
   167     2     3    1
   168     6     8   ar
   169    82    83    1
   170    83    86    1
   171   102   103    1
   172   102   105    1
   173   212   213    1
   174   212   215    1
   175   164   163    2
   176     9    11   ar
   177   158   159    1
   178   213   214    2
   179   160   161    2
   180   160   159    1
   181   218   216    1
   182   103   104    2
   183   106   105    1
   184   106   108    1
   185     8    10   ar
   186    11    10   ar
   187    11    12    1
   188    86    87    1
   189   159   162    1
   190   163   165   am
   191   163   162    1
   192   105   107    1
   193     3     4    2
   194   215   216    1
   195   216   217    1
   196   219   220    1
   197   221   220    1
   198   221   222    2
   199   233   234    2
   200   233   232    1
   201   220   223    1
   202    87    88   ar
   203    87    89   ar
   204   238   240   ar
   205   238   236   ar
   206    88    90   ar
   207   231   232    1
   208   232   235    1
   209    89    91   ar
   210   235   236    1
   211   240   239   ar
   212   236   237   ar
   213   223   224    1
   214    90    92   ar
   215   224   226   ar
   216   224   225   ar
   217   114   113    1
   218   226   228   ar
   219   225   227   ar
   220    13    14    1
   221   239   237   ar
   222    91    92   ar
   223    16    15    2
   224   228   229   ar
   225   227   229   ar
   226    15    14    1
   227    14    17    1
   228   111   112    2
   229   111   110    1
   230   229   230    1
   231    20    19   ar
   232   113   110    1
   233   113   115    1
   234    21    19   ar
   235    19    18    1
   236   110   109    1
   237    17    18    1
