@<TRIPOS>MOLECULE
tmp/5mhpA06.pdb
 240 238 0 0 0
SMALL
GASTEIGER

@<TRIPOS>ATOM
      1  N        109.5680    1.4610   33.6150 N.3    21  LEU21      -0.1245
      2  CA       109.6060    2.9290   33.5300 C.3    21  LEU21       0.1561
      3  C        110.9330    3.5770   33.9830 C.2    21  LEU21       0.2260
      4  O        111.0580    4.8030   33.9100 O.2    21  LEU21      -0.2867
      5  CB       108.4420    3.5220   34.3310 C.3    21  LEU21       0.0270
      6  CG       107.9470    4.9230   34.0370 C.3    21  LEU21       0.0019
      7  CD1      107.3830    5.0450   32.6270 C.3    21  LEU21       0.0001
      8  CD2      106.8790    5.3060   35.0640 C.3    21  LEU21       0.0001
      9  N         97.3680  -10.2890   26.6910 N.3   110  ILE110     -0.1245
     10  CA        96.8240   -9.3740   25.6860 C.3   110  ILE110      0.1561
     11  C         97.9550   -8.9600   24.7320 C.2   110  ILE110      0.2260
     12  O         98.8260   -8.1720   25.0830 O.2   110  ILE110     -0.2867
     13  CB        96.1530   -8.1350   26.3310 C.3   110  ILE110      0.0252
     14  CG1       95.1380   -8.5690   27.3960 C.3   110  ILE110      0.0019
     15  CG2       95.4520   -7.2950   25.2640 C.3   110  ILE110      0.0019
     16  CD1       94.7290   -7.4700   28.3500 C.3   110  ILE110      0.0001
     17  N         98.8190   -6.8960   21.8520 N.3   112  SER112     -0.1217
     18  CA        98.3560   -5.7480   21.0750 C.3   112  SER112      0.1889
     19  C         99.3500   -5.4040   19.9560 C.2   112  SER112      0.2288
     20  O        100.5640   -5.4960   20.1420 O.2   112  SER112     -0.2866
     21  CB        98.0580   -4.5450   21.9780 C.3   112  SER112      0.2089
     22  OG        99.2280   -3.9810   22.5290 O.3   112  SER112     -0.2183
     23  N         96.3760    5.9090   18.3980 N.3   152  THR152     -0.1203
     24  CA        96.9000    4.8760   19.2820 C.3   152  THR152      0.1994
     25  C         96.5200    5.0910   20.7470 C.2   152  THR152      0.2617
     26  O         95.9620    4.2000   21.3750 O.2   152  THR152     -0.2717
     27  CB        98.4380    4.7520   19.1520 C.3   152  THR152      0.1784
     28  OG1       98.7910    4.5760   17.7800 O.3   152  THR152     -0.2211
     29  CG2       98.9770    3.5590   19.9370 C.3   152  THR152      0.0376
     30  N         96.8340    6.2620   21.2840 N.am  153  PHE153     -0.1975
     31  CA        96.6330    6.5170   22.7120 C.3   153  PHE153      0.1639
     32  C         95.1580    6.4460   23.1310 C.2   153  PHE153      0.2290
     33  O         94.8370    5.7290   24.0850 O.2   153  PHE153     -0.2864
     34  CB        97.3100    7.8260   23.1550 C.3   153  PHE153      0.0560
     35  CG        98.7360    7.6450   23.5830 C.ar  153  PHE153     -0.0200
     36  CD1       99.7530    7.5130   22.6480 C.ar  153  PHE153     -0.0042
     37  CD2       99.0620    7.5880   24.9240 C.ar  153  PHE153     -0.0042
     38  CE1      101.0780    7.3290   23.0510 C.ar  153  PHE153     -0.0003
     39  CE2      100.3790    7.4030   25.3370 C.ar  153  PHE153     -0.0003
     40  CZ       101.3890    7.2710   24.3970 C.ar  153  PHE153     -0.0000
     41  N         94.1610    2.3990   22.6840 N.3   156  LEU156     -0.1231
     42  CA        94.7790    1.4970   23.6640 C.3   156  LEU156      0.1693
     43  C         94.2100    1.7270   25.0660 C.2   156  LEU156      0.2592
     44  O         93.9770    0.7640   25.7840 O.2   156  LEU156     -0.2718
     45  CB        96.3170    1.6080   23.6770 C.3   156  LEU156      0.0284
     46  CG        97.0950    1.0150   22.4890 C.3   156  LEU156      0.0019
     47  CD1       98.5930    1.2120   22.6640 C.3   156  LEU156      0.0001
     48  CD2       96.7910   -0.4620   22.2770 C.3   156  LEU156      0.0001
     49  N         93.9610    2.9840   25.4430 N.am  157  TYR157     -0.1976
     50  CA        93.4040    3.2780   26.7760 C.3   157  TYR157      0.1639
     51  C         91.9050    2.9670   26.8520 C.2   157  TYR157      0.2290
     52  O         91.4120    2.5830   27.9180 O.2   157  TYR157     -0.2864
     53  CB        93.7150    4.7180   27.2350 C.3   157  TYR157      0.0560
     54  CG        93.5930    4.9110   28.7410 C.ar  157  TYR157     -0.0198
     55  CD1       94.2750    4.0810   29.6410 C.ar  157  TYR157     -0.0009
     56  CD2       92.8070    5.9160   29.2690 C.ar  157  TYR157     -0.0009
     57  CE1       94.1590    4.2480   31.0110 C.ar  157  TYR157      0.0417
     58  CE2       92.6850    6.0880   30.6390 C.ar  157  TYR157      0.0417
     59  CZ        93.3610    5.2540   31.5070 C.ar  157  TYR157      0.1957
     60  OH        93.2370    5.4290   32.8710 O.3   157  TYR157     -0.2866
     61  N         90.7000    0.3570   25.2240 N.3   159  LEU159     -0.1231
     62  CA        90.8230   -1.0800   25.4480 C.3   159  LEU159      0.1693
     63  C         91.0670   -1.3980   26.9350 C.2   159  LEU159      0.2591
     64  O         90.4320   -2.2900   27.4920 O.2   159  LEU159     -0.2718
     65  CB        91.9040   -1.6920   24.5430 C.3   159  LEU159      0.0284
     66  CG        91.3980   -1.9640   23.1120 C.3   159  LEU159      0.0019
     67  CD1       92.5140   -1.9890   22.0660 C.3   159  LEU159      0.0001
     68  CD2       90.6000   -3.2640   23.0680 C.3   159  LEU159      0.0001
     69  N         91.9490   -0.6340   27.5720 N.am  160  ALA160     -0.1980
     70  CA        92.2500   -0.8010   28.9970 C.3   160  ALA160      0.1597
     71  C         91.0810   -0.5140   29.9460 C.2   160  ALA160      0.2287
     72  O         91.0100   -1.1270   30.9990 O.2   160  ALA160     -0.2864
     73  CB        93.4410    0.0660   29.3790 C.3   160  ALA160      0.0319
     74  N        105.6740   12.7260   22.3720 N.3   187  ARG187     -0.1245
     75  CA       107.0170   12.9900   22.8970 C.3   187  ARG187      0.1563
     76  C        106.9420   13.9820   24.0690 C.2   187  ARG187      0.2260
     77  O        106.2690   15.0170   23.9640 O.2   187  ARG187     -0.2867
     78  CB       107.9090   13.5550   21.7840 C.3   187  ARG187      0.0307
     79  CG       107.9690   12.7190   20.5040 C.3   187  ARG187      0.0489
     80  CD       109.1380   11.7420   20.5070 C.3   187  ARG187      0.2205
     81  NE       108.9830   10.6870   21.5030 N.pl3 187  ARG187     -0.0865
     82  CZ       108.1940    9.6340   21.3620 C.cat 187  ARG187      0.5346
     83  NH1      107.4810    9.4810   20.2570 N.pl3 187  ARG187      0.1354
     84  NH2      108.1340    8.7120   22.3110 N.pl3 187  ARG187      0.1354
     85  N        103.0280   13.2980   29.3650 N.3   191  LYS191     -0.1231
     86  CA       102.1650   12.1140   29.2020 C.3   191  LYS191      0.1693
     87  C        102.2360   11.0750   30.3370 C.2   191  LYS191      0.2592
     88  O        101.2990   10.2870   30.5010 O.2   191  LYS191     -0.2718
     89  CB       102.4270   11.4270   27.8440 C.3   191  LYS191      0.0285
     90  CG       103.7990   10.7830   27.7090 C.3   191  LYS191      0.0035
     91  CD       104.0250   10.2140   26.3190 C.3   191  LYS191      0.0206
     92  CE       105.4250    9.6330   26.1870 C.3   191  LYS191      0.1093
     93  NZ       106.4850   10.6600   25.9980 N.3   191  LYS191     -0.1314
     94  N        103.3350   11.0700   31.0970 N.am  192  PHE192     -0.1976
     95  CA       103.5100   10.1620   32.2480 C.3   192  PHE192      0.1639
     96  C        102.8170   10.6530   33.5260 C.2   192  PHE192      0.2290
     97  O        102.6840    9.9000   34.4850 O.2   192  PHE192     -0.2864
     98  CB       105.0030    9.9300   32.5310 C.3   192  PHE192      0.0560
     99  CG       105.7350    9.2500   31.4070 C.ar  192  PHE192     -0.0200
    100  CD1      106.2860    9.9910   30.3620 C.ar  192  PHE192     -0.0042
    101  CD2      105.8710    7.8690   31.3850 C.ar  192  PHE192     -0.0042
    102  CE1      106.9560    9.3670   29.3220 C.ar  192  PHE192     -0.0003
    103  CE2      106.5470    7.2360   30.3480 C.ar  192  PHE192     -0.0003
    104  CZ       107.0850    7.9860   29.3100 C.ar  192  PHE192     -0.0000
    105  N         99.9200   11.4200   35.9830 N.3   194  HIS194     -0.1241
    106  CA        98.6940   10.6310   36.1890 C.3   194  HIS194      0.1621
    107  C         97.3880   11.4100   36.0070 C.2   194  HIS194      0.2264
    108  O         96.3510   10.8080   35.7240 O.2   194  HIS194     -0.2867
    109  CB        98.7010    9.9480   37.5700 C.3   194  HIS194      0.0745
    110  CG        99.5610    8.7230   37.6310 C.ar  194  HIS194      0.0817
    111  ND1      100.8720    8.7510   38.0580 N.ar  194  HIS194     -0.2268
    112  CD2       99.2990    7.4340   37.3070 C.ar  194  HIS194      0.1154
    113  CE1      101.3780    7.5310   38.0030 C.ar  194  HIS194      0.1986
    114  NE2      100.4440    6.7140   37.5490 N.ar  194  HIS194     -0.2212
    115  N         95.0210   10.7090   32.8840 N.3   197  TRP197     -0.1241
    116  CA        94.4520    9.3740   32.6800 C.3   197  TRP197      0.1605
    117  C         93.2830    9.0680   33.6330 C.2   197  TRP197      0.2264
    118  O         93.4930    8.7340   34.8010 O.2   197  TRP197     -0.2867
    119  CB        95.5500    8.3330   32.8710 C.3   197  TRP197      0.0550
    120  CG        96.7750    8.5590   32.0390 C.ar  197  TRP197      0.0003
    121  CD1       97.8260    9.3610   32.3440 C.ar  197  TRP197      0.0946
    122  CD2       97.0770    7.9670   30.7700 C.ar  197  TRP197      0.0152
    123  NE1       98.7740    9.3090   31.3460 N.ar  197  TRP197     -0.2442
    124  CE2       98.3360    8.4630   30.3650 C.ar  197  TRP197      0.0810
    125  CE3       96.4140    7.0550   29.9430 C.ar  197  TRP197      0.0012
    126  CZ2       98.9480    8.0750   29.1680 C.ar  197  TRP197      0.0191
    127  CZ3       97.0190    6.6750   28.7440 C.ar  197  TRP197      0.0001
    128  CH2       98.2730    7.1850   28.3740 C.ar  197  TRP197      0.0015
    129  N         89.2980    7.2110   34.5740 N.3   199  GLY199     -0.1225
    130  CA        88.7490    5.8560   34.6300 C.3   199  GLY199      0.1811
    131  C         89.6190    4.8860   35.4120 C.2   199  GLY199      0.2280
    132  O         90.5550    5.2910   36.1050 O.2   199  GLY199     -0.2866
    133  N         91.7940    1.4970   34.6310 N.3   201  PRO201     -0.2116
    134  CA        92.2620    0.5080   33.6580 C.3   201  PRO201      0.1372
    135  C         92.3560   -0.8990   34.2430 C.2   201  PRO201      0.2244
    136  O         92.5250   -1.0560   35.4500 O.2   201  PRO201     -0.2868
    137  CB        93.6470    1.0270   33.2670 C.3   201  PRO201      0.0268
    138  CG        94.1120    1.7830   34.4660 C.3   201  PRO201      0.0207
    139  CD        92.8920    2.3510   35.1230 C.3   201  PRO201      0.0892
    140  N         94.4950   -3.1150   34.7930 N.3   203  TRP203     -0.1227
    141  CA        95.5530   -3.4530   35.7530 C.3   203  TRP203      0.1737
    142  C         95.2870   -2.9480   37.1770 C.2   203  TRP203      0.2595
    143  O         95.6720   -3.6180   38.1420 O.2   203  TRP203     -0.2718
    144  CB        96.9400   -3.0270   35.2580 C.3   203  TRP203      0.0564
    145  CG        97.1500   -1.5620   34.9920 C.ar  203  TRP203      0.0003
    146  CD1       97.6060   -0.6250   35.8730 C.ar  203  TRP203      0.0946
    147  CD2       96.9640   -0.8820   33.7420 C.ar  203  TRP203      0.0152
    148  NE1       97.6920    0.6030   35.2570 N.ar  203  TRP203     -0.2442
    149  CE2       97.3050    0.4740   33.9480 C.ar  203  TRP203      0.0810
    150  CE3       96.5370   -1.2880   32.4680 C.ar  203  TRP203      0.0012
    151  CZ2       97.2320    1.4340   32.9220 C.ar  203  TRP203      0.0191
    152  CZ3       96.4710   -0.3310   31.4420 C.ar  203  TRP203      0.0001
    153  CH2       96.8130    1.0150   31.6840 C.ar  203  TRP203      0.0015
    154  N         94.6160   -1.8020   37.3050 N.am  204  ILE204     -0.1980
    155  CA        94.1930   -1.2990   38.6160 C.3   204  ILE204      0.1595
    156  C         92.9810   -2.1030   39.1110 C.2   204  ILE204      0.2287
    157  O         92.9440   -2.4870   40.2840 O.2   204  ILE204     -0.2864
    158  CB        93.8640    0.2190   38.6080 C.3   204  ILE204      0.0276
    159  CG1       95.0580    1.0640   38.1170 C.3   204  ILE204      0.0022
    160  CG2       93.4350    0.6940   39.9960 C.3   204  ILE204      0.0022
    161  CD1       96.2490    1.1160   39.0540 C.3   204  ILE204      0.0001
    162  N        101.8370   -3.1190   31.8470 N.3   216  PHE216     -0.1227
    163  CA       101.0730   -2.7040   30.6690 C.3   216  PHE216      0.1736
    164  C        101.7820   -1.5550   29.9430 C.2   216  PHE216      0.2595
    165  O        101.1500   -0.7480   29.2750 O.2   216  PHE216     -0.2718
    166  CB        99.6350   -2.3470   31.0720 C.3   216  PHE216      0.0547
    167  CG        98.7080   -3.5300   31.0950 C.ar  216  PHE216     -0.0202
    168  CD1       98.7930   -4.4750   32.1060 C.ar  216  PHE216     -0.0042
    169  CD2       97.7520   -3.7060   30.0940 C.ar  216  PHE216     -0.0042
    170  CE1       97.9410   -5.5690   32.1290 C.ar  216  PHE216     -0.0003
    171  CE2       96.8920   -4.7960   30.1130 C.ar  216  PHE216     -0.0003
    172  CZ        96.9900   -5.7300   31.1300 C.ar  216  PHE216     -0.0000
    173  N        103.1030   -1.4980   30.0800 N.am  217  PHE217     -0.1962
    174  CA       103.9400   -0.5770   29.3330 C.3   217  PHE217      0.1771
    175  C        105.3560   -1.1410   29.2660 C.2   217  PHE217      0.2619
    176  O        105.9450   -1.4470   30.3020 O.2   217  PHE217     -0.2715
    177  CB       103.9710    0.7960   30.0040 C.3   217  PHE217      0.0574
    178  CG       105.0880    1.6730   29.5150 C.ar  217  PHE217     -0.0200
    179  CD1      105.0520    2.2060   28.2300 C.ar  217  PHE217     -0.0042
    180  CD2      106.1950    1.9390   30.3230 C.ar  217  PHE217     -0.0042
    181  CE1      106.0870    3.0000   27.7650 C.ar  217  PHE217     -0.0003
    182  CE2      107.2350    2.7340   29.8600 C.ar  217  PHE217     -0.0003
    183  CZ       107.1790    3.2680   28.5810 C.ar  217  PHE217     -0.0000
    184  N        105.8830   -1.2820   28.0530 N.am  218  TRP218     -0.1974
    185  CA       107.2670   -1.6750   27.8420 C.3   218  TRP218      0.1640
    186  C        108.0260   -0.4760   27.3060 C.2   218  TRP218      0.2290
    187  O        107.4830    0.3090   26.5210 O.2   218  TRP218     -0.2864
    188  CB       107.3580   -2.8250   26.8380 C.3   218  TRP218      0.0576
    189  CG       106.6180   -4.0610   27.2560 C.ar  218  TRP218      0.0006
    190  CD1      105.3240   -4.3730   26.9660 C.ar  218  TRP218      0.0946
    191  CD2      107.1290   -5.1480   28.0390 C.ar  218  TRP218      0.0152
    192  NE1      104.9940   -5.5860   27.5190 N.ar  218  TRP218     -0.2442
    193  CE2      106.0850   -6.0860   28.1810 C.ar  218  TRP218      0.0810
    194  CE3      108.3660   -5.4170   28.6420 C.ar  218  TRP218      0.0012
    195  CZ2      106.2400   -7.2780   28.8950 C.ar  218  TRP218      0.0191
    196  CZ3      108.5210   -6.6030   29.3480 C.ar  218  TRP218      0.0001
    197  CH2      107.4610   -7.5180   29.4680 C.ar  218  TRP218      0.0015
    198  N        100.4490   -8.1990   29.2420 N.3   247  ALA247     -0.1231
    199  CA       100.3010   -7.4270   28.0150 C.3   247  ALA247      0.1694
    200  C        101.6020   -7.4090   27.2250 C.2   247  ALA247      0.2592
    201  O        102.6940   -7.3340   27.7990 O.2   247  ALA247     -0.2718
    202  CB        99.8630   -6.0050   28.3280 C.3   247  ALA247      0.0304
    203  N        101.4560   -7.4980   25.9050 N.am  248  PHE248     -0.1962
    204  CA       102.5240   -7.2590   24.9540 C.3   248  PHE248      0.1771
    205  C        102.0340   -6.1760   24.0060 C.2   248  PHE248      0.2619
    206  O        100.8610   -6.1680   23.6230 O.2   248  PHE248     -0.2715
    207  CB       102.8300   -8.5380   24.1830 C.3   248  PHE248      0.0574
    208  CG       103.8010   -8.3520   23.0580 C.ar  248  PHE248     -0.0200
    209  CD1      105.1730   -8.4640   23.2790 C.ar  248  PHE248     -0.0042
    210  CD2      103.3510   -8.0730   21.7710 C.ar  248  PHE248     -0.0042
    211  CE1      106.0750   -8.2970   22.2400 C.ar  248  PHE248     -0.0003
    212  CE2      104.2520   -7.8970   20.7280 C.ar  248  PHE248     -0.0003
    213  CZ       105.6140   -8.0120   20.9630 C.ar  248  PHE248     -0.0000
    214  N        102.9260   -5.2540   23.6490 N.am  249  TYR249     -0.1974
    215  CA       102.6300   -4.2180   22.6650 C.3   249  TYR249      0.1639
    216  C        103.7050   -4.2000   21.5880 C.2   249  TYR249      0.2290
    217  O        104.8950   -4.2770   21.8930 O.2   249  TYR249     -0.2864
    218  CB       102.5240   -2.8370   23.3190 C.3   249  TYR249      0.0560
    219  CG       102.5620   -1.7080   22.3120 C.ar  249  TYR249     -0.0198
    220  CD1      101.4130   -1.3340   21.6040 C.ar  249  TYR249     -0.0009
    221  CD2      103.7580   -1.0410   22.0300 C.ar  249  TYR249     -0.0009
    222  CE1      101.4470   -0.3090   20.6640 C.ar  249  TYR249      0.0417
    223  CE2      103.8060   -0.0190   21.0910 C.ar  249  TYR249      0.0417
    224  CZ       102.6480    0.3480   20.4130 C.ar  249  TYR249      0.1957
    225  OH       102.7060    1.3640   19.4880 O.3   249  TYR249     -0.2866
    226  N         94.8720   -8.4360   19.3490 N.3   299  VAL299     -0.1245
    227  CA        94.0300   -7.2690   19.1310 C.3   299  VAL299      0.1561
    228  C         94.8430   -6.1000   18.5720 C.2   299  VAL299      0.2260
    229  O         96.0110   -5.9250   18.9150 O.2   299  VAL299     -0.2867
    230  CB        93.3050   -6.8760   20.4410 C.3   299  VAL299      0.0252
    231  CG1       94.2630   -6.2750   21.4750 C.3   299  VAL299      0.0019
    232  CG2       92.1590   -5.9280   20.1490 C.3   299  VAL299      0.0019
    233  N         87.4320   -9.1100   29.3050 N.3   445  MET445     -0.1245
    234  CA        88.7030   -9.3490   29.9760 C.3   445  MET445      0.1570
    235  C         88.5360   -9.4460   31.5050 C.2   445  MET445      0.2261
    236  O         89.2380  -10.2160   32.1510 O.2   445  MET445     -0.2867
    237  CB        89.7310   -8.2880   29.5610 C.3   445  MET445      0.0387
    238  CG        90.1070   -8.3920   28.0800 C.3   445  MET445      0.0595
    239  SD        91.3530   -7.2230   27.5000 S.3   445  MET445     -0.1393
    240  CE        90.6730   -5.6460   28.0070 C.3   445  MET445      0.0692
@<TRIPOS>BOND
     1    28    27    1
     2    23    24    1
     3   228   229    2
     4   228   227    1
     5   227   226    1
     6   227   230    1
     7    27    24    1
     8    27    29    1
     9    24    25    1
    10   225   224    1
    11    19    20    2
    12    19    18    1
    13   232   230    1
    14    83    82    1
    15   224   222   ar
    16   224   223   ar
    17   230   231    1
    18    79    80    1
    19    79    78    1
    20    80    81    1
    21   222   220   ar
    22   212   213   ar
    23   212   210   ar
    24    25    30   am
    25    25    26    2
    26   213   211   ar
    27    18    17    1
    28    18    21    1
    29   223   221   ar
    30    30    31    1
    31    82    81    2
    32    82    84    1
    33   216   217    2
    34   216   215    1
    35   220   219   ar
    36   210   208   ar
    37    78    75    1
    38    21    22    1
    39   221   219   ar
    40    67    66    1
    41   211   209   ar
    42    48    46    1
    43   219   218    1
    44    74    75    1
    45    46    47    1
    46    46    45    1
    47    36    38   ar
    48    36    35   ar
    49   215   218    1
    50   215   214    1
    51    41    42    1
    52    31    32    1
    53    31    34    1
    54    75    76    1
    55    38    40   ar
    56   208   209   ar
    57   208   207    1
    58    68    66    1
    59    66    65    1
    60    32    33    2
    61    34    35    1
    62    35    37   ar
    63   206   205    2
    64   214   205   am
    65    42    45    1
    66    42    43    1
    67    77    76    2
    68   205   204    1
    69   207   204    1
    70    40    39   ar
    71    65    62    1
    72    11    12    2
    73    11    10    1
    74    37    39   ar
    75   204   203    1
    76    43    49   am
    77    43    44    2
    78    61    62    1
    79    15    13    1
    80    49    50    1
    81    62    63    1
    82    10    13    1
    83    10     9    1
    84   203   200   am
    85    93    92    1
    86    92    91    1
    87    91    90    1
    88    13    14    1
    89   187   186    2
    90    50    51    1
    91    50    53    1
    92   188   189    1
    93   188   185    1
    94    51    52    2
    95    63    64    2
    96    63    69   am
    97   190   189   ar
    98   190   192   ar
    99   200   201    2
   100   200   199    1
   101    53    54    1
   102   189   191   ar
   103   186   185    1
   104    14    16    1
   105   239   240    1
   106   239   238    1
   107   192   193   ar
   108    69    70    1
   109    90    89    1
   110   181   179   ar
   111   181   183   ar
   112   185   184    1
   113    89    86    1
   114   199   202    1
   115   199   198    1
   116   191   193   ar
   117   191   194   ar
   118   184   175   am
   119   238   237    1
   120   193   195   ar
   121   179   178   ar
   122   128   127   ar
   123   128   126   ar
   124   183   182   ar
   125   194   196   ar
   126    54    56   ar
   127    54    55   ar
   128   127   125   ar
   129   195   197   ar
   130    70    73    1
   131    70    71    1
   132   126   124   ar
   133    86    85    1
   134    86    87    1
   135   175   174    1
   136   175   176    2
   137    56    58   ar
   138   165   164    2
   139   233   234    1
   140   104   102   ar
   141   104   103   ar
   142   102   100   ar
   143   174   177    1
   144   174   173    1
   145   196   197   ar
   146   178   177    1
   147   178   180   ar
   148   237   234    1
   149    55    57   ar
   150   182   180   ar
   151   125   122   ar
   152   164   173   am
   153   164   163    1
   154    71    72    2
   155   234   235    1
   156   169   171   ar
   157   169   167   ar
   158   171   172   ar
   159    87    88    2
   160    87    94   am
   161   103   101   ar
   162   100    99   ar
   163   124   122   ar
   164   124   123   ar
   165    58    59   ar
   166   163   166    1
   167   163   162    1
   168   122   120   ar
   169    57    59   ar
   170   166   167    1
   171   167   168   ar
   172    94    95    1
   173   172   170   ar
   174   123   121   ar
   175   101    99   ar
   176    99    98    1
   177   152   153   ar
   178   152   150   ar
   179   235   236    2
   180    59    60    1
   181   153   151   ar
   182   120   121   ar
   183   120   119    1
   184   168   170   ar
   185    95    98    1
   186    95    96    1
   187   150   147   ar
   188     7     6    1
   189   116   119    1
   190   116   115    1
   191   116   117    1
   192   151   149   ar
   193   137   134    1
   194   137   138    1
   195    96    97    2
   196     2     1    1
   197     2     3    1
   198     2     5    1
   199   117   118    2
   200   134   135    1
   201   134   133    1
   202   147   149   ar
   203   147   145   ar
   204     4     3    2
   205   149   148   ar
   206     6     5    1
   207     6     8    1
   208   135   136    2
   209   138   139    1
   210   129   130    1
   211   130   131    1
   212   133   139    1
   213   140   141    1
   214   145   144    1
   215   145   146   ar
   216   148   146   ar
   217   144   141    1
   218   131   132    2
   219   108   107    2
   220   141   142    1
   221   105   106    1
   222   107   106    1
   223   106   109    1
   224   142   154   am
   225   142   143    2
   226   154   155    1
   227   112   114   ar
   228   112   110   ar
   229   114   113   ar
   230   109   110    1
   231   110   111   ar
   232   113   111   ar
   233   159   158    1
   234   159   161    1
   235   158   155    1
   236   158   160    1
   237   155   156    1
   238   156   157    2
