@<TRIPOS>MOLECULE
tmp/5mhqA00.pdb
 208 200 0 0 0
SMALL
GASTEIGER

@<TRIPOS>ATOM
      1  N         13.1670  -20.7070    6.4740 N.3    11  GLU11      -0.1231
      2  CA        12.9090  -19.9520    5.2700 C.3    11  GLU11       0.1699
      3  C         13.6890  -18.6600    5.2600 C.2    11  GLU11       0.2592
      4  O         14.2230  -18.2060    6.2900 O.2    11  GLU11      -0.2718
      5  CB        11.3990  -19.7200    5.0070 C.3    11  GLU11       0.0402
      6  CG        10.5740  -19.1720    6.1470 C.3    11  GLU11       0.1161
      7  CD         9.2330  -18.6140    5.6620 C.2    11  GLU11       0.3649
      8  OE1        9.0280  -17.3800    5.7210 O.co2  11  GLU11      -0.2457
      9  OE2        8.3810  -19.4110    5.1990 O.co2  11  GLU11      -0.2457
     10  N         13.7980  -18.0700    4.0780 N.am   12  LYS12      -0.1966
     11  CA        14.3510  -16.7500    3.9690 C.3    12  LYS12       0.1728
     12  C         13.2560  -15.7850    4.3300 C.2    12  LYS12       0.2616
     13  O         12.1990  -15.7370    3.6980 O.2    12  LYS12      -0.2715
     14  CB        14.7950  -16.4750    2.5380 C.3    12  LYS12       0.0311
     15  CG        15.6210  -15.2080    2.3640 C.3    12  LYS12       0.0038
     16  CD        16.0960  -15.0660    0.9260 C.3    12  LYS12       0.0206
     17  CE        16.2730  -13.6040    0.5730 C.3    12  LYS12       0.1093
     18  NZ        17.0690  -13.4940   -0.6720 N.3    12  LYS12      -0.1314
     19  N         13.5230  -14.9200    5.2790 N.am   13  ILE13      -0.1963
     20  CA        12.5480  -13.9050    5.6450 C.3    13  ILE13       0.1727
     21  C         12.6980  -12.7580    4.6700 C.2    13  ILE13       0.2617
     22  O         11.7180  -12.1910    4.2300 O.2    13  ILE13      -0.2715
     23  CB        12.7820  -13.3770    7.0890 C.3    13  ILE13       0.0290
     24  CG1       12.4030  -14.4640    8.1080 C.3    13  ILE13       0.0022
     25  CG2       11.9880  -12.0950    7.3650 C.3    13  ILE13       0.0023
     26  CD1       12.7500  -14.1430    9.5510 C.3    13  ILE13       0.0001
     27  N         13.9510  -12.3830    4.3730 N.am   14  GLY14      -0.1940
     28  CA        14.1050  -11.2900    3.4970 C.3    14  GLY14       0.2014
     29  C         15.5160  -10.8210    3.4260 C.2    14  GLY14       0.2639
     30  O         16.4190  -11.4740    3.9620 O.2    14  GLY14      -0.2714
     31  N         15.6720   -9.7110    2.7320 N.am   15  GLU15      -0.1963
     32  CA        16.9930   -9.0590    2.6250 C.3    15  GLU15       0.1733
     33  C         16.9000   -7.8310    3.3890 C.2    15  GLU15       0.2617
     34  O         16.0330   -6.9480    3.1160 O.2    15  GLU15      -0.2715
     35  CB        17.3530   -8.8110    1.1430 C.3    15  GLU15       0.0429
     36  CG        17.3460  -10.1090    0.3580 C.3    15  GLU15       0.1163
     37  CD        17.4580   -9.9680   -1.1770 C.2    15  GLU15       0.3649
     38  OE1       16.9950   -8.9420   -1.7670 O.co2  15  GLU15      -0.2457
     39  OE2       17.9860  -10.9270   -1.7750 O.co2  15  GLU15      -0.2457
     40  N         17.7330   -7.6980    4.4350 N.am   16  GLY16      -0.1940
     41  CA        17.7840   -6.5060    5.1520 C.3    16  GLY16       0.2014
     42  C         18.7030   -5.4750    4.5340 C.2    16  GLY16       0.2639
     43  O         19.0890   -5.6020    3.4020 O.2    16  GLY16      -0.2714
     44  N         18.9100   -4.3870    5.2100 N.am   17  THR17      -0.1950
     45  CA        19.8850   -3.3780    4.7430 C.3    17  THR17       0.1897
     46  C         21.3210   -3.9530    4.7250 C.2    17  THR17       0.2313
     47  O         22.0840   -3.6670    3.8140 O.2    17  THR17      -0.2863
     48  CB        19.7950   -2.1210    5.6010 C.3    17  THR17       0.1794
     49  OG1       18.4740   -1.5640    5.3880 O.3    17  THR17      -0.2208
     50  CG2       20.7770   -1.0790    5.2300 C.3    17  THR17       0.0378
     51  N         18.3200  -12.2710    6.0770 N.3    21  VAL21      -0.1245
     52  CA        17.6440  -12.6630    7.2890 C.3    21  VAL21       0.1561
     53  C         16.9230  -13.9870    7.0600 C.2    21  VAL21       0.2260
     54  O         16.1050  -14.1060    6.0870 O.2    21  VAL21      -0.2867
     55  CB        16.6440  -11.6530    7.7500 C.3    21  VAL21       0.0252
     56  CG1       15.9810  -12.0950    9.0740 C.3    21  VAL21       0.0019
     57  CG2       17.3300  -10.3180    7.9440 C.3    21  VAL21       0.0019
     58  N         14.6000  -17.1740    8.9950 N.3    23  LYS23      -0.1245
     59  CA        13.9610  -17.8590   10.1180 C.3    23  LYS23       0.1561
     60  C         14.7360  -19.1140   10.2920 C.2    23  LYS23       0.2260
     61  O         14.9890  -19.8150    9.3050 O.2    23  LYS23      -0.2867
     62  CB        12.5190  -18.1700    9.7930 C.3    23  LYS23       0.0271
     63  CG        11.6990  -18.8090   10.9190 C.3    23  LYS23       0.0035
     64  CD        10.2830  -19.0290   10.4890 C.3    23  LYS23       0.0206
     65  CE         9.4130  -19.4340   11.6610 C.3    23  LYS23       0.1093
     66  NZ         8.0510  -19.7100   11.1700 N.3    23  LYS23      -0.1314
     67  N         15.2170  -15.4270   14.5000 N.3    34  ALA34      -0.1231
     68  CA        15.5890  -14.8230   13.2230 C.3    34  ALA34       0.1694
     69  C         17.0710  -14.5590   13.2580 C.2    34  ALA34       0.2591
     70  O         17.6230  -14.0990   14.2470 O.2    34  ALA34      -0.2718
     71  CB        14.8130  -13.5650   13.0650 C.3    34  ALA34       0.0304
     72  N         17.7260  -15.0060   12.2060 N.am   35  LEU35      -0.1980
     73  CA        19.1740  -14.9440   12.1000 C.3    35  LEU35       0.1596
     74  C         19.4860  -13.9270   11.0120 C.2    35  LEU35       0.2287
     75  O         19.1210  -14.1570    9.8560 O.2    35  LEU35      -0.2864
     76  CB        19.6740  -16.3370   11.7270 C.3    35  LEU35       0.0297
     77  CG        21.1520  -16.6030   11.7740 C.3    35  LEU35       0.0022
     78  CD1       21.8480  -16.3020   13.1060 C.3    35  LEU35       0.0001
     79  CD2       21.2930  -18.0610   11.4460 C.3    35  LEU35       0.0001
     80  N         12.7480   -5.6980   19.6850 N.3    57  VAL57      -0.1245
     81  CA        12.9700   -7.0330   19.3070 C.3    57  VAL57       0.1561
     82  C         14.1840   -7.5260   20.0870 C.2    57  VAL57       0.2260
     83  O         15.1800   -6.9120   20.0700 O.2    57  VAL57      -0.2867
     84  CB        13.2000   -7.1660   17.7560 C.3    57  VAL57       0.0252
     85  CG1       13.5150   -8.5650   17.3970 C.3    57  VAL57       0.0019
     86  CG2       11.9360   -6.7990   17.0160 C.3    57  VAL57       0.0019
     87  N         18.1040  -13.0170   16.8070 N.3    73  PHE73      -0.1227
     88  CA        17.0030  -12.2660   17.3310 C.3    73  PHE73       0.1736
     89  C         15.8530  -13.1580   17.6360 C.2    73  PHE73       0.2595
     90  O         15.6110  -14.1760   17.0340 O.2    73  PHE73      -0.2718
     91  CB        16.5060  -11.2760   16.3080 C.3    73  PHE73       0.0547
     92  CG        17.4080  -10.1500   16.0760 C.ar   73  PHE73      -0.0202
     93  CD1       17.3940   -9.0430   16.9070 C.ar   73  PHE73      -0.0042
     94  CD2       18.2610  -10.1480   15.0010 C.ar   73  PHE73      -0.0042
     95  CE1       18.2380   -7.9940   16.6590 C.ar   73  PHE73      -0.0003
     96  CE2       19.1020   -9.0560   14.7260 C.ar   73  PHE73      -0.0003
     97  CZ        19.0790   -8.0000   15.5690 C.ar   73  PHE73      -0.0000
     98  N         15.0110  -12.6520   18.5360 N.am   74  GLU74      -0.1965
     99  CA        13.6410  -13.0990   18.6010 C.3    74  GLU74       0.1733
    100  C         12.9960  -13.0770   17.1960 C.2    74  GLU74       0.2616
    101  O         13.2200  -12.0970   16.4540 O.2    74  GLU74      -0.2715
    102  CB        12.9000  -12.0410   19.4880 C.3    74  GLU74       0.0429
    103  CG        11.4690  -12.1350   19.6160 C.3    74  GLU74       0.1163
    104  CD        10.8560  -11.0170   20.4510 C.2    74  GLU74       0.3649
    105  OE1        9.6330  -11.1820   20.7780 O.co2  74  GLU74      -0.2457
    106  OE2       11.5080   -9.9910   20.7890 O.co2  74  GLU74      -0.2457
    107  N         12.1720  -14.0400   16.8670 N.am   75  PHE75      -0.1960
    108  CA        11.4370  -14.0820   15.6190 C.3    75  PHE75       0.1771
    109  C         10.0410  -13.5250   15.8010 C.2    75  PHE75       0.2619
    110  O          9.3850  -13.9050   16.8120 O.2    75  PHE75      -0.2715
    111  CB        11.3350  -15.5250   15.1430 C.3    75  PHE75       0.0574
    112  CG        10.4530  -15.7000   13.9480 C.ar   75  PHE75      -0.0200
    113  CD1       10.9390  -15.4400   12.6450 C.ar   75  PHE75      -0.0042
    114  CD2        9.0990  -16.0350   14.0680 C.ar   75  PHE75      -0.0042
    115  CE1       10.1010  -15.5450   11.5220 C.ar   75  PHE75      -0.0003
    116  CE2        8.3180  -16.1410   12.9660 C.ar   75  PHE75      -0.0003
    117  CZ         8.8030  -15.8870   11.6810 C.ar   75  PHE75      -0.0000
    118  N          9.6230  -12.6470   14.8900 N.am   76  LEU76      -0.1963
    119  CA         8.2300  -12.2240   14.8440 C.3    76  LEU76       0.1728
    120  C          7.6730  -12.5890   13.4920 C.2    76  LEU76       0.2616
    121  O          8.3940  -12.5940   12.4650 O.2    76  LEU76      -0.2715
    122  CB         8.1050  -10.7420   15.0990 C.3    76  LEU76       0.0311
    123  CG         8.2140  -10.4030   16.5680 C.3    76  LEU76       0.0022
    124  CD1        9.6750  -10.1600   16.9320 C.3    76  LEU76       0.0001
    125  CD2        7.3070   -9.2820   17.0420 C.3    76  LEU76       0.0001
    126  N          6.3820  -12.8650   13.4750 N.am   77  HIS77      -0.1959
    127  CA         5.7880  -13.4100   12.2630 C.3    77  HIS77       0.1787
    128  C          5.4260  -12.4260   11.1620 C.2    77  HIS77       0.2620
    129  O          5.2410  -12.8610   10.0210 O.2    77  HIS77      -0.2715
    130  CB         4.5490  -14.2250   12.5940 C.3    77  HIS77       0.0785
    131  CG         4.8220  -15.4710   13.3920 C.ar   77  HIS77       0.0821
    132  ND1        4.8770  -16.7230   12.8060 N.ar   77  HIS77      -0.2267
    133  CD2        5.1240  -15.6650   14.7110 C.ar   77  HIS77       0.1154
    134  CE1        5.1460  -17.6270   13.7420 C.ar   77  HIS77       0.1986
    135  NE2        5.3610  -17.0020   14.8850 N.ar   77  HIS77      -0.2212
    136  N          5.3920  -11.1200   11.4220 N.am   78  GLN78      -0.1963
    137  CA         4.9920  -10.1810   10.3830 C.3    78  GLN78       0.1733
    138  C          5.6160   -8.8390   10.6010 C.2    78  GLN78       0.2616
    139  O          6.0560   -8.5790   11.6920 O.2    78  GLN78      -0.2715
    140  CB         3.4860  -10.0920   10.4960 C.3    78  GLN78       0.0408
    141  CG         2.8160   -9.0300    9.6590 C.3    78  GLN78       0.0908
    142  CD         2.8530   -9.3430    8.2100 C.2    78  GLN78       0.2608
    143  OE1        3.9250   -9.4750    7.5990 O.2    78  GLN78      -0.2717
    144  NE2        1.6650   -9.4740    7.6280 N.am   78  GLN78      -0.0878
    145  N          5.7510   -8.0680    9.5310 N.am   79  ASP79      -0.1971
    146  CA         6.2420   -6.7230    9.6010 C.3    79  ASP79       0.1709
    147  C          5.1500   -5.7750    9.2580 C.2    79  ASP79       0.2293
    148  O          4.1370   -6.1450    8.6480 O.2    79  ASP79      -0.2864
    149  CB         7.4860   -6.5260    8.8060 C.3    79  ASP79       0.1436
    150  CG         7.3060   -6.6260    7.3400 C.2    79  ASP79       0.3671
    151  OD1        6.6520   -5.7610    6.7670 O.co2  79  ASP79      -0.2456
    152  OD2        7.9210   -7.5450    6.7790 O.co2  79  ASP79      -0.2456
    153  N          4.1970   -5.1990    5.3860 N.3    82  LYS82      -0.1245
    154  CA         3.3400   -6.1970    4.8000 C.3    82  LYS82       0.1561
    155  C          1.9500   -6.1250    5.4040 C.2    82  LYS82       0.2260
    156  O          0.9730   -6.2910    4.6490 O.2    82  LYS82      -0.2867
    157  CB         3.9130   -7.5880    5.0030 C.3    82  LYS82       0.0271
    158  CG         5.1860   -7.8230    4.2550 C.3    82  LYS82       0.0035
    159  CD         5.6340   -9.2500    4.5610 C.3    82  LYS82       0.0206
    160  CE         6.9410   -9.6750    3.8990 C.3    82  LYS82       0.1093
    161  NZ         7.9940   -8.6340    4.0160 N.3    82  LYS82      -0.1314
    162  N         11.5050    2.3960    9.8350 N.3   122  LYS122     -0.1245
    163  CA        10.6550    2.2530    8.6800 C.3   122  LYS122      0.1561
    164  C          9.7310    1.0730    8.8470 C.2   122  LYS122      0.2260
    165  O          9.9860    0.2130    9.7460 O.2   122  LYS122     -0.2867
    166  CB        11.4730    2.0140    7.4030 C.3   122  LYS122      0.0271
    167  CG        12.3730    0.8260    7.4580 C.3   122  LYS122      0.0035
    168  CD        13.4670    0.9870    6.4030 C.3   122  LYS122      0.0206
    169  CE        14.5280    0.0120    6.4450 C.3   122  LYS122      0.1093
    170  NZ        15.7380    0.6370    5.7500 N.3   122  LYS122     -0.1314
    171  N          9.3430   -1.5980    7.4490 N.3   124  GLN124     -0.1231
    172  CA         9.9610   -2.8790    7.2460 C.3   124  GLN124      0.1698
    173  C         10.6730   -3.3660    8.4700 C.2   124  GLN124      0.2592
    174  O         10.9210   -4.5570    8.4950 O.2   124  GLN124     -0.2718
    175  CB        10.9150   -2.8120    6.0420 C.3   124  GLN124      0.0381
    176  CG        10.2090   -2.5010    4.6960 C.3   124  GLN124      0.0905
    177  CD         9.8890   -0.9790    4.3420 C.2   124  GLN124      0.2608
    178  OE1        9.9700   -0.0000    5.1140 O.2   124  GLN124     -0.2717
    179  NE2        9.4510   -0.8050    3.0950 N.am  124  GLN124     -0.0878
    180  N         11.0800   -2.4880    9.4060 N.am  125  ASN125     -0.1974
    181  CA        11.7230   -2.9080   10.6320 C.3   125  ASN125      0.1688
    182  C         10.8620   -2.7660   11.8980 C.2   125  ASN125      0.2292
    183  O         11.3490   -2.7590   13.0200 O.2   125  ASN125     -0.2864
    184  CB        13.1300   -2.3410   10.7780 C.3   125  ASN125      0.1181
    185  CG        13.2130   -0.8530   10.8150 C.2   125  ASN125      0.2629
    186  OD1       12.3240   -0.1520   11.2610 O.2   125  ASN125     -0.2716
    187  ND2       14.3470   -0.3460   10.3520 N.am  125  ASN125     -0.0877
    188  N          8.0230   -4.8340   13.6860 N.3   127  LEU127     -0.1245
    189  CA         7.5840   -6.1970   13.6060 C.3   127  LEU127      0.1561
    190  C          6.4200   -6.4510   14.5670 C.2   127  LEU127      0.2260
    191  O          6.3580   -5.9170   15.6800 O.2   127  LEU127     -0.2867
    192  CB         8.7580   -7.0960   14.0080 C.3   127  LEU127      0.0270
    193  CG         9.9770   -6.9010   13.1300 C.3   127  LEU127      0.0019
    194  CD1       10.9290   -7.9600   13.4930 C.3   127  LEU127      0.0001
    195  CD2        9.6900   -6.9240   11.6280 C.3   127  LEU127      0.0001
    196  N         12.7860   -3.2820   15.4060 N.3   137  ALA137     -0.1231
    197  CA        13.9110   -4.1260   14.9780 C.3   137  ALA137      0.1694
    198  C         15.0730   -3.2500   14.5030 C.2   137  ALA137      0.2592
    199  O         14.8700   -2.1670   14.0310 O.2   137  ALA137     -0.2718
    200  CB        13.5330   -5.0460   13.9120 C.3   137  ALA137      0.0304
    201  N         16.2690   -3.8160   14.5820 N.am  138  ASP138     -0.1974
    202  CA        17.5400   -3.2190   14.0290 C.3   138  ASP138      0.1709
    203  C         18.0140   -2.0050   14.8260 C.2   138  ASP138      0.2293
    204  O         18.7680   -1.1730   14.3110 O.2   138  ASP138     -0.2864
    205  CB        17.3830   -2.8610   12.5080 C.3   138  ASP138      0.1436
    206  CG        17.5580   -4.0120   11.5930 C.2   138  ASP138      0.3671
    207  OD1       17.7150   -5.1570   12.0350 O.co2 138  ASP138     -0.2456
    208  OD2       17.4700   -3.7430   10.3300 O.co2 138  ASP138     -0.2456
@<TRIPOS>BOND
     1    39    37   ar
     2    38    37   ar
     3    37    36    1
     4    18    17    1
     5    36    35    1
     6    17    16    1
     7    16    15    1
     8    35    32    1
     9    15    14    1
    10    14    11    1
    11    32    31    1
    12    32    33    1
    13    31    29   am
    14   179   177   am
    15    34    33    2
    16    33    40   am
    17    43    42    2
    18    29    28    1
    19    29    30    2
    20    28    27    1
    21    13    12    2
    22    47    46    2
    23   160   161    1
    24   160   159    1
    25    11    10    1
    26    11    12    1
    27    10     3   am
    28    22    21    2
    29   158   159    1
    30   158   157    1
    31    12    19   am
    32   177   176    1
    33   177   178    2
    34    27    21   am
    35    40    41    1
    36    42    41    1
    37    42    44   am
    38   156   155    2
    39    21    20    1
    40   176   175    1
    41    46    45    1
    42    45    44    1
    43    45    48    1
    44   154   157    1
    45   154   153    1
    46   154   155    1
    47     5     2    1
    48     5     6    1
    49     9     7   ar
    50    50    48    1
    51     3     2    1
    52     3     4    2
    53     2     1    1
    54    19    20    1
    55    49    48    1
    56    20    23    1
    57     7     8   ar
    58     7     6    1
    59   170   169    1
    60   175   172    1
    61    51    52    1
    62    54    53    2
    63   168   169    1
    64   168   167    1
    65   151   150   ar
    66   152   150   ar
    67    53    52    1
    68    23    25    1
    69    23    24    1
    70   172   171    1
    71   172   173    1
    72    52    55    1
    73   150   149    1
    74   166   167    1
    75   166   163    1
    76   143   142    2
    77   144   142   am
    78    55    57    1
    79    55    56    1
    80    24    26    1
    81   142   141    1
    82   173   174    2
    83   173   180   am
    84   148   147    2
    85   163   164    1
    86   163   162    1
    87   149   146    1
    88   164   165    2
    89    58    59    1
    90   147   146    1
    91    61    60    2
    92   180   181    1
    93   145   146    1
    94   145   138   am
    95   141   140    1
    96    62    59    1
    97    62    63    1
    98    75    74    2
    99   129   128    2
   100    59    60    1
   101   208   206   ar
   102   187   185   am
   103   137   140    1
   104   137   138    1
   105   137   136    1
   106    64    63    1
   107    64    65    1
   108   138   139    2
   109   181   184    1
   110   181   182    1
   111   184   185    1
   112   185   186    2
   113    74    73    1
   114   128   136   am
   115   128   127    1
   116    66    65    1
   117    79    77    1
   118   115   117   ar
   119   115   113   ar
   120   206   207   ar
   121   206   205    1
   122   195   193    1
   123   117   116   ar
   124    76    77    1
   125    76    73    1
   126    77    78    1
   127   182   183    2
   128    73    72    1
   129    72    69   am
   130   127   130    1
   131   127   126    1
   132   121   120    2
   133   205   202    1
   134   130   131    1
   135   113   112   ar
   136   132   131   ar
   137   132   134   ar
   138   116   114   ar
   139    71    68    1
   140   193   194    1
   141   193   192    1
   142    68    69    1
   143    68    67    1
   144    69    70    2
   145   131   133   ar
   146   126   120   am
   147   120   119    1
   148   189   188    1
   149   189   192    1
   150   189   190    1
   151   134   135   ar
   152   200   197    1
   153   112   114   ar
   154   112   111    1
   155   202   201    1
   156   202   203    1
   157   199   198    2
   158   204   203    2
   159   198   201   am
   160   198   197    1
   161   190   191    2
   162   133   135   ar
   163    96    94   ar
   164    96    97   ar
   165   119   118    1
   166   119   122    1
   167   118   109   am
   168   197   196    1
   169    94    92   ar
   170   122   123    1
   171   111   108    1
   172    97    95   ar
   173   108   109    1
   174   108   107    1
   175   109   110    2
   176    92    91    1
   177    92    93   ar
   178    91    88    1
   179   101   100    2
   180   123   124    1
   181   123   125    1
   182    95    93   ar
   183    87    88    1
   184   107   100   am
   185    86    84    1
   186    90    89    2
   187   100    99    1
   188    88    89    1
   189    85    84    1
   190    89    98   am
   191    84    81    1
   192    98    99    1
   193    99   102    1
   194    81    80    1
   195    81    82    1
   196   102   103    1
   197   103   104    1
   198    83    82    2
   199   104   105   ar
   200   104   106   ar
