@<TRIPOS>MOLECULE
tmp/5mhuA00.pdb
 78 72 0 0 0
SMALL
GASTEIGER

@<TRIPOS>ATOM
      1  N         13.5460   -1.7490  -21.6160 N.3   323  ARG323     -0.1231
      2  CA        12.5290   -1.5740  -20.6190 C.3   323  ARG323      0.1694
      3  C         11.4620   -2.6040  -20.7870 C.2   323  ARG323      0.2592
      4  O         10.9610   -2.8470  -21.9120 O.2   323  ARG323     -0.2718
      5  CB        11.8720   -0.2040  -20.6280 C.3   323  ARG323      0.0321
      6  CG        12.8260    0.9450  -20.4910 C.3   323  ARG323      0.0489
      7  CD        12.1150    2.2900  -20.2730 C.3   323  ARG323      0.2205
      8  NE        13.0420    3.4180  -20.3960 N.pl3 323  ARG323     -0.0865
      9  CZ        13.9390    3.8160  -19.5050 C.cat 323  ARG323      0.5346
     10  NH1       14.0070    3.2780  -18.3020 N.pl3 323  ARG323      0.1354
     11  NH2       14.7710    4.7780  -19.8050 N.pl3 323  ARG323      0.1354
     12  N         11.0350   -3.2440  -19.7200 N.am  324  GLY324     -0.1957
     13  CA        10.0570   -4.3180  -19.7860 C.3   324  GLY324      0.1869
     14  C         10.6190   -5.6690  -20.1600 C.2   324  GLY324      0.2309
     15  O          9.8460   -6.6410  -20.2820 O.2   324  GLY324     -0.2863
     16  N          7.2730   -4.5930  -13.7290 N.3   330  LEU330     -0.1231
     17  CA         6.3640   -3.7640  -12.9250 C.3   330  LEU330      0.1693
     18  C          6.7680   -2.3130  -13.0000 C.2   330  LEU330      0.2591
     19  O          7.9670   -1.9640  -13.1380 O.2   330  LEU330     -0.2718
     20  CB         6.4050   -4.2010  -11.4660 C.3   330  LEU330      0.0284
     21  CG         6.0370   -5.6600  -11.2020 C.3   330  LEU330      0.0019
     22  CD1        6.3260   -6.0870   -9.7770 C.3   330  LEU330      0.0001
     23  CD2        4.5710   -5.9010  -11.5490 C.3   330  LEU330      0.0001
     24  N          5.7510   -1.4640  -12.8890 N.am  331  VAL331     -0.1980
     25  CA         5.9140   -0.0300  -12.7420 C.3   331  VAL331      0.1595
     26  C          5.1060    0.4000  -11.5670 C.2   331  VAL331      0.2287
     27  O          3.8670    0.2010  -11.5700 O.2   331  VAL331     -0.2864
     28  CB         5.4950    0.7570  -14.0210 C.3   331  VAL331      0.0276
     29  CG1        5.8150    2.2730  -13.8200 C.3   331  VAL331      0.0022
     30  CG2        6.2110    0.1670  -15.2310 C.3   331  VAL331      0.0022
     31  N         11.4870   -6.8790  -12.8890 N.3   385  GLU385     -0.1245
     32  CA        11.9150   -5.4770  -13.0770 C.3   385  GLU385      0.1567
     33  C         10.9650   -4.6080  -12.3480 C.2   385  GLU385      0.2260
     34  O          9.7410   -4.7910  -12.4400 O.2   385  GLU385     -0.2867
     35  CB        11.9340   -5.0780  -14.5600 C.3   385  GLU385      0.0388
     36  CG        12.3290   -3.6460  -14.7910 C.3   385  GLU385      0.1160
     37  CD        12.4580   -3.3420  -16.2820 C.2   385  GLU385      0.3649
     38  OE1       11.3810   -3.0820  -16.9040 O.co2 385  GLU385     -0.2457
     39  OE2       13.5930   -3.3870  -16.7910 O.co2 385  GLU385     -0.2457
     40  N         10.2500   -0.5300  -11.9800 N.3   387  ALA387     -0.1245
     41  CA        10.4570    0.8870  -12.2040 C.3   387  ALA387      0.1562
     42  C          9.8050    1.6930  -11.0790 C.2   387  ALA387      0.2260
     43  O          8.6970    1.4100  -10.6740 O.2   387  ALA387     -0.2867
     44  CB         9.9360    1.3550  -13.5770 C.3   387  ALA387      0.0290
     45  N          9.2910    5.4490  -10.5950 N.pl3 389  PRO389     -0.2301
     46  CA         9.4220    6.8330  -11.0550 C.3   389  PRO389      0.1611
     47  C          9.1660    7.8270   -9.9300 C.2   389  PRO389      0.2289
     48  O          8.1880    7.7190   -9.1550 O.2   389  PRO389     -0.2864
     49  CB         8.3180    6.9830  -12.1340 C.3   389  PRO389      0.0570
     50  CG         7.6660    5.6570  -12.2790 C.2   389  PRO389     -0.0065
     51  CD         8.2570    4.6720  -11.3420 C.2   389  PRO389      0.0760
     52  N         10.5610   13.3700  -12.9310 N.3   434  GLY434     -0.1210
     53  CA        10.8570   12.8170  -14.2710 C.3   434  GLY434      0.1956
     54  C         11.8490   11.6620  -14.3480 C.2   434  GLY434      0.2612
     55  O         12.0330   11.0540  -15.4180 O.2   434  GLY434     -0.2717
     56  N         12.5080   11.3440  -13.2330 N.am  435  ASP435     -0.1959
     57  CA        13.4420   10.1880  -13.2460 C.3   435  ASP435      0.1840
     58  C         12.6540    8.8900  -13.3420 C.2   435  ASP435      0.2622
     59  O         11.4540    8.8040  -13.1070 O.2   435  ASP435     -0.2715
     60  CB        14.3230   10.2570  -11.9860 C.3   435  ASP435      0.1450
     61  CG        15.3860   11.2820  -12.0620 C.2   435  ASP435      0.3671
     62  OD1       15.6930   11.8590  -13.1670 O.co2 435  ASP435     -0.2456
     63  OD2       16.0620   11.5440  -11.0370 O.co2 435  ASP435     -0.2456
     64  N         13.4010    7.8280  -13.6770 N.am  436  ASN436     -0.1972
     65  CA        12.7970    6.4900  -13.7500 C.3   436  ASN436      0.1688
     66  C         13.8090    5.4390  -13.2710 C.2   436  ASN436      0.2292
     67  O         14.1440    4.4880  -13.9960 O.2   436  ASN436     -0.2864
     68  CB        12.2770    6.1730  -15.1710 C.3   436  ASN436      0.1181
     69  CG        11.1310    5.2210  -15.1570 C.2   436  ASN436      0.2629
     70  OD1       10.6290    4.7760  -14.1390 O.2   436  ASN436     -0.2716
     71  ND2       10.6470    4.8910  -16.3820 N.am  436  ASN436     -0.0877
     72  N         15.2170    2.2400  -11.8700 N.3   438  THR438     -0.1218
     73  CA        14.6820    0.9330  -12.1580 C.3   438  THR438      0.1862
     74  C         15.6800   -0.1230  -11.6290 C.2   438  THR438      0.2287
     75  O         16.8760    0.0270  -11.8130 O.2   438  THR438     -0.2866
     76  CB        14.4850    0.7620  -13.6910 C.3   438  THR438      0.1770
     77  OG1       13.5210    1.7160  -14.1730 O.3   438  THR438     -0.2211
     78  CG2       13.9210   -0.6000  -14.0390 C.3   438  THR438      0.0375
@<TRIPOS>BOND
     1     4     3    2
     2     1     2    1
     3     3     2    1
     4     3    12   am
     5     5     2    1
     6     5     6    1
     7     6     7    1
     8     8     7    1
     9     8     9    2
    10    15    14    2
    11    14    13    1
    12    11     9    1
    13    13    12    1
    14     9    10    1
    15    38    37   ar
    16    39    37   ar
    17    71    69   am
    18    37    36    1
    19    55    54    2
    20    30    28    1
    21    68    69    1
    22    68    65    1
    23    69    70    2
    24    36    35    1
    25    35    32    1
    26    54    53    1
    27    54    56   am
    28    53    52    1
    29    77    76    1
    30    78    76    1
    31    28    29    1
    32    28    25    1
    33    67    66    2
    34    65    64    1
    35    65    66    1
    36    16    17    1
    37    76    73    1
    38    64    58   am
    39    44    41    1
    40    58    57    1
    41    58    59    2
    42    57    56    1
    43    57    60    1
    44    62    61   ar
    45    19    18    2
    46    32    31    1
    47    32    33    1
    48    18    17    1
    49    18    24   am
    50    17    20    1
    51    24    25    1
    52    25    26    1
    53    34    33    2
    54    50    49    1
    55    50    51    2
    56    41    40    1
    57    41    42    1
    58    73    72    1
    59    73    74    1
    60    49    46    1
    61    61    60    1
    62    61    63   ar
    63    75    74    2
    64    27    26    2
    65    23    21    1
    66    20    21    1
    67    51    45    1
    68    21    22    1
    69    42    43    2
    70    46    45    1
    71    46    47    1
    72    47    48    2
