@<TRIPOS>MOLECULE
tmp/5mi7A00.pdb
 173 168 0 0 0
SMALL
GASTEIGER

@<TRIPOS>ATOM
      1  N         25.4970    8.2250   16.4230 N.3   132  GLY132     -0.1210
      2  CA        26.5230    8.8760   15.6290 C.3   132  GLY132      0.1956
      3  C         26.5150    8.4880   14.1640 C.2   132  GLY132      0.2612
      4  O         27.5470    8.5660   13.4890 O.2   132  GLY132     -0.2717
      5  N         25.3580    8.0830   13.6590 N.am  133  PHE133     -0.1962
      6  CA        25.2350    7.6020   12.2910 C.3   133  PHE133      0.1771
      7  C         24.8760    8.7380   11.3340 C.2   133  PHE133      0.2619
      8  O         24.4210    9.8120   11.7380 O.2   133  PHE133     -0.2715
      9  CB        24.1760    6.4990   12.2050 C.3   133  PHE133      0.0574
     10  CG        22.8540    6.8780   12.8160 C.ar  133  PHE133     -0.0200
     11  CD1       21.9800    7.7250   12.1520 C.ar  133  PHE133     -0.0042
     12  CD2       22.4940    6.3990   14.0620 C.ar  133  PHE133     -0.0042
     13  CE1       20.7660    8.0810   12.7210 C.ar  133  PHE133     -0.0003
     14  CE2       21.2820    6.7470   14.6330 C.ar  133  PHE133     -0.0003
     15  CZ        20.4180    7.5890   13.9620 C.ar  133  PHE133     -0.0000
     16  N         25.0970    8.4800   10.0460 N.am  134  TYR134     -0.1974
     17  CA        24.6010    9.3330    8.9760 C.3   134  TYR134      0.1639
     18  C         23.1790    8.9260    8.6120 C.2   134  TYR134      0.2290
     19  O         22.8560    7.7350    8.5560 O.2   134  TYR134     -0.2864
     20  CB        25.4910    9.2340    7.7350 C.3   134  TYR134      0.0560
     21  CG        26.8780    9.8060    7.9080 C.ar  134  TYR134     -0.0198
     22  CD1       27.9090    9.0360    8.4310 C.ar  134  TYR134     -0.0009
     23  CD2       27.1600   11.1190    7.5430 C.ar  134  TYR134     -0.0009
     24  CE1       29.1810    9.5540    8.5890 C.ar  134  TYR134      0.0417
     25  CE2       28.4320   11.6480    7.6970 C.ar  134  TYR134      0.0417
     26  CZ        29.4370   10.8580    8.2210 C.ar  134  TYR134      0.1957
     27  OH        30.7040   11.3650    8.3780 O.3   134  TYR134     -0.2866
     28  N         25.2720   12.7390   12.7560 N.3   163  LYS163     -0.1245
     29  CA        26.0900   13.4190   11.7550 C.3   163  LYS163      0.1561
     30  C         25.3050   14.4860   10.9970 C.2   163  LYS163      0.2260
     31  O         25.8850   15.4870   10.5580 O.2   163  LYS163     -0.2867
     32  CB        26.6670   12.4010   10.7690 C.3   163  LYS163      0.0271
     33  CG        27.8130   11.5710   11.3230 C.3   163  LYS163      0.0035
     34  CD        29.0980   12.3850   11.4210 C.3   163  LYS163      0.0206
     35  CE        30.2980   11.5100   11.7690 C.3   163  LYS163      0.1093
     36  NZ        30.2090   10.9250   13.1400 N.3   163  LYS163     -0.1314
     37  N         36.2660   12.7700   13.7710 N.3   239  ASP239     -0.1225
     38  CA        36.2360   11.7170   12.7660 C.3   239  ASP239      0.1805
     39  C         35.6730   12.2380   11.4470 C.2   239  ASP239      0.2597
     40  O         34.8980   13.1990   11.4130 O.2   239  ASP239     -0.2718
     41  CB        35.3960   10.5350   13.2490 C.3   239  ASP239      0.1424
     42  CG        33.9520   10.9150   13.5120 C.2   239  ASP239      0.3668
     43  OD1       33.7140   12.0210   14.0410 O.co2 239  ASP239     -0.2456
     44  OD2       33.0520   10.1080   13.1920 O.co2 239  ASP239     -0.2456
     45  N         36.0820   11.5930   10.3540 N.am  240  ASP240     -0.1974
     46  CA        35.5230   11.8560    9.0260 C.3   240  ASP240      0.1709
     47  C         35.7210   13.3150    8.6100 C.2   240  ASP240      0.2293
     48  O         34.7910   13.9880    8.1600 O.2   240  ASP240     -0.2864
     49  CB        34.0410   11.4760    8.9800 C.3   240  ASP240      0.1436
     50  CG        33.8170    9.9780    9.0640 C.2   240  ASP240      0.3671
     51  OD1       34.7900    9.2430    9.3310 O.co2 240  ASP240     -0.2456
     52  OD2       32.6660    9.5370    8.8630 O.co2 240  ASP240     -0.2456
     53  N         36.7470   11.7680   20.0290 N.3   275  CYS275     -0.1235
     54  CA        36.9020   10.7490   18.9980 C.3   275  CYS275      0.1677
     55  C         38.0340   11.1630   18.0720 C.2   275  CYS275      0.2270
     56  O         37.9520   12.2390   17.4610 O.2   275  CYS275     -0.2867
     57  CB        35.6070   10.5650   18.2070 C.3   275  CYS275      0.0956
     58  SG        35.6430    9.1860   17.0210 S.3   275  CYS275     -0.0801
     59  N         40.6670    6.5980   13.9860 N.3   279  TYR279     -0.1241
     60  CA        39.8580    5.8940   14.9730 C.3   279  TYR279      0.1605
     61  C         39.8130    4.3870   14.7450 C.2   279  TYR279      0.2264
     62  O         39.0220    3.6990   15.3980 O.2   279  TYR279     -0.2867
     63  CB        38.4360    6.4620   14.9840 C.3   279  TYR279      0.0534
     64  CG        37.7830    6.5160   13.6210 C.ar  279  TYR279     -0.0201
     65  CD1       37.1290    5.4090   13.1000 C.ar  279  TYR279     -0.0009
     66  CD2       37.8210    7.6740   12.8570 C.ar  279  TYR279     -0.0009
     67  CE1       36.5300    5.4520   11.8560 C.ar  279  TYR279      0.0417
     68  CE2       37.2250    7.7270   11.6100 C.ar  279  TYR279      0.0417
     69  CZ        36.5810    6.6120   11.1150 C.ar  279  TYR279      0.1957
     70  OH        35.9830    6.6570    9.8760 O.3   279  TYR279     -0.2866
     71  N         43.2340    2.4940    9.2480 N.3   283  TRP283     -0.1241
     72  CA        43.3610    3.8430    8.7130 C.3   283  TRP283      0.1605
     73  C         44.3480    4.7090    9.4850 C.2   283  TRP283      0.2264
     74  O         44.4960    5.8910    9.1590 O.2   283  TRP283     -0.2867
     75  CB        41.9910    4.5260    8.6900 C.3   283  TRP283      0.0550
     76  CG        41.0550    3.9570    7.6660 C.ar  283  TRP283      0.0003
     77  CD1       41.2850    2.8880    6.8470 C.ar  283  TRP283      0.0946
     78  CD2       39.7410    4.4280    7.3500 C.ar  283  TRP283      0.0152
     79  NE1       40.1950    2.6640    6.0430 N.ar  283  TRP283     -0.2442
     80  CE2       39.2330    3.5950    6.3320 C.ar  283  TRP283      0.0810
     81  CE3       38.9440    5.4730    7.8290 C.ar  283  TRP283      0.0012
     82  CZ2       37.9650    3.7750    5.7850 C.ar  283  TRP283      0.0191
     83  CZ3       37.6860    5.6500    7.2850 C.ar  283  TRP283      0.0001
     84  CH2       37.2090    4.8050    6.2730 C.ar  283  TRP283      0.0015
     85  N         37.2120    2.3410   17.1760 N.3   307  THR307     -0.1218
     86  CA        36.2590    1.3970   16.5950 C.3   307  THR307      0.1862
     87  C         36.8440    0.0110   16.3670 C.2   307  THR307      0.2287
     88  O         36.1170   -0.8790   15.9180 O.2   307  THR307     -0.2866
     89  CB        35.6990    1.9230   15.2610 C.3   307  THR307      0.1770
     90  OG1       36.7280    1.9300   14.2610 O.3   307  THR307     -0.2211
     91  CG2       35.1250    3.3240   15.4160 C.3   307  THR307      0.0375
     92  N         36.9400    0.1660   10.5130 N.3   311  VAL311     -0.1231
     93  CA        35.7510    0.9750   10.7840 C.3   311  VAL311      0.1692
     94  C         34.6470    0.0960   11.3550 C.2   311  VAL311      0.2591
     95  O         33.9830    0.4530   12.3360 O.2   311  VAL311     -0.2718
     96  CB        35.2890    1.7030    9.5080 C.3   311  VAL311      0.0266
     97  CG1       34.0100    2.4870    9.7680 C.3   311  VAL311      0.0020
     98  CG2       36.3800    2.6360    8.9960 C.3   311  VAL311      0.0020
     99  N         34.4350   -1.0630   10.7380 N.am  312  ILE312     -0.1980
    100  CA        33.5180   -2.0820   11.2320 C.3   312  ILE312      0.1595
    101  C         34.3700   -3.2790   11.6280 C.2   312  ILE312      0.2287
    102  O         35.0710   -3.8550   10.7870 O.2   312  ILE312     -0.2864
    103  CB        32.4750   -2.4790   10.1730 C.3   312  ILE312      0.0276
    104  CG1       32.0400   -1.2710    9.3320 C.3   312  ILE312      0.0022
    105  CG2       31.2640   -3.1240   10.8370 C.3   312  ILE312      0.0022
    106  CD1       31.3900   -0.1410   10.1180 C.3   312  ILE312      0.0001
    107  N         33.9300    2.3780   20.4070 N.3   334  TRP334     -0.1241
    108  CA        32.7990    2.7800   19.5760 C.3   334  TRP334      0.1605
    109  C         32.5700    1.6510   18.5780 C.2   334  TRP334      0.2264
    110  O         33.3320    1.5020   17.6170 O.2   334  TRP334     -0.2867
    111  CB        33.1080    4.1110   18.8860 C.3   334  TRP334      0.0550
    112  CG        32.1330    4.6200   17.8420 C.ar  334  TRP334      0.0003
    113  CD1       31.3820    3.8860   16.9580 C.ar  334  TRP334      0.0946
    114  CD2       31.8340    5.9980   17.5650 C.ar  334  TRP334      0.0152
    115  NE1       30.6370    4.7230   16.1610 N.ar  334  TRP334     -0.2442
    116  CE2       30.8960    6.0220   16.5120 C.ar  334  TRP334      0.0810
    117  CE3       32.2670    7.2120   18.1100 C.ar  334  TRP334      0.0012
    118  CZ2       30.3790    7.2100   15.9980 C.ar  334  TRP334      0.0191
    119  CZ3       31.7540    8.3950   17.5940 C.ar  334  TRP334      0.0001
    120  CH2       30.8200    8.3840   16.5500 C.ar  334  TRP334      0.0015
    121  N         30.6420   -0.1590   15.6800 N.3   336  ASN336     -0.1240
    122  CA        29.7600    0.1900   14.5660 C.3   336  ASN336      0.1653
    123  C         28.8840   -1.0100   14.1970 C.2   336  ASN336      0.2266
    124  O         28.9590   -1.5810   13.1070 O.2   336  ASN336     -0.2867
    125  CB        30.5770    0.6860   13.3810 C.3   336  ASN336      0.1155
    126  CG        30.9830    2.1410   13.5300 C.2   336  ASN336      0.2627
    127  OD1       30.1870    2.9740   13.9630 O.2   336  ASN336     -0.2716
    128  ND2       32.2240    2.4530   13.1770 N.am  336  ASN336     -0.0877
    129  N         24.6660   -0.2830   13.2250 N.3   339  VAL339     -0.1245
    130  CA        24.5340    0.8220   12.2860 C.3   339  VAL339      0.1561
    131  C         24.5450    0.2890   10.8590 C.2   339  VAL339      0.2260
    132  O         25.3070   -0.6230   10.5170 O.2   339  VAL339     -0.2867
    133  CB        25.6490    1.8620   12.5000 C.3   339  VAL339      0.0252
    134  CG1       27.0210    1.2420   12.2810 C.3   339  VAL339      0.0019
    135  CG2       25.4460    3.0550   11.5770 C.3   339  VAL339      0.0019
    136  N         24.0860    2.7290    8.0410 N.3   341  ASP341     -0.1225
    137  CA        24.0850    3.9010    7.1710 C.3   341  ASP341      0.1805
    138  C         24.9650    3.7320    5.9370 C.2   341  ASP341      0.2597
    139  O         25.0580    4.6710    5.1400 O.2   341  ASP341     -0.2718
    140  CB        24.5200    5.1470    7.9510 C.3   341  ASP341      0.1424
    141  CG        25.8790    4.9930    8.6140 C.2   341  ASP341      0.3668
    142  OD1       26.5360    3.9480    8.4090 O.co2 341  ASP341     -0.2456
    143  OD2       26.2900    5.9340    9.3410 O.co2 341  ASP341     -0.2456
    144  N         25.6200    2.5840    5.7630 N.am  342  TYR342     -0.1976
    145  CA        26.3080    2.2630    4.5210 C.3   342  TYR342      0.1639
    146  C         25.6850    1.0710    3.8080 C.2   342  TYR342      0.2290
    147  O         26.2100    0.6370    2.7760 O.2   342  TYR342     -0.2864
    148  CB        27.7970    1.9950    4.7830 C.3   342  TYR342      0.0560
    149  CG        28.0490    0.8590    5.7430 C.ar  342  TYR342     -0.0198
    150  CD1       28.0160    1.0650    7.1140 C.ar  342  TYR342     -0.0009
    151  CD2       28.3200   -0.4200    5.2790 C.ar  342  TYR342     -0.0009
    152  CE1       28.2440    0.0270    7.9970 C.ar  342  TYR342      0.0417
    153  CE2       28.5520   -1.4600    6.1510 C.ar  342  TYR342      0.0417
    154  CZ        28.5130   -1.2340    7.5070 C.ar  342  TYR342      0.1957
    155  OH        28.7400   -2.2770    8.3710 O.3   342  TYR342     -0.2866
    156  N         26.9450    1.9910   17.9660 N.3   369  ASN369     -0.1240
    157  CA        26.3420    2.9010   16.9950 C.3   369  ASN369      0.1653
    158  C         25.1770    2.1780   16.3230 C.2   369  ASN369      0.2266
    159  O         25.4050    1.1750   15.6220 O.2   369  ASN369     -0.2867
    160  CB        27.3740    3.3340   15.9620 C.3   369  ASN369      0.1155
    161  CG        26.9180    4.5200   15.1210 C.2   369  ASN369      0.2627
    162  OD1       25.9250    5.1880   15.4260 O.2   369  ASN369     -0.2716
    163  ND2       27.6660    4.7980   14.0590 N.am  369  ASN369     -0.0877
    164  N         33.2160   -2.3040    3.3580 N.3   430  HIS430     -0.1241
    165  CA        33.9290   -2.7180    4.5610 C.3   430  HIS430      0.1621
    166  C         34.1830   -4.2180    4.6180 C.2   430  HIS430      0.2264
    167  O         34.9920   -4.6580    5.4430 O.2   430  HIS430     -0.2867
    168  CB        33.1480   -2.2970    5.8080 C.3   430  HIS430      0.0745
    169  CG        32.9760   -0.8170    5.9450 C.ar  430  HIS430      0.0817
    170  ND1       34.0420    0.0560    5.9630 N.ar  430  HIS430     -0.2268
    171  CD2       31.8640   -0.0550    6.0800 C.ar  430  HIS430      0.1154
    172  CE1       33.5950    1.2920    6.0990 C.ar  430  HIS430      0.1986
    173  NE2       32.2760    1.2520    6.1730 N.ar  430  HIS430     -0.2212
@<TRIPOS>BOND
     1   147   146    2
     2   164   165    1
     3   146   145    1
     4   145   148    1
     5   145   144    1
     6   165   166    1
     7   165   168    1
     8   166   167    2
     9   148   149    1
    10   139   138    2
    11   151   149   ar
    12   151   153   ar
    13   149   150   ar
    14   144   138   am
    15    82    84   ar
    16    82    80   ar
    17   168   169    1
    18   138   137    1
    19   169   170   ar
    20   169   171   ar
    21   170   172   ar
    22    79    80   ar
    23    79    77   ar
    24   171   173   ar
    25   172   173   ar
    26   153   154   ar
    27    84    83   ar
    28    80    78   ar
    29    77    76   ar
    30   150   152   ar
    31   137   140    1
    32   137   136    1
    33    83    81   ar
    34    78    76   ar
    35    78    81   ar
    36   154   152   ar
    37   154   155    1
    38    23    25   ar
    39    23    21   ar
    40    76    75    1
    41    25    26   ar
    42    20    21    1
    43    20    17    1
    44    21    22   ar
    45   140   141    1
    46    48    47    2
    47    26    27    1
    48    26    24   ar
    49   142   141   ar
    50    22    24   ar
    51    19    18    2
    52    47    46    1
    53    18    17    1
    54   141   143   ar
    55    75    72    1
    56    72    71    1
    57    72    73    1
    58    52    50   ar
    59    17    16    1
    60    49    46    1
    61    49    50    1
    62    98    96    1
    63    46    45    1
    64    50    51   ar
    65    74    73    2
    66   104   106    1
    67   104   103    1
    68    96    97    1
    69    96    93    1
    70    70    69    1
    71    16     7   am
    72   103   105    1
    73   103   100    1
    74    45    39   am
    75    92    93    1
    76   132   131    2
    77    31    30    2
    78    99   100    1
    79    99    94   am
    80    32    33    1
    81    32    29    1
    82    93    94    1
    83   102   101    2
    84   131   130    1
    85    30    29    1
    86    69    68   ar
    87    69    67   ar
    88   100   101    1
    89    33    34    1
    90     7     8    2
    91     7     6    1
    92    94    95    2
    93    40    39    2
    94    34    35    1
    95    39    38    1
    96   135   133    1
    97    68    66   ar
    98    29    28    1
    99    35    36    1
   100    67    65   ar
   101    11    13   ar
   102    11    10   ar
   103     9     6    1
   104     9    10    1
   105   134   133    1
   106   130   133    1
   107   130   129    1
   108     6     5    1
   109    13    15   ar
   110    38    41    1
   111    38    37    1
   112    10    12   ar
   113    66    64   ar
   114    65    64   ar
   115   124   123    2
   116   128   126   am
   117    44    42   ar
   118    41    42    1
   119   125   126    1
   120   125   122    1
   121     4     3    2
   122    42    43   ar
   123   126   127    2
   124    64    63    1
   125     5     3   am
   126    15    14   ar
   127    59    60    1
   128   163   161   am
   129    12    14   ar
   130     3     2    1
   131   123   122    1
   132    90    89    1
   133   122   121    1
   134    61    60    1
   135    61    62    2
   136    60    63    1
   137   161   162    2
   138   161   160    1
   139    89    91    1
   140    89    86    1
   141   159   158    2
   142     2     1    1
   143    88    87    2
   144   160   157    1
   145   118   116   ar
   146   118   120   ar
   147   115   116   ar
   148   115   113   ar
   149   158   157    1
   150    87    86    1
   151   116   114   ar
   152   120   119   ar
   153    86    85    1
   154   113   112   ar
   155   157   156    1
   156    58    57    1
   157    56    55    2
   158   114   112   ar
   159   114   117   ar
   160   119   117   ar
   161   110   109    2
   162   112   111    1
   163    55    54    1
   164    57    54    1
   165   109   108    1
   166   111   108    1
   167    54    53    1
   168   108   107    1
