@<TRIPOS>MOLECULE
tmp/5mihA00.pdb
 93 89 0 0 0
SMALL
GASTEIGER

@<TRIPOS>ATOM
      1  N         18.3690  -25.9240   13.9830 N.3    36  TYR36      -0.1227
      2  CA        17.9630  -27.0440   14.8340 C.3    36  TYR36       0.1736
      3  C         18.6880  -28.3380   14.4260 C.2    36  TYR36       0.2596
      4  O         18.3660  -29.4020   14.9820 O.2    36  TYR36      -0.2718
      5  CB        16.4230  -27.2360   14.7660 C.3    36  TYR36       0.0548
      6  CG        15.8540  -27.3750   13.3630 C.ar   36  TYR36      -0.0200
      7  CD1       15.4840  -26.2710   12.5870 C.ar   36  TYR36      -0.0009
      8  CD2       15.6470  -28.6330   12.8140 C.ar   36  TYR36      -0.0009
      9  CE1       15.0010  -26.4280   11.3130 C.ar   36  TYR36       0.0417
     10  CE2       15.1790  -28.7870   11.5440 C.ar   36  TYR36       0.0417
     11  CZ        14.8370  -27.7070   10.7890 C.ar   36  TYR36       0.1957
     12  OH        14.3660  -27.9200    9.5280 O.3    36  TYR36      -0.2866
     13  N         19.6400  -28.2630   13.4950 N.am   37  GLY37      -0.1943
     14  CA        20.3710  -29.4600   13.0590 C.3    37  GLY37       0.1998
     15  C         20.9490  -29.3330   11.6700 C.2    37  GLY37       0.2480
     16  O         22.1460  -29.5590   11.4800 O.2    37  GLY37      -0.2729
     17  N         20.1180  -28.9640   10.6930 N.am   38  PRO38      -0.2726
     18  CA        20.6390  -28.8910    9.3450 C.3    38  PRO38       0.1402
     19  C         21.7390  -27.8480    9.1560 C.2    38  PRO38       0.2269
     20  O         22.0050  -27.0000   10.0180 O.2    38  PRO38      -0.2865
     21  CB        19.4210  -28.5340    8.5230 C.3    38  PRO38       0.0296
     22  CG        18.2790  -29.0690    9.3140 C.3    38  PRO38       0.0237
     23  CD        18.6540  -28.8230   10.7230 C.3    38  PRO38       0.0939
     24  N          9.2650  -27.2580    8.2870 N.3    50  HIS50      -0.1227
     25  CA         9.6390  -28.4340    9.0560 C.3    50  HIS50       0.1737
     26  C          8.4600  -28.8370    9.9620 C.2    50  HIS50       0.2438
     27  O          8.0030  -28.0360   10.7390 O.2    50  HIS50      -0.2733
     28  CB        10.8900  -28.1610    9.8780 C.3    50  HIS50       0.0758
     29  CG        11.4810  -29.3880   10.4700 C.ar   50  HIS50       0.0818
     30  ND1       12.0630  -30.3850    9.7020 N.ar   50  HIS50      -0.2268
     31  CD2       11.5880  -29.7860   11.7620 C.ar   50  HIS50       0.1154
     32  CE1       12.4770  -31.3500   10.5000 C.ar   50  HIS50       0.1986
     33  NE2       12.2310  -31.0020   11.7500 N.ar   50  HIS50      -0.2212
     34  N          7.9830  -30.0870    9.8630 N.am   51  PRO51      -0.2729
     35  CA         6.9400  -30.5420   10.7840 C.3    51  PRO51       0.1401
     36  C          7.2810  -30.3960   12.2590 C.2    51  PRO51       0.2269
     37  O          8.4060  -30.5470   12.6640 O.2    51  PRO51      -0.2865
     38  CB         6.7980  -32.0450   10.4250 C.3    51  PRO51       0.0296
     39  CG         7.3570  -32.1710    9.0090 C.3    51  PRO51       0.0237
     40  CD         8.4920  -31.1780    8.9830 C.3    51  PRO51       0.0939
     41  N          7.6010  -32.0690   15.5500 N.3    53  GLN53      -0.1196
     42  CA         7.8230  -33.4210   16.0440 C.3    53  GLN53       0.1782
     43  C          7.7870  -33.5070   17.5920 C.2    53  GLN53       0.2306
     44  O          8.4080  -34.3960   18.1630 O.2    53  GLN53      -0.2863
     45  CB         9.1890  -33.8880   15.5550 C.2    53  GLN53       0.0051
     46  CG         9.3830  -33.9430   14.0650 C.2    53  GLN53       0.0584
     47  CD        10.7900  -34.4040   13.5730 C.2    53  GLN53       0.2840
     48  OE1       11.6740  -34.8150   14.3390 O.2    53  GLN53      -0.2667
     49  NE2       10.9900  -34.3020   12.2520 N.am   53  GLN53      -0.0837
     50  N          7.6770  -30.0690   19.5740 N.3    55  LEU55      -0.1245
     51  CA         8.3850  -28.8470   19.9540 C.3    55  LEU55       0.1561
     52  C          7.9570  -28.3650   21.3410 C.2    55  LEU55       0.2260
     53  O          6.7990  -28.5890   21.7460 O.2    55  LEU55      -0.2867
     54  CB         8.0860  -27.7620   18.9420 C.3    55  LEU55       0.0270
     55  CG         8.6040  -28.0230   17.5060 C.3    55  LEU55       0.0019
     56  CD1        7.8960  -27.0830   16.5370 C.3    55  LEU55       0.0001
     57  CD2       10.1200  -27.8950   17.4330 C.3    55  LEU55       0.0001
     58  N          9.3550  -24.7360   14.2470 N.3    62  CYS62      -0.1235
     59  CA        10.6430  -25.2270   14.6400 C.3    62  CYS62       0.1677
     60  C         11.7280  -24.2100   14.3530 C.2    62  CYS62       0.2270
     61  O         11.7720  -23.6550   13.2550 O.2    62  CYS62      -0.2867
     62  CB        10.9500  -26.5340   13.8780 C.3    62  CYS62       0.0956
     63  SG        12.5060  -27.2610   14.3190 S.3    62  CYS62      -0.0801
     64  N         12.7860  -26.1280   19.8930 N.3   100  ASP100     -0.1225
     65  CA        13.1720  -27.4470   19.3470 C.3   100  ASP100      0.1805
     66  C         12.4980  -28.5130   20.2180 C.2   100  ASP100      0.2597
     67  O         11.7800  -28.1940   21.1780 O.2   100  ASP100     -0.2718
     68  CB        14.7100  -27.5760   19.3290 C.3   100  ASP100      0.1424
     69  CG        15.2310  -28.6560   18.3040 C.2   100  ASP100      0.3668
     70  OD1       14.4100  -29.3490   17.6550 O.co2 100  ASP100     -0.2456
     71  OD2       16.4780  -28.7670   18.1670 O.co2 100  ASP100     -0.2456
     72  N         12.6730  -29.7650   19.8740 N.am  101  VAL101     -0.1980
     73  CA        12.1580  -30.9050   20.6740 C.3   101  VAL101      0.1595
     74  C         13.0410  -31.2210   21.8480 C.2   101  VAL101      0.2287
     75  O         14.2780  -31.2660   21.7120 O.2   101  VAL101     -0.2864
     76  CB        12.0300  -32.1640   19.7720 C.3   101  VAL101      0.0276
     77  CG1       11.5310  -33.3710   20.5730 C.3   101  VAL101      0.0022
     78  CG2       11.1640  -31.8320   18.5580 C.3   101  VAL101      0.0022
     79  N         16.8450  -32.8350   21.9700 N.3   104  THR104     -0.1218
     80  CA        17.4200  -32.7730   20.6270 C.3   104  THR104      0.1862
     81  C         18.2300  -31.4880   20.3750 C.2   104  THR104      0.2287
     82  O         18.5100  -31.1830   19.2050 O.2   104  THR104     -0.2866
     83  CB        16.3700  -32.9160   19.5250 C.3   104  THR104      0.1770
     84  OG1       15.6050  -31.7090   19.3910 O.3   104  THR104     -0.2211
     85  CG2       15.4190  -34.0900   19.7500 C.3   104  THR104      0.0375
     86  N         22.6280  -30.9000   18.6240 N.3   107  ASN107     -0.1240
     87  CA        23.1150  -30.6440   17.2630 C.3   107  ASN107      0.1653
     88  C         22.7500  -29.2350   16.7360 C.2   107  ASN107      0.2266
     89  O         22.9180  -28.9380   15.5560 O.2   107  ASN107     -0.2867
     90  CB        22.6460  -31.7160   16.2920 C.3   107  ASN107      0.1155
     91  CG        21.1410  -31.7340   16.1140 C.2   107  ASN107      0.2627
     92  OD1       20.4130  -31.0970   16.8760 O.2   107  ASN107     -0.2716
     93  ND2       20.6690  -32.4150   15.0860 N.am  107  ASN107     -0.0877
@<TRIPOS>BOND
     1    24    25    1
     2    21    22    1
     3    21    18    1
     4    40    39    1
     5    40    34    1
     6    39    38    1
     7    25    28    1
     8    25    26    1
     9    19    18    1
    10    19    20    2
    11    22    23    1
    12    18    17    1
    13    12    11    1
    14    30    29   ar
    15    30    32   ar
    16    34    26   am
    17    34    35    1
    18    28    29    1
    19    26    27    2
    20    38    35    1
    21    29    31   ar
    22    32    33   ar
    23    17    23    1
    24    17    15   am
    25    35    36    1
    26    11     9   ar
    27    11    10   ar
    28     9     7   ar
    29    16    15    2
    30    10     8   ar
    31    15    14    1
    32    33    31   ar
    33    49    47   am
    34    36    37    2
    35     7     6   ar
    36     8     6   ar
    37    14    13    1
    38    61    60    2
    39     6     5    1
    40    13     3   am
    41    47    46    1
    42    47    48    2
    43    62    63    1
    44    62    59    1
    45     1     2    1
    46    46    45    2
    47    58    59    1
    48    60    59    1
    49     3     2    1
    50     3     4    2
    51     5     2    1
    52    93    91   am
    53    41    42    1
    54    45    42    1
    55    89    88    2
    56    42    43    1
    57    91    90    1
    58    91    92    2
    59    90    87    1
    60    56    55    1
    61    88    87    1
    62    87    86    1
    63    57    55    1
    64    55    54    1
    65    43    44    2
    66    70    69   ar
    67    71    69   ar
    68    69    68    1
    69    78    76    1
    70    54    51    1
    71    82    81    2
    72    68    65    1
    73    65    64    1
    74    65    66    1
    75    84    83    1
    76    83    85    1
    77    83    80    1
    78    50    51    1
    79    76    77    1
    80    76    73    1
    81    72    66   am
    82    72    73    1
    83    51    52    1
    84    66    67    2
    85    81    80    1
    86    80    79    1
    87    73    74    1
    88    52    53    2
    89    75    74    2
