@<TRIPOS>MOLECULE
tmp/5mihC01.pdb
 94 88 0 0 0
SMALL
GASTEIGER

@<TRIPOS>ATOM
      1  N         11.9560   38.5190   30.3160 N.3    11  GLU11      -0.1231
      2  CA        10.8350   38.8820   29.4460 C.3    11  GLU11       0.1699
      3  C         10.8950   38.1400   28.0720 C.2    11  GLU11       0.2592
      4  O          9.8870   37.8380   27.4680 O.2    11  GLU11      -0.2718
      5  CB        10.8110   40.4150   29.2340 C.3    11  GLU11       0.0402
      6  CG         9.6180   40.8530   28.4470 C.3    11  GLU11       0.1161
      7  CD         9.3130   42.3970   28.5990 C.2    11  GLU11       0.3649
      8  OE1       10.1900   43.1440   29.0670 O.co2  11  GLU11      -0.2457
      9  OE2        8.2010   42.8280   28.2490 O.co2  11  GLU11      -0.2457
     10  N         12.0840   37.8660   27.6050 N.am   12  ALA12      -0.1980
     11  CA        12.2800   37.2220   26.3340 C.3    12  ALA12       0.1597
     12  C         11.9390   35.7370   26.3730 C.2    12  ALA12       0.2287
     13  O         11.7220   35.1030   25.3270 O.2    12  ALA12      -0.2864
     14  CB        13.7450   37.3860   25.8940 C.3    12  ALA12       0.0319
     15  N          0.8110   38.5780   28.9300 N.3    56  ILE56      -0.1245
     16  CA         1.2030   37.9400   27.6330 C.3    56  ILE56       0.1561
     17  C          0.3620   36.7170   27.3160 C.2    56  ILE56       0.2260
     18  O          0.2630   36.3160   26.1600 O.2    56  ILE56      -0.2867
     19  CB         2.7130   37.5680   27.5720 C.3    56  ILE56       0.0252
     20  CG1        3.1290   36.5540   28.6580 C.3    56  ILE56       0.0019
     21  CG2        3.5860   38.8140   27.6240 C.3    56  ILE56       0.0019
     22  CD1        4.3520   35.7960   28.2460 C.3    56  ILE56       0.0001
     23  N          5.5100   29.2280   24.1680 N.3    68  LYS68      -0.1245
     24  CA         5.2350   29.3830   22.7340 C.3    68  LYS68       0.1561
     25  C          5.9010   28.2270   22.0020 C.2    68  LYS68       0.2260
     26  O          7.0300   27.8560   22.3670 O.2    68  LYS68      -0.2867
     27  CB         5.8200   30.6810   22.2000 C.3    68  LYS68       0.0271
     28  CG         5.0880   31.9070   22.6740 C.3    68  LYS68       0.0035
     29  CD         5.7770   33.1540   22.0310 C.3    68  LYS68       0.0206
     30  CE         5.1100   34.4350   22.4440 C.3    68  LYS68       0.1093
     31  NZ         5.7320   35.6020   21.7010 N.3    68  LYS68      -0.1314
     32  N          7.3470   27.5960   18.3950 N.3    70  GLY70      -0.1210
     33  CA         7.6750   28.3120   17.1470 C.3    70  GLY70       0.1956
     34  C          7.2460   29.7400   17.4110 C.2    70  GLY70       0.2612
     35  O          7.4780   30.3070   18.5070 O.2    70  GLY70      -0.2717
     36  N          6.5460   30.2880   16.4460 N.am   71  ASN71      -0.1960
     37  CA         6.0000   31.6590   16.5930 C.3    71  ASN71       0.1819
     38  C          4.5150   31.5970   16.9240 C.2    71  ASN71       0.2622
     39  O          3.7240   32.4570   16.5100 O.2    71  ASN71      -0.2715
     40  CB         6.2450   32.4770   15.2930 C.3    71  ASN71       0.1195
     41  CG         6.0560   33.9900   15.4940 C.2    71  ASN71       0.2630
     42  OD1        6.0120   34.5210   16.6220 O.2    71  ASN71      -0.2716
     43  ND2        5.9420   34.7060   14.3680 N.am   71  ASN71      -0.0877
     44  N          4.0760   30.5800   17.6570 N.am   72  SER72      -0.1936
     45  CA         2.6610   30.5010   18.0640 C.3    72  SER72       0.2055
     46  C          2.3300   31.6370   19.0570 C.2    72  SER72       0.2644
     47  O          3.2110   32.2970   19.6310 O.2    72  SER72      -0.2714
     48  CB         2.3560   29.1700   18.7810 C.3    72  SER72       0.2130
     49  OG         2.9420   29.1230   20.0680 O.3    72  SER72      -0.2179
     50  N          1.0560   31.7850   19.3210 N.am   73  GLY73      -0.1939
     51  CA         0.6180   32.5510   20.5090 C.3    73  GLY73       0.2014
     52  C          0.9920   31.7820   21.7760 C.2    73  GLY73       0.2639
     53  O          1.3670   30.5950   21.7430 O.2    73  GLY73      -0.2714
     54  N          0.8650   32.4540   22.9090 N.am   74  THR74      -0.1950
     55  CA         1.1350   31.8060   24.1950 C.3    74  THR74       0.1897
     56  C          0.1140   30.7230   24.5110 C.2    74  THR74       0.2313
     57  O         -1.1120   30.8370   24.2140 O.2    74  THR74      -0.2863
     58  CB         1.1720   32.8580   25.2950 C.3    74  THR74       0.1794
     59  OG1       -0.0180   33.6330   25.2500 O.3    74  THR74      -0.2208
     60  CG2        2.4000   33.7550   25.1870 C.3    74  THR74       0.0378
     61  N          9.6240   27.7080   23.6450 N.3    95  THR95      -0.1218
     62  CA        10.1690   28.7440   24.5360 C.3    95  THR95       0.1862
     63  C          9.2330   28.8490   25.7320 C.2    95  THR95       0.2287
     64  O          8.0060   28.9110   25.5730 O.2    95  THR95      -0.2866
     65  CB        10.1940   30.1010   23.8340 C.3    95  THR95       0.1770
     66  OG1       11.1190   30.0570   22.7350 O.3    95  THR95      -0.2211
     67  CG2       10.6850   31.2200   24.7860 C.3    95  THR95       0.0375
     68  N          7.9560   30.8920   29.1650 N.3    97  ILE97      -0.1245
     69  CA         7.9120   32.2900   29.6470 C.3    97  ILE97       0.1561
     70  C          7.0130   32.4240   30.8870 C.2    97  ILE97       0.2260
     71  O          5.9610   31.7860   30.9800 O.2    97  ILE97      -0.2867
     72  CB         7.3160   33.2260   28.5810 C.3    97  ILE97       0.0252
     73  CG1        7.7480   32.8630   27.1410 C.3    97  ILE97       0.0019
     74  CG2        7.7850   34.6820   28.8480 C.3    97  ILE97       0.0019
     75  CD1        6.5880   32.7650   26.1730 C.3    97  ILE97       0.0001
     76  N          3.7520   42.9570   29.5860 N.3   102  PRO102     -0.2116
     77  CA         4.9520   43.4450   28.9200 C.3   102  PRO102      0.1372
     78  C          5.4690   44.7460   29.5270 C.2   102  PRO102      0.2244
     79  O          4.6710   45.6000   29.9540 O.2   102  PRO102     -0.2868
     80  CB         4.4890   43.6460   27.4810 C.3   102  PRO102      0.0268
     81  CG         3.4430   42.6260   27.2970 C.3   102  PRO102      0.0207
     82  CD         2.7120   42.5860   28.6290 C.3   102  PRO102      0.0892
     83  N          8.5330   43.2900   33.7790 N.3   105  TYR105     -0.1241
     84  CA         9.2700   42.1240   34.2870 C.3   105  TYR105      0.1605
     85  C         10.3970   42.4920   35.2250 C.2   105  TYR105      0.2264
     86  O         10.8900   41.6360   35.9370 O.2   105  TYR105     -0.2867
     87  CB         9.8440   41.2940   33.0980 C.3   105  TYR105      0.0534
     88  CG         8.8240   40.3950   32.4240 C.ar  105  TYR105     -0.0201
     89  CD1        7.8420   40.9270   31.6280 C.ar  105  TYR105     -0.0009
     90  CD2        8.8470   38.9900   32.5830 C.ar  105  TYR105     -0.0009
     91  CE1        6.8790   40.1350   31.0180 C.ar  105  TYR105      0.0417
     92  CE2        7.9040   38.1870   31.9500 C.ar  105  TYR105      0.0417
     93  CZ         6.9090   38.7360   31.2120 C.ar  105  TYR105      0.1957
     94  OH         5.9940   37.9550   30.5570 O.3   105  TYR105     -0.2866
@<TRIPOS>BOND
     1    43    41   am
     2    40    41    1
     3    40    37    1
     4    41    42    2
     5    36    37    1
     6    36    34   am
     7    39    38    2
     8    37    38    1
     9    38    44   am
    10    33    34    1
    11    33    32    1
    12    34    35    2
    13    44    45    1
    14    45    48    1
    15    45    46    1
    16    48    49    1
    17    46    50   am
    18    46    47    2
    19    50    51    1
    20    51    52    1
    21    31    30    1
    22    53    52    2
    23    52    54   am
    24    25    26    2
    25    25    24    1
    26    29    30    1
    27    29    28    1
    28    27    28    1
    29    27    24    1
    30    24    23    1
    31    66    65    1
    32    54    55    1
    33    61    62    1
    34    65    62    1
    35    65    67    1
    36    55    56    1
    37    55    58    1
    38    57    56    2
    39    62    63    1
    40    60    58    1
    41    59    58    1
    42    13    12    2
    43    64    63    2
    44    14    11    1
    45    18    17    2
    46    75    73    1
    47    11    12    1
    48    11    10    1
    49    73    72    1
    50    81    80    1
    51    81    82    1
    52    17    16    1
    53     4     3    2
    54    80    77    1
    55    19    21    1
    56    19    16    1
    57    19    20    1
    58    10     3   am
    59    16    15    1
    60     3     2    1
    61    22    20    1
    62     9     7   ar
    63     6     7    1
    64     6     5    1
    65    72    74    1
    66    72    69    1
    67     7     8   ar
    68    82    76    1
    69    77    78    1
    70    77    76    1
    71    68    69    1
    72     5     2    1
    73     2     1    1
    74    78    79    2
    75    69    70    1
    76    94    93    1
    77    70    71    2
    78    91    93   ar
    79    91    89   ar
    80    93    92   ar
    81    89    88   ar
    82    92    90   ar
    83    88    90   ar
    84    88    87    1
    85    87    84    1
    86    83    84    1
    87    84    85    1
    88    85    86    2
