@<TRIPOS>MOLECULE
tmp/5milA00.pdb
 150 138 0 0 0
SMALL
GASTEIGER

@<TRIPOS>ATOM
      1  N         21.7260   37.4450   56.4850 N.3    14  GLN14      -0.1245
      2  CA        22.1380   36.0360   56.4830 C.3    14  GLN14       0.1566
      3  C         22.3960   35.5280   57.8950 C.2    14  GLN14       0.2260
      4  O         22.0920   34.3740   58.2190 O.2    14  GLN14      -0.2867
      5  CB        23.3920   35.8210   55.6250 C.3    14  GLN14       0.0367
      6  CG        23.8130   34.3340   55.4860 C.3    14  GLN14       0.0905
      7  CD        22.7370   33.5070   54.8200 C.2    14  GLN14       0.2608
      8  OE1       22.1040   33.9610   53.8630 O.2    14  GLN14      -0.2717
      9  NE2       22.5160   32.2830   55.3200 N.am   14  GLN14      -0.0878
     10  N         19.2820   34.6840   59.8380 N.3    17  PHE17      -0.1227
     11  CA        18.7340   33.3780   59.4950 C.3    17  PHE17       0.1736
     12  C         19.5930   32.2450   60.0490 C.2    17  PHE17       0.2595
     13  O         19.0720   31.3260   60.6850 O.2    17  PHE17      -0.2718
     14  CB        18.5740   33.2020   57.9810 C.3    17  PHE17       0.0547
     15  CG        17.9880   31.8670   57.6030 C.ar   17  PHE17      -0.0202
     16  CD1       16.6200   31.6620   57.6620 C.ar   17  PHE17      -0.0042
     17  CD2       18.8030   30.8110   57.2360 C.ar   17  PHE17      -0.0042
     18  CE1       16.0730   30.4380   57.3380 C.ar   17  PHE17      -0.0003
     19  CE2       18.2630   29.5760   56.9090 C.ar   17  PHE17      -0.0003
     20  CZ        16.8990   29.3890   56.9600 C.ar   17  PHE17      -0.0000
     21  N         20.9030   32.2980   59.8010 N.am   18  ASP18      -0.1974
     22  CA        21.7820   31.1930   60.1870 C.3    18  ASP18       0.1709
     23  C         21.8040   30.9720   61.7040 C.2    18  ASP18       0.2293
     24  O         22.0140   29.8520   62.1750 O.2    18  ASP18      -0.2864
     25  CB        23.2020   31.4310   59.6650 C.3    18  ASP18       0.1436
     26  CG        23.3460   31.0940   58.1780 C.2    18  ASP18       0.3671
     27  OD1       22.6680   30.1600   57.6880 O.co2  18  ASP18      -0.2456
     28  OD2       24.1380   31.7700   57.4930 O.co2  18  ASP18      -0.2456
     29  N         19.7500   28.0760   63.0260 N.3    21  ILE21      -0.1245
     30  CA        20.1300   26.7020   62.6700 C.3    21  ILE21       0.1561
     31  C         21.2720   26.2100   63.5620 C.2    21  ILE21       0.2260
     32  O         22.4330   26.5500   63.3170 O.2    21  ILE21      -0.2867
     33  CB        20.5760   26.5890   61.1860 C.3    21  ILE21       0.0252
     34  CG1       19.5940   27.2890   60.2510 C.3    21  ILE21       0.0019
     35  CG2       20.7030   25.1250   60.7680 C.3    21  ILE21       0.0019
     36  CD1       18.2510   26.5720   60.1250 C.3    21  ILE21       0.0001
     37  N         24.4610   24.3800   62.2130 N.3    24  LEU24      -0.1245
     38  CA        25.2390   25.1560   61.2390 C.3    24  LEU24       0.1561
     39  C         26.7260   24.8990   61.3710 C.2    24  LEU24       0.2260
     40  O         27.2720   24.9910   62.4630 O.2    24  LEU24      -0.2867
     41  CB        24.9800   26.6620   61.4080 C.3    24  LEU24       0.0270
     42  CG        25.7330   27.5790   60.4350 C.3    24  LEU24       0.0019
     43  CD1       24.9750   27.6920   59.1120 C.3    24  LEU24       0.0001
     44  CD2       25.9810   28.9680   61.0470 C.3    24  LEU24       0.0001
     45  N         28.3630   24.0240   54.9390 N.3    29  SER29      -0.1217
     46  CA        28.1090   25.2880   54.2560 C.3    29  SER29       0.1889
     47  C         28.9220   25.3800   52.9760 C.2    29  SER29       0.2288
     48  O         28.4400   25.8670   51.9610 O.2    29  SER29      -0.2866
     49  CB        28.4270   26.4770   55.1730 C.3    29  SER29       0.2089
     50  OG        27.4520   26.6090   56.1960 O.3    29  SER29      -0.2183
     51  N         27.0840   23.1750   45.6510 N.3    35  VAL35      -0.1231
     52  CA        25.8960   22.5970   45.0290 C.3    35  VAL35       0.1692
     53  C         24.9460   23.6770   44.4670 C.2    35  VAL35       0.2591
     54  O         24.3700   23.5050   43.3940 O.2    35  VAL35      -0.2718
     55  CB        25.1780   21.6690   46.0230 C.3    35  VAL35       0.0266
     56  CG1       23.8380   21.2060   45.4620 C.3    35  VAL35       0.0020
     57  CG2       26.0930   20.4510   46.3420 C.3    35  VAL35       0.0020
     58  N         24.8080   24.8100   45.1450 N.am   36  GLU36      -0.1979
     59  CA        23.9700   25.8850   44.5930 C.3    36  GLU36       0.1602
     60  C         24.6170   26.4780   43.3490 C.2    36  GLU36       0.2287
     61  O         23.9310   26.9800   42.4520 O.2    36  GLU36      -0.2864
     62  CB        23.7250   26.9840   45.6380 C.3    36  GLU36       0.0415
     63  CG        23.0000   26.4890   46.9000 C.3    36  GLU36       0.1163
     64  CD        21.5960   25.9590   46.6350 C.2    36  GLU36       0.3649
     65  OE1       20.9620   26.3520   45.6290 O.co2  36  GLU36      -0.2457
     66  OE2       21.1220   25.1480   47.4520 O.co2  36  GLU36      -0.2457
     67  N         23.3490   24.2590   40.7750 N.3    39  GLU39      -0.1245
     68  CA        21.9280   24.5330   40.5680 C.3    39  GLU39       0.1567
     69  C         21.7910   25.7820   39.7030 C.2    39  GLU39       0.2260
     70  O         21.0240   25.7880   38.7480 O.2    39  GLU39      -0.2867
     71  CB        21.1970   24.7450   41.8840 C.3    39  GLU39       0.0388
     72  CG        21.0900   23.5430   42.7890 C.3    39  GLU39       0.1160
     73  CD        20.2850   23.8700   44.0290 C.2    39  GLU39       0.3649
     74  OE1       19.3430   24.6740   43.9050 O.co2  39  GLU39      -0.2457
     75  OE2       20.6190   23.3630   45.1300 O.co2  39  GLU39      -0.2457
     76  N         18.3210   30.9940   41.9950 N.3    64  GLU64      -0.1245
     77  CA        19.4140   30.0710   42.3230 C.3    64  GLU64       0.1567
     78  C         20.6840   30.8440   42.6690 C.2    64  GLU64       0.2260
     79  O         21.4480   30.4380   43.5480 O.2    64  GLU64      -0.2867
     80  CB        19.6980   29.0910   41.1730 C.3    64  GLU64       0.0388
     81  CG        18.6350   27.9960   40.9490 C.3    64  GLU64       0.1160
     82  CD        18.5490   26.9840   42.0840 C.2    64  GLU64       0.3649
     83  OE1       19.1140   27.2490   43.1700 O.co2  64  GLU64      -0.2457
     84  OE2       17.9220   25.9090   41.8890 O.co2  64  GLU64      -0.2457
     85  N         20.3750   31.7890   46.0810 N.3    67  ASP67      -0.1239
     86  CA        20.7710   30.6450   46.9070 C.3    67  ASP67       0.1674
     87  C         22.2880   30.5750   47.1210 C.2    67  ASP67       0.2266
     88  O         22.7880   30.3420   48.2320 O.2    67  ASP67      -0.2867
     89  CB        20.3150   29.3350   46.2630 C.3    67  ASP67       0.1410
     90  CG        18.8680   28.9920   46.5610 C.2    67  ASP67       0.3668
     91  OD1       18.2300   29.7240   47.3450 O.co2  67  ASP67      -0.2456
     92  OD2       18.3780   27.9690   46.0170 O.co2  67  ASP67      -0.2456
     93  N         23.4940   33.3170   49.3760 N.3    70  ALA70      -0.1231
     94  CA        23.2020   32.9710   50.7680 C.3    70  ALA70       0.1694
     95  C         24.3600   32.2130   51.4300 C.2    70  ALA70       0.2592
     96  O         24.8070   32.5610   52.5340 O.2    70  ALA70      -0.2718
     97  CB        21.9330   32.1560   50.8440 C.3    70  ALA70       0.0304
     98  N         24.8590   31.1800   50.7600 N.am   71  PHE71      -0.1976
     99  CA        25.9190   30.3750   51.3630 C.3    71  PHE71       0.1639
    100  C         27.2600   31.0900   51.3240 C.2    71  PHE71       0.2290
    101  O         28.0870   30.8860   52.2040 O.2    71  PHE71      -0.2864
    102  CB        26.0160   28.9960   50.6880 C.3    71  PHE71       0.0560
    103  CG        24.8550   28.0930   51.0250 C.ar   71  PHE71      -0.0200
    104  CD1       24.7410   27.5280   52.2950 C.ar   71  PHE71      -0.0042
    105  CD2       23.8740   27.8280   50.0930 C.ar   71  PHE71      -0.0042
    106  CE1       23.6720   26.7010   52.6170 C.ar   71  PHE71      -0.0003
    107  CE2       22.7980   27.0030   50.4080 C.ar   71  PHE71      -0.0003
    108  CZ        22.7060   26.4330   51.6690 C.ar   71  PHE71      -0.0000
    109  N         27.1250   33.2590   54.2470 N.3    74  SER74      -0.1217
    110  CA        27.1850   32.4390   55.4470 C.3    74  SER74       0.1889
    111  C         28.6150   32.0060   55.7460 C.2    74  SER74       0.2288
    112  O         29.0440   32.0180   56.8930 O.2    74  SER74      -0.2866
    113  CB        26.2910   31.2170   55.2980 C.3    74  SER74       0.2089
    114  OG        26.2780   30.4720   56.5020 O.3    74  SER74      -0.2183
    115  N         13.9700   35.6550   48.9980 N.3   146  LYS146     -0.1231
    116  CA        14.2100   34.2350   49.2700 C.3   146  LYS146      0.1693
    117  C         14.4200   33.9890   50.7650 C.2   146  LYS146      0.2591
    118  O         13.9820   32.9820   51.3040 O.2   146  LYS146     -0.2718
    119  CB        15.4230   33.7240   48.4890 C.3   146  LYS146      0.0285
    120  CG        15.4330   32.2190   48.3080 C.3   146  LYS146      0.0035
    121  CD        14.8110   31.7870   46.9820 C.3   146  LYS146      0.0206
    122  CE        14.9600   30.2760   46.7910 C.3   146  LYS146      0.1093
    123  NZ        14.8160   29.8440   45.3680 N.3   146  LYS146     -0.1314
    124  N         15.0980   34.9040   51.4440 N.am  147  MET147     -0.1979
    125  CA        15.4070   34.6600   52.8430 C.3   147  MET147      0.1605
    126  C         14.1590   34.8300   53.7050 C.2   147  MET147      0.2287
    127  O         14.0490   34.1940   54.7430 O.2   147  MET147     -0.2864
    128  CB        16.5280   35.5820   53.3390 C.3   147  MET147      0.0413
    129  CG        17.8960   35.3400   52.6930 C.3   147  MET147      0.0598
    130  SD        18.5080   33.6340   52.7830 S.3   147  MET147     -0.1393
    131  CE        18.7740   33.3950   54.5330 C.3   147  MET147      0.0692
    132  N         12.6560   31.6410   53.3280 N.3   150  ASN150     -0.1240
    133  CA        13.3730   30.6640   54.1420 C.3   150  ASN150      0.1653
    134  C         12.9810   30.7550   55.6290 C.2   150  ASN150      0.2266
    135  O         12.7860   29.7360   56.3000 O.2   150  ASN150     -0.2867
    136  CB        14.8860   30.8430   53.9840 C.3   150  ASN150      0.1155
    137  CG        15.4190   30.3230   52.6420 C.2   150  ASN150      0.2627
    138  OD1       14.9170   29.3500   52.0820 O.2   150  ASN150     -0.2716
    139  ND2       16.4600   30.9770   52.1350 N.am  150  ASN150     -0.0877
    140  N          9.6640   29.2540   56.2590 N.3   153  ARG153     -0.1245
    141  CA         9.7630   27.8050   56.1850 C.3   153  ARG153      0.1563
    142  C         10.3670   27.2320   57.4720 C.2   153  ARG153      0.2260
    143  O         10.0090   26.1420   57.8970 O.2   153  ARG153     -0.2867
    144  CB        10.5900   27.4090   54.9580 C.3   153  ARG153      0.0307
    145  CG        10.5520   25.9340   54.5910 C.3   153  ARG153      0.0489
    146  CD        10.9790   25.7020   53.1300 C.3   153  ARG153      0.2205
    147  NE        11.8700   26.7570   52.6540 N.pl3 153  ARG153     -0.0865
    148  CZ        11.6400   27.5250   51.5940 C.cat 153  ARG153      0.5346
    149  NH1       10.5520   27.3510   50.8610 N.pl3 153  ARG153      0.1354
    150  NH2       12.5120   28.4670   51.2580 N.pl3 153  ARG153      0.1354
@<TRIPOS>BOND
     1    70    69    2
     2    69    68    1
     3    68    67    1
     4    68    71    1
     5    81    80    1
     6    81    82    1
     7    80    77    1
     8    71    72    1
     9    84    82   ar
    10    76    77    1
    11    82    83   ar
    12    77    78    1
    13    61    60    2
    14    78    79    2
    15    72    73    1
    16    60    59    1
    17    54    53    2
    18    74    73   ar
    19    73    75   ar
    20    53    52    1
    21    53    58   am
    22    59    58    1
    23    59    62    1
    24    52    51    1
    25    52    55    1
    26   123   122    1
    27    56    55    1
    28    65    64   ar
    29    62    63    1
    30    92    90   ar
    31    55    57    1
    32    85    86    1
    33    89    90    1
    34    89    86    1
    35    90    91   ar
    36    64    63    1
    37    64    66   ar
    38   122   121    1
    39    86    87    1
    40   121   120    1
    41    87    88    2
    42   120   119    1
    43   119   116    1
    44   115   116    1
    45   116   117    1
    46    93    94    1
    47   105   107   ar
    48   105   103   ar
    49   107   108   ar
    50   102   103    1
    51   102    99    1
    52    98    99    1
    53    98    95   am
    54   117   118    2
    55   117   124   am
    56    94    97    1
    57    94    95    1
    58   149   148    1
    59   103   104   ar
    60   150   148    1
    61   100    99    1
    62   100   101    2
    63    95    96    2
    64   124   125    1
    65   148   147    2
    66   108   106   ar
    67    48    47    2
    68   138   137    2
    69   139   137   am
    70   104   106   ar
    71   137   136    1
    72   147   146    1
    73   129   130    1
    74   129   128    1
    75   130   131    1
    76   125   128    1
    77   125   126    1
    78    47    46    1
    79   146   145    1
    80   132   133    1
    81   126   127    2
    82     8     7    2
    83   136   133    1
    84   133   134    1
    85   109   110    1
    86    46    45    1
    87    46    49    1
    88   145   144    1
    89     7     9   am
    90     7     6    1
    91   144   141    1
    92    49    50    1
    93   113   110    1
    94   113   114    1
    95   110   111    1
    96     6     5    1
    97     5     2    1
    98   134   135    2
    99   111   112    2
   100   141   140    1
   101   141   142    1
   102     2     1    1
   103     2     3    1
   104    19    20   ar
   105    19    17   ar
   106    20    18   ar
   107    17    15   ar
   108    18    16   ar
   109   142   143    2
   110    28    26   ar
   111    15    16   ar
   112    15    14    1
   113    27    26   ar
   114     3     4    2
   115    14    11    1
   116    26    25    1
   117    43    42    1
   118    11    10    1
   119    11    12    1
   120    25    22    1
   121    21    12   am
   122    21    22    1
   123    12    13    2
   124    36    34    1
   125    22    23    1
   126    34    33    1
   127    42    44    1
   128    42    41    1
   129    35    33    1
   130    33    30    1
   131    38    39    1
   132    38    41    1
   133    38    37    1
   134    39    40    2
   135    23    24    2
   136    30    29    1
   137    30    31    1
   138    32    31    2
