@<TRIPOS>MOLECULE
tmp/5mimA01.pdb
 152 145 0 0 0
SMALL
GASTEIGER

@<TRIPOS>ATOM
      1  N         42.4000  -28.5260   -9.6570 N.3    45  ASP45      -0.1225
      2  CA        43.0270  -29.5270  -10.5070 C.3    45  ASP45       0.1805
      3  C         44.0890  -28.9280  -11.4310 C.2    45  ASP45       0.2597
      4  O         44.8220  -28.0340  -11.0290 O.2    45  ASP45      -0.2718
      5  CB        41.9400  -30.2410  -11.3250 C.3    45  ASP45       0.1424
      6  CG        42.2970  -31.6840  -11.6430 C.2    45  ASP45       0.3668
      7  OD1       43.2530  -31.9110  -12.4140 O.co2  45  ASP45      -0.2456
      8  OD2       41.6090  -32.5930  -11.1400 O.co2  45  ASP45      -0.2456
      9  N         44.1560  -29.4150  -12.6700 N.am   46  ASP46      -0.1974
     10  CA        45.2260  -29.0060  -13.5860 C.3    46  ASP46       0.1709
     11  C         44.7750  -27.9180  -14.5590 C.2    46  ASP46       0.2293
     12  O         45.4540  -27.6410  -15.5420 O.2    46  ASP46      -0.2864
     13  CB        45.7840  -30.2180  -14.3620 C.3    46  ASP46       0.1436
     14  CG        44.7100  -30.9870  -15.1430 C.2    46  ASP46       0.3671
     15  OD1       43.5880  -30.4750  -15.3300 O.co2  46  ASP46      -0.2456
     16  OD2       45.0000  -32.1220  -15.5800 O.co2  46  ASP46      -0.2456
     17  N         48.3110  -33.8420  -21.1790 N.3    83  ASP83      -0.1239
     18  CA        48.4640  -34.0970  -19.7500 C.3    83  ASP83       0.1674
     19  C         47.4350  -33.3700  -18.8950 C.2    83  ASP83       0.2266
     20  O         46.9520  -33.9020  -17.8880 O.2    83  ASP83      -0.2867
     21  CB        49.8540  -33.6780  -19.2750 C.3    83  ASP83       0.1410
     22  CG        50.9610  -34.4550  -19.9460 C.2    83  ASP83       0.3668
     23  OD1       51.2530  -35.5830  -19.4950 O.co2  83  ASP83      -0.2456
     24  OD2       51.5410  -33.9290  -20.9210 O.co2  83  ASP83      -0.2456
     25  N         42.5330  -33.1470  -17.0680 N.3    86  HIS86      -0.1241
     26  CA        41.7220  -33.7280  -15.9920 C.3    86  HIS86       0.1621
     27  C         40.6930  -32.7700  -15.4090 C.2    86  HIS86       0.2264
     28  O         39.5470  -33.1590  -15.1630 O.2    86  HIS86      -0.2867
     29  CB        42.6340  -34.2660  -14.8920 C.3    86  HIS86       0.0745
     30  CG        43.5630  -35.3340  -15.3770 C.ar   86  HIS86       0.0817
     31  ND1       44.8550  -35.0700  -15.7770 N.ar   86  HIS86      -0.2268
     32  CD2       43.3660  -36.6590  -15.5820 C.ar   86  HIS86       0.1154
     33  CE1       45.4280  -36.1940  -16.1780 C.ar   86  HIS86       0.1986
     34  NE2       44.5450  -37.1710  -16.0700 N.ar   86  HIS86      -0.2212
     35  N         36.5850  -33.2040  -15.1760 N.3    90  CYS90      -0.1235
     36  CA        35.8690  -33.1100  -13.9080 C.3    90  CYS90       0.1677
     37  C         34.8020  -32.0130  -13.9370 C.2    90  CYS90       0.2270
     38  O         33.6940  -32.2010  -13.4330 O.2    90  CYS90      -0.2867
     39  CB        36.8670  -32.8860  -12.7750 C.3    90  CYS90       0.0956
     40  SG        37.8910  -34.3560  -12.4550 S.3    90  CYS90      -0.0801
     41  N         47.6600  -27.9530  -10.0250 N.3   119  LEU119     -0.1245
     42  CA        48.4520  -29.1830  -10.0830 C.3   119  LEU119      0.1561
     43  C         49.5890  -29.1360  -11.1130 C.2   119  LEU119      0.2260
     44  O         50.4720  -30.0000  -11.1060 O.2   119  LEU119     -0.2867
     45  CB        47.5500  -30.3870  -10.3920 C.3   119  LEU119      0.0270
     46  CG        46.5130  -30.7320   -9.3120 C.3   119  LEU119      0.0019
     47  CD1       45.7500  -31.9980   -9.6870 C.3   119  LEU119      0.0001
     48  CD2       47.1850  -30.8850   -7.9510 C.3   119  LEU119      0.0001
     49  N         53.6460  -28.2440   -6.3050 N.3   123  VAL123     -0.1245
     50  CA        52.4940  -28.1130   -5.4240 C.3   123  VAL123      0.1561
     51  C         52.9540  -28.1060   -3.9730 C.2   123  VAL123      0.2260
     52  O         53.0890  -29.1510   -3.3310 O.2   123  VAL123     -0.2867
     53  CB        51.4680  -29.2350   -5.6370 C.3   123  VAL123      0.0252
     54  CG1       50.2600  -29.0270   -4.7200 C.3   123  VAL123      0.0019
     55  CG2       51.0300  -29.2890   -7.0930 C.3   123  VAL123      0.0019
     56  N         48.4510  -25.3380   -2.1230 N.3   128  GLU128     -0.1245
     57  CA        47.2280  -25.9980   -1.6780 C.3   128  GLU128      0.1567
     58  C         46.3370  -25.0320   -0.9090 C.2   128  GLU128      0.2260
     59  O         45.1250  -24.9650   -1.1520 O.2   128  GLU128     -0.2867
     60  CB        47.5590  -27.2070   -0.8030 C.3   128  GLU128      0.0388
     61  CG        48.3680  -28.2690   -1.5350 C.3   128  GLU128      0.1160
     62  CD        48.6530  -29.4940   -0.6860 C.2   128  GLU128      0.3649
     63  OE1       48.1780  -29.5580    0.4700 O.co2 128  GLU128     -0.2457
     64  OE2       49.3570  -30.3900   -1.1880 O.co2 128  GLU128     -0.2457
     65  N         40.3720  -34.1650   -6.6180 N.3   145  SER145     -0.1202
     66  CA        40.5770  -35.5470   -7.0380 C.3   145  SER145      0.2020
     67  C         42.0530  -35.8880   -6.9760 C.2   145  SER145      0.2619
     68  O         42.5170  -36.7290   -7.7410 O.2   145  SER145     -0.2717
     69  CB        40.0610  -35.7620   -8.4680 C.3   145  SER145      0.2103
     70  OG        38.6520  -35.5720   -8.5960 O.3   145  SER145     -0.2182
     71  N         42.7840  -35.2020   -6.0950 N.am  146  TRP146     -0.1961
     72  CA        44.2330  -35.3830   -5.9410 C.3   146  TRP146      0.1771
     73  C         44.5810  -35.6110   -4.4850 C.2   146  TRP146      0.2620
     74  O         43.7630  -35.3590   -3.6060 O.2   146  TRP146     -0.2715
     75  CB        45.0220  -34.1680   -6.4650 C.3   146  TRP146      0.0590
     76  CG        44.5460  -32.8200   -5.9260 C.ar  146  TRP146      0.0006
     77  CD1       43.6520  -31.9750   -6.5240 C.ar  146  TRP146      0.0946
     78  CD2       44.9330  -32.1820   -4.6980 C.ar  146  TRP146      0.0152
     79  NE1       43.4610  -30.8570   -5.7500 N.ar  146  TRP146     -0.2442
     80  CE2       44.2310  -30.9600   -4.6240 C.ar  146  TRP146      0.0810
     81  CE3       45.8020  -32.5230   -3.6570 C.ar  146  TRP146      0.0012
     82  CZ2       44.3670  -30.0800   -3.5500 C.ar  146  TRP146      0.0191
     83  CZ3       45.9370  -31.6460   -2.5910 C.ar  146  TRP146      0.0001
     84  CH2       45.2240  -30.4410   -2.5450 C.ar  146  TRP146      0.0015
     85  N         45.8050  -36.0690   -4.2310 N.am  147  GLY147     -0.1940
     86  CA        46.2860  -36.2750   -2.8730 C.3   147  GLY147      0.1998
     87  C         47.6400  -36.9670   -2.8350 C.2   147  GLY147      0.2481
     88  O         48.3100  -37.0760   -3.8650 O.2   147  GLY147     -0.2729
     89  N         48.0450  -37.4600   -1.6540 N.am  148  PRO148     -0.2715
     90  CA        49.3490  -38.1200   -1.4890 C.3   148  PRO148      0.1536
     91  C         49.4820  -39.3160   -2.4140 C.2   148  PRO148      0.2598
     92  O         48.4680  -39.9130   -2.7780 O.2   148  PRO148     -0.2715
     93  CB        49.3480  -38.5650   -0.0210 C.3   148  PRO148      0.0310
     94  CG        48.3160  -37.7240    0.6230 C.3   148  PRO148      0.0237
     95  CD        47.2720  -37.4630   -0.4030 C.3   148  PRO148      0.0939
     96  N         50.7110  -39.6610   -2.7840 N.am  149  GLU149     -0.1978
     97  CA        50.9330  -40.7310   -3.7550 C.3   149  GLU149      0.1602
     98  C         50.2170  -42.0130   -3.3410 C.2   149  GLU149      0.2287
     99  O         50.3220  -42.4440   -2.1980 O.2   149  GLU149     -0.2864
    100  CB        52.4280  -41.0040   -3.9310 C.3   149  GLU149      0.0415
    101  CG        52.7380  -41.7230   -5.2320 C.3   149  GLU149      0.1163
    102  CD        54.2200  -41.9660   -5.4330 C.2   149  GLU149      0.3649
    103  OE1       54.5680  -42.8110   -6.2880 O.co2 149  GLU149     -0.2457
    104  OE2       55.0320  -41.3140   -4.7370 O.co2 149  GLU149     -0.2457
    105  N         50.6120  -39.3010    4.6250 N.3   156  ASP156     -0.1225
    106  CA        50.7800  -37.8750    4.4000 C.3   156  ASP156      0.1805
    107  C         49.4410  -37.1690    4.3910 C.2   156  ASP156      0.2598
    108  O         48.4460  -37.7290    3.9360 O.2   156  ASP156     -0.2718
    109  CB        51.5160  -37.6400    3.0810 C.3   156  ASP156      0.1424
    110  CG        51.8950  -36.1830    2.8700 C.2   156  ASP156      0.3668
    111  OD1       52.3350  -35.5220    3.8380 O.co2 156  ASP156     -0.2456
    112  OD2       51.7520  -35.7060    1.7240 O.co2 156  ASP156     -0.2456
    113  N         49.4190  -35.9390    4.8930 N.am  157  GLY157     -0.1957
    114  CA        48.2150  -35.1330    4.8840 C.3   157  GLY157      0.1869
    115  C         48.5210  -33.6570    4.7080 C.2   157  GLY157      0.2309
    116  O         49.6640  -33.2720    4.4250 O.2   157  GLY157     -0.2863
    117  N         43.0270  -43.7300   -5.5900 N.3   187  ASN187     -0.1240
    118  CA        43.0950  -44.7280   -6.6530 C.3   187  ASN187      0.1653
    119  C         44.1620  -45.7840   -6.4440 C.2   187  ASN187      0.2266
    120  O         44.6490  -46.3610   -7.4220 O.2   187  ASN187     -0.2867
    121  CB        43.3400  -44.0480   -8.0060 C.3   187  ASN187      0.1155
    122  CG        42.0810  -43.4420   -8.5800 C.2   187  ASN187      0.2627
    123  OD1       41.0300  -44.0770   -8.5820 O.2   187  ASN187     -0.2716
    124  ND2       42.1710  -42.2000   -9.0450 N.am  187  ASN187     -0.0877
    125  N         44.0570  -35.9310    3.5810 N.3   200  TYR200     -0.1241
    126  CA        43.0660  -35.0790    2.9240 C.3   200  TYR200      0.1605
    127  C         41.6880  -35.7360    2.9580 C.2   200  TYR200      0.2264
    128  O         40.6920  -35.1390    3.4130 O.2   200  TYR200     -0.2867
    129  CB        43.4910  -34.7670    1.4720 C.3   200  TYR200      0.0534
    130  CG        44.7900  -33.9950    1.4190 C.ar  200  TYR200     -0.0201
    131  CD1       46.0180  -34.6590    1.4680 C.ar  200  TYR200     -0.0009
    132  CD2       44.7970  -32.6030    1.3700 C.ar  200  TYR200     -0.0009
    133  CE1       47.2130  -33.9580    1.4500 C.ar  200  TYR200      0.0417
    134  CE2       45.9920  -31.8890    1.3360 C.ar  200  TYR200      0.0417
    135  CZ        47.1940  -32.5740    1.3780 C.ar  200  TYR200      0.1957
    136  OH        48.3830  -31.8860    1.3670 O.3   200  TYR200     -0.2866
    137  N         36.2490  -41.2920  -19.2250 N.3   256  HIS256     -0.1241
    138  CA        36.7860  -40.7520  -17.9850 C.3   256  HIS256      0.1621
    139  C         36.6640  -41.8600  -16.9260 C.2   256  HIS256      0.2264
    140  O         35.6890  -42.6310  -16.9500 O.2   256  HIS256     -0.2867
    141  CB        36.0420  -39.4830  -17.5620 C.3   256  HIS256      0.0745
    142  CG        36.7070  -38.7390  -16.4400 C.ar  256  HIS256      0.0817
    143  ND1       36.0210  -37.8850  -15.6000 N.ar  256  HIS256     -0.2268
    144  CD2       37.9970  -38.7090  -16.0360 C.ar  256  HIS256      0.1154
    145  CE1       36.8640  -37.3660  -14.7210 C.ar  256  HIS256      0.1986
    146  NE2       38.0680  -37.8520  -14.9630 N.ar  256  HIS256     -0.2212
    147  N         38.7110  -40.4000   -9.2180 N.3   260  SER260     -0.1217
    148  CA        38.7660  -38.9870   -9.5720 C.3   260  SER260      0.1889
    149  C         37.5220  -38.5430  -10.3500 C.2   260  SER260      0.2288
    150  O         37.2210  -37.3540  -10.4090 O.2   260  SER260     -0.2866
    151  CB        40.0200  -38.6860  -10.3890 C.3   260  SER260      0.2089
    152  OG        39.8480  -39.1150  -11.7210 O.3   260  SER260     -0.2183
@<TRIPOS>BOND
     1    17    18    1
     2    24    22   ar
     3    22    23   ar
     4    22    21    1
     5    18    21    1
     6    18    19    1
     7   137   138    1
     8    19    20    2
     9   138   141    1
    10   138   139    1
    11   141   142    1
    12    25    26    1
    13   140   139    2
    14   142   144   ar
    15   142   143   ar
    16    33    34   ar
    17    33    31   ar
    18    34    32   ar
    19   144   146   ar
    20    26    27    1
    21    26    29    1
    22    31    30   ar
    23   143   145   ar
    24    32    30   ar
    25    16    14   ar
    26    12    11    2
    27    27    28    2
    28    30    29    1
    29    15    14   ar
    30    35    36    1
    31    14    13    1
    32   146   145   ar
    33    11    10    1
    34    13    10    1
    35    37    36    1
    36    37    38    2
    37    36    39    1
    38    10     9    1
    39    39    40    1
    40     9     3   am
    41     7     6   ar
    42   152   151    1
    43     6     5    1
    44     6     8   ar
    45     3     4    2
    46     3     2    1
    47     5     2    1
    48    43    44    2
    49    43    42    1
    50     2     1    1
    51   150   149    2
    52    45    42    1
    53    45    46    1
    54   151   148    1
    55   149   148    1
    56    42    41    1
    57    47    46    1
    58   148   147    1
    59    46    48    1
    60   124   122   am
    61    70    69    1
    62   123   122    2
    63   122   121    1
    64    69    66    1
    65   121   118    1
    66    68    67    2
    67   120   119    2
    68    55    53    1
    69    66    67    1
    70    66    65    1
    71    67    71   am
    72   118   119    1
    73   118   117    1
    74    77    76   ar
    75    77    79   ar
    76    75    72    1
    77    75    76    1
    78    49    50    1
    79   103   102   ar
    80    71    72    1
    81    72    73    1
    82    76    78   ar
    83    79    80   ar
    84    53    50    1
    85    53    54    1
    86   102   101    1
    87   102   104   ar
    88    50    51    1
    89   101   100    1
    90    78    80   ar
    91    78    81   ar
    92    80    82   ar
    93    73    85   am
    94    73    74    2
    95    85    86    1
    96    51    52    2
    97   100    97    1
    98    88    87    2
    99    97    98    1
   100    97    96    1
   101    81    83   ar
   102    82    84   ar
   103    98    99    2
   104    86    87    1
   105    87    89   am
   106    96    91   am
   107    92    91    2
   108    83    84   ar
   109    91    90    1
   110    56    57    1
   111    57    58    1
   112    57    60    1
   113    89    90    1
   114    89    95    1
   115    61    60    1
   116    61    62    1
   117    90    93    1
   118    64    62   ar
   119    59    58    2
   120    62    63   ar
   121    95    94    1
   122    93    94    1
   123   134   132   ar
   124   134   135   ar
   125   136   135    1
   126   132   130   ar
   127   135   133   ar
   128   130   131   ar
   129   130   129    1
   130   133   131   ar
   131   129   126    1
   132   112   110   ar
   133   110   109    1
   134   110   111   ar
   135   126   127    1
   136   126   125    1
   137   127   128    2
   138   109   106    1
   139   108   107    2
   140   107   106    1
   141   107   113   am
   142   106   105    1
   143   116   115    2
   144   115   114    1
   145   114   113    1
