@<TRIPOS>MOLECULE
tmp/5mimA00.pdb
 93 87 0 0 0
SMALL
GASTEIGER

@<TRIPOS>ATOM
      1  N         44.1560  -29.4150  -12.6700 N.3    46  ASP46      -0.1239
      2  CA        45.2260  -29.0060  -13.5860 C.3    46  ASP46       0.1674
      3  C         44.7750  -27.9180  -14.5590 C.2    46  ASP46       0.2266
      4  O         45.4540  -27.6410  -15.5420 O.2    46  ASP46      -0.2867
      5  CB        45.7840  -30.2180  -14.3620 C.3    46  ASP46       0.1410
      6  CG        44.7100  -30.9870  -15.1430 C.2    46  ASP46       0.3668
      7  OD1       43.5880  -30.4750  -15.3300 O.co2  46  ASP46      -0.2456
      8  OD2       45.0000  -32.1220  -15.5800 O.co2  46  ASP46      -0.2456
      9  N         50.7190  -20.2870  -12.1650 N.3    69  ASP69      -0.1239
     10  CA        51.3240  -19.1450  -12.8560 C.3    69  ASP69       0.1674
     11  C         50.9500  -17.8090  -12.2180 C.2    69  ASP69       0.2266
     12  O         51.3840  -16.7570  -12.6830 O.2    69  ASP69      -0.2867
     13  CB        50.9140  -19.1100  -14.3370 C.3    69  ASP69       0.1410
     14  CG        51.6990  -20.0850  -15.1910 C.2    69  ASP69       0.3668
     15  OD1       52.6440  -20.7160  -14.6740 O.co2  69  ASP69      -0.2456
     16  OD2       51.3720  -20.2110  -16.3920 O.co2  69  ASP69      -0.2456
     17  N         47.4550  -25.8060  -19.7480 N.3    77  ARG77      -0.1245
     18  CA        48.6310  -25.8010  -20.6020 C.3    77  ARG77       0.1563
     19  C         48.5250  -26.9430  -21.6180 C.2    77  ARG77       0.2260
     20  O         48.4620  -28.1210  -21.2520 O.2    77  ARG77      -0.2867
     21  CB        49.8980  -25.9280  -19.7510 C.3    77  ARG77       0.0307
     22  CG        51.2250  -25.9170  -20.5050 C.3    77  ARG77       0.0489
     23  CD        52.3830  -25.9410  -19.5030 C.3    77  ARG77       0.2205
     24  NE        52.3120  -27.1020  -18.6140 N.pl3  77  ARG77      -0.0865
     25  CZ        52.9090  -28.2640  -18.8640 C.cat  77  ARG77       0.5346
     26  NH1       52.7970  -29.2730  -18.0160 N.pl3  77  ARG77       0.1354
     27  NH2       53.6210  -28.4180  -19.9730 N.pl3  77  ARG77       0.1354
     28  N         48.3110  -33.8420  -21.1790 N.3    83  ASP83      -0.1225
     29  CA        48.4640  -34.0970  -19.7500 C.3    83  ASP83       0.1805
     30  C         47.4350  -33.3700  -18.8950 C.2    83  ASP83       0.2597
     31  O         46.9520  -33.9020  -17.8880 O.2    83  ASP83      -0.2718
     32  CB        49.8540  -33.6780  -19.2750 C.3    83  ASP83       0.1424
     33  CG        50.9610  -34.4550  -19.9460 C.2    83  ASP83       0.3668
     34  OD1       51.2530  -35.5830  -19.4950 O.co2  83  ASP83      -0.2456
     35  OD2       51.5410  -33.9290  -20.9210 O.co2  83  ASP83      -0.2456
     36  N         47.1250  -32.1400  -19.2840 N.am   84  ASN84      -0.1974
     37  CA        46.3350  -31.2660  -18.4260 C.3    84  ASN84       0.1688
     38  C         44.8670  -31.2580  -18.7830 C.2    84  ASN84       0.2292
     39  O         44.2420  -30.2040  -18.8670 O.2    84  ASN84      -0.2864
     40  CB        46.9150  -29.8570  -18.4740 C.3    84  ASN84       0.1181
     41  CG        48.3260  -29.8150  -17.9410 C.2    84  ASN84       0.2629
     42  OD1       48.5700  -30.2060  -16.7980 O.2    84  ASN84      -0.2716
     43  ND2       49.2750  -29.3930  -18.7790 N.am   84  ASN84      -0.0877
     44  N         42.5330  -33.1470  -17.0680 N.3    86  HIS86      -0.1241
     45  CA        41.7220  -33.7280  -15.9920 C.3    86  HIS86       0.1621
     46  C         40.6930  -32.7700  -15.4090 C.2    86  HIS86       0.2264
     47  O         39.5470  -33.1590  -15.1630 O.2    86  HIS86      -0.2867
     48  CB        42.6340  -34.2660  -14.8920 C.3    86  HIS86       0.0745
     49  CG        43.5630  -35.3340  -15.3770 C.ar   86  HIS86       0.0817
     50  ND1       44.8550  -35.0700  -15.7770 N.ar   86  HIS86      -0.2268
     51  CD2       43.3660  -36.6590  -15.5820 C.ar   86  HIS86       0.1154
     52  CE1       45.4280  -36.1940  -16.1780 C.ar   86  HIS86       0.1986
     53  NE2       44.5450  -37.1710  -16.0700 N.ar   86  HIS86      -0.2212
     54  N         43.7050  -23.7930  -11.4170 N.3   117  ARG117     -0.1245
     55  CA        44.8640  -24.4550  -11.9840 C.3   117  ARG117      0.1563
     56  C         45.9560  -24.4610  -10.9260 C.2   117  ARG117      0.2260
     57  O         46.5640  -23.4260  -10.6570 O.2   117  ARG117     -0.2867
     58  CB        45.3140  -23.7440  -13.2690 C.3   117  ARG117      0.0307
     59  CG        46.5830  -24.3010  -13.8930 C.3   117  ARG117      0.0489
     60  CD        46.8180  -23.7170  -15.3030 C.3   117  ARG117      0.2205
     61  NE        48.0470  -24.2660  -15.8620 N.pl3 117  ARG117     -0.0865
     62  CZ        49.2250  -23.6510  -15.8400 C.cat 117  ARG117      0.5346
     63  NH1       50.2900  -24.2530  -16.3450 N.pl3 117  ARG117      0.1354
     64  NH2       49.3410  -22.4300  -15.3340 N.pl3 117  ARG117      0.1354
     65  N         47.6600  -27.9530  -10.0250 N.3   119  LEU119     -0.1231
     66  CA        48.4520  -29.1830  -10.0830 C.3   119  LEU119      0.1693
     67  C         49.5890  -29.1360  -11.1130 C.2   119  LEU119      0.2592
     68  O         50.4720  -30.0000  -11.1060 O.2   119  LEU119     -0.2718
     69  CB        47.5500  -30.3870  -10.3920 C.3   119  LEU119      0.0284
     70  CG        46.5130  -30.7320   -9.3120 C.3   119  LEU119      0.0019
     71  CD1       45.7500  -31.9980   -9.6870 C.3   119  LEU119      0.0001
     72  CD2       47.1850  -30.8850   -7.9510 C.3   119  LEU119      0.0001
     73  N         49.5630  -28.1480  -12.0010 N.am  120  ASP120     -0.1960
     74  CA        50.5050  -28.1170  -13.1340 C.3   120  ASP120      0.1840
     75  C         51.7250  -27.2810  -12.7810 C.2   120  ASP120      0.2623
     76  O         51.9260  -26.2000  -13.3180 O.2   120  ASP120     -0.2715
     77  CB        49.8170  -27.5740  -14.3870 C.3   120  ASP120      0.1450
     78  CG        50.6300  -27.8140  -15.6690 C.2   120  ASP120      0.3671
     79  OD1       51.5230  -28.6890  -15.6790 O.co2 120  ASP120     -0.2456
     80  OD2       50.3500  -27.1310  -16.6730 O.co2 120  ASP120     -0.2456
     81  N         52.5340  -27.7990  -11.8650 N.am  121  GLY121     -0.1940
     82  CA        53.6410  -27.0520  -11.2990 C.3   121  GLY121      0.2014
     83  C         53.9910  -27.6270   -9.9440 C.2   121  GLY121      0.2638
     84  O         53.4570  -28.6570   -9.5480 O.2   121  GLY121     -0.2714
     85  N         54.8930  -26.9700   -9.2280 N.am  122  GLU122     -0.1977
     86  CA        55.2840  -27.4420   -7.9130 C.3   122  GLU122      0.1602
     87  C         54.1460  -27.1850   -6.9290 C.2   122  GLU122      0.2287
     88  O         53.7160  -26.0450   -6.7590 O.2   122  GLU122     -0.2864
     89  CB        56.5650  -26.7530   -7.4480 C.3   122  GLU122      0.0415
     90  CG        57.0820  -27.2750   -6.1220 C.3   122  GLU122      0.1163
     91  CD        58.2050  -26.4290   -5.5520 C.2   122  GLU122      0.3649
     92  OE1       58.6330  -25.4660   -6.2270 O.co2 122  GLU122     -0.2457
     93  OE2       58.6630  -26.7290   -4.4290 O.co2 122  GLU122     -0.2457
@<TRIPOS>BOND
     1    19    20    2
     2    19    18    1
     3    28    29    1
     4    35    33   ar
     5    18    21    1
     6    18    17    1
     7    22    21    1
     8    22    23    1
     9    27    25    1
    10    33    34   ar
    11    33    32    1
    12    29    32    1
    13    29    30    1
    14    23    24    1
    15    36    30   am
    16    36    37    1
    17    30    31    2
    18    39    38    2
    19    25    24    2
    20    25    26    1
    21    38    37    1
    22    43    41   am
    23    40    37    1
    24    40    41    1
    25    41    42    2
    26    44    45    1
    27    80    78   ar
    28    16    14   ar
    29    63    62    1
    30    52    53   ar
    31    52    50   ar
    32    53    51   ar
    33    45    46    1
    34    45    48    1
    35    61    62    2
    36    61    60    1
    37    62    64    1
    38    50    49   ar
    39    79    78   ar
    40    78    77    1
    41    51    49   ar
    42     8     6   ar
    43     4     3    2
    44    46    47    2
    45    49    48    1
    46     7     6   ar
    47    60    59    1
    48    14    15   ar
    49    14    13    1
    50     6     5    1
    51     3     2    1
    52    77    74    1
    53     5     2    1
    54    13    10    1
    55    59    58    1
    56     2     1    1
    57    76    75    2
    58    58    55    1
    59    74    75    1
    60    74    73    1
    61    10    11    1
    62    10     9    1
    63    75    81   am
    64    12    11    2
    65    73    67   am
    66    55    54    1
    67    55    56    1
    68    81    82    1
    69    82    83    1
    70    67    68    2
    71    67    66    1
    72    56    57    2
    73    69    66    1
    74    69    70    1
    75    66    65    1
    76    83    84    2
    77    83    85   am
    78    71    70    1
    79    70    72    1
    80    85    86    1
    81    86    89    1
    82    86    87    1
    83    89    90    1
    84    87    88    2
    85    92    91   ar
    86    90    91    1
    87    91    93   ar
