@<TRIPOS>MOLECULE
tmp/5mioC00.pdb
 160 154 0 0 0
SMALL
GASTEIGER

@<TRIPOS>ATOM
      1  N        -33.4370  -41.7140   62.0920 N.3    38  ARG38      -0.1231
      2  CA       -34.8260  -41.6660   62.5050 C.3    38  ARG38       0.1694
      3  C        -35.6010  -42.8970   62.0240 C.2    38  ARG38       0.2592
      4  O        -35.7870  -43.0760   60.8160 O.2    38  ARG38      -0.2718
      5  CB       -35.4940  -40.3970   61.9800 C.3    38  ARG38       0.0321
      6  CG       -36.8350  -40.1980   62.6230 C.3    38  ARG38       0.0489
      7  CD       -37.6240  -39.1080   62.0050 C.3    38  ARG38       0.2205
      8  NE       -38.8260  -38.9110   62.7990 N.pl3  38  ARG38      -0.0865
      9  CZ       -39.6660  -37.8970   62.6570 C.cat  38  ARG38       0.5346
     10  NH1      -39.4330  -36.9580   61.7560 N.pl3  38  ARG38       0.1354
     11  NH2      -40.7320  -37.7970   63.4330 N.pl3  38  ARG38       0.1354
     12  N        -36.0730  -43.7260   62.9710 N.am   39  LYS39      -0.1966
     13  CA       -36.8940  -44.8900   62.6690 C.3    39  LYS39       0.1728
     14  C        -38.3500  -44.4590   62.6610 C.2    39  LYS39       0.2616
     15  O        -38.8300  -43.9070   63.6410 O.2    39  LYS39      -0.2715
     16  CB       -36.6850  -45.9740   63.7320 C.3    39  LYS39       0.0311
     17  CG       -37.6430  -47.1650   63.6640 C.3    39  LYS39       0.0038
     18  CD       -37.6550  -47.9250   64.9790 C.3    39  LYS39       0.0206
     19  CE       -38.4700  -49.1630   64.8760 C.3    39  LYS39       0.1093
     20  NZ       -38.5810  -49.8330   66.1860 N.3    39  LYS39      -0.1314
     21  N        -39.0560  -44.7100   61.5850 N.am   40  ARG40      -0.1964
     22  CA       -40.4890  -44.4360   61.5500 C.3    40  ARG40       0.1714
     23  C        -41.2300  -45.7120   62.0040 C.2    40  ARG40       0.2458
     24  O        -40.6480  -46.7960   61.9470 O.2    40  ARG40      -0.2730
     25  CB       -40.9370  -44.0310   60.1290 C.3    40  ARG40       0.0347
     26  CG       -40.9060  -45.1580   59.0830 C.3    40  ARG40       0.0492
     27  CD       -42.0060  -44.9480   58.0720 C.3    40  ARG40       0.2205
     28  NE       -41.8540  -45.8760   56.9570 N.pl3  40  ARG40      -0.0865
     29  CZ       -42.2670  -47.1370   56.9530 C.cat  40  ARG40       0.5346
     30  NH1      -42.8710  -47.6470   58.0120 N.pl3  40  ARG40       0.1354
     31  NH2      -42.0710  -47.9000   55.8890 N.pl3  40  ARG40       0.1354
     32  N        -42.5140  -45.6270   62.4030 N.am   41  PRO41      -0.2727
     33  CA       -43.2390  -46.8480   62.7690 C.3    41  PRO41       0.1402
     34  C        -43.6860  -47.6700   61.5780 C.2    41  PRO41       0.2269
     35  O        -43.8380  -47.1270   60.4910 O.2    41  PRO41      -0.2865
     36  CB       -44.4750  -46.3170   63.4890 C.3    41  PRO41       0.0296
     37  CG       -44.6790  -44.9570   62.9800 C.3    41  PRO41       0.0237
     38  CD       -43.3440  -44.4230   62.5980 C.3    41  PRO41       0.0939
     39  N        -46.2170  -49.0910   59.1330 N.3    43  ASN43      -0.1240
     40  CA       -47.5140  -48.5910   58.6860 C.3    43  ASN43       0.1653
     41  C        -48.5440  -49.7490   58.6650 C.2    43  ASN43       0.2266
     42  O        -48.1940  -50.9180   58.9130 O.2    43  ASN43      -0.2867
     43  CB       -47.4140  -47.8790   57.3490 C.3    43  ASN43       0.1155
     44  CG       -46.9530  -48.7710   56.2440 C.2    43  ASN43       0.2627
     45  OD1      -45.7790  -48.8260   55.9190 O.2    43  ASN43      -0.2716
     46  ND2      -47.8820  -49.4220   55.6010 N.am   43  ASN43      -0.0877
     47  N        -39.6650  -44.4770   66.8700 N.3    91  GLU91      -0.1245
     48  CA       -40.9770  -44.2690   66.2750 C.3    91  GLU91       0.1567
     49  C        -41.9010  -43.3870   67.1000 C.2    91  GLU91       0.2260
     50  O        -42.9010  -42.9200   66.5660 O.2    91  GLU91      -0.2867
     51  CB       -41.6450  -45.6020   65.9220 C.3    91  GLU91       0.0388
     52  CG       -41.8750  -46.5350   67.0890 C.3    91  GLU91       0.1160
     53  CD       -40.8010  -47.5860   67.2320 C.2    91  GLU91       0.3649
     54  OE1      -39.7150  -47.2860   67.7800 O.co2  91  GLU91      -0.2457
     55  OE2      -41.0640  -48.7290   66.8050 O.co2  91  GLU91      -0.2457
     56  N        -40.7770  -40.4980   68.4810 N.3    93  ALA93      -0.1245
     57  CA       -40.2310  -39.1520   68.3150 C.3    93  ALA93       0.1562
     58  C        -41.0220  -38.3390   67.3230 C.2    93  ALA93       0.2260
     59  O        -41.2150  -38.7720   66.1930 O.2    93  ALA93      -0.2867
     60  CB       -38.7570  -39.2020   67.9140 C.3    93  ALA93       0.0290
     61  N        -37.3000  -44.6020   49.7760 N.3   124  THR124     -0.1203
     62  CA       -38.6640  -44.1790   49.4940 C.3   124  THR124      0.1994
     63  C        -39.5350  -44.7080   50.6220 C.2   124  THR124      0.2618
     64  O        -39.4500  -45.9010   50.9390 O.2   124  THR124     -0.2717
     65  CB       -39.1750  -44.9650   48.2650 C.3   124  THR124      0.1784
     66  OG1      -38.1740  -45.0240   47.2590 O.3   124  THR124     -0.2211
     67  CG2      -40.4580  -44.4250   47.6980 C.3   124  THR124      0.0376
     68  N        -40.3520  -43.8560   51.2230 N.am  125  GLY125     -0.1942
     69  CA       -41.2690  -44.2900   52.2770 C.3   125  GLY125      0.2014
     70  C        -40.7350  -44.2460   53.6850 C.2   125  GLY125      0.2640
     71  O        -41.4740  -44.5720   54.6010 O.2   125  GLY125     -0.2714
     72  N        -39.4750  -43.8060   53.8630 N.am  126  SER126     -0.1935
     73  CA       -38.7120  -43.7630   55.1190 C.3   126  SER126      0.2055
     74  C        -39.1490  -42.6890   56.1160 C.2   126  SER126      0.2644
     75  O        -39.0490  -42.8850   57.3450 O.2   126  SER126     -0.2714
     76  CB       -37.2390  -43.5270   54.8150 C.3   126  SER126      0.2130
     77  OG       -37.1030  -42.3610   54.0190 O.3   126  SER126     -0.2179
     78  N        -39.4860  -41.5170   55.5750 N.am  127  GLY127     -0.1939
     79  CA       -39.8800  -40.3700   56.3850 C.3   127  GLY127      0.2014
     80  C        -39.1710  -39.0550   56.1330 C.2   127  GLY127      0.2639
     81  O        -39.2880  -38.1410   56.9540 O.2   127  GLY127     -0.2714
     82  N        -38.4740  -38.9240   54.9900 N.am  128  LYS128     -0.1963
     83  CA       -37.7710  -37.6790   54.6600 C.3   128  LYS128      0.1728
     84  C        -38.7180  -36.4840   54.5370 C.2   128  LYS128      0.2617
     85  O        -38.4570  -35.4330   55.1040 O.2   128  LYS128     -0.2715
     86  CB       -36.9570  -37.8070   53.3580 C.3   128  LYS128      0.0311
     87  CG       -35.9720  -38.9570   53.3040 C.3   128  LYS128      0.0038
     88  CD       -35.3120  -39.0730   51.9540 C.3   128  LYS128      0.0206
     89  CE       -36.2190  -39.6030   50.8430 C.3   128  LYS128      0.1093
     90  NZ       -36.6850  -41.0110   51.0460 N.3   128  LYS128     -0.1314
     91  N        -39.7840  -36.6170   53.7490 N.am  129  THR129     -0.1937
     92  CA       -40.7230  -35.5090   53.5340 C.3   129  THR129      0.2028
     93  C        -41.5150  -35.2200   54.7850 C.2   129  THR129      0.2642
     94  O        -41.7590  -34.0560   55.0900 O.2   129  THR129     -0.2714
     95  CB       -41.6430  -35.7870   52.3540 C.3   129  THR129      0.1808
     96  OG1      -40.8530  -36.1350   51.2140 O.3   129  THR129     -0.2208
     97  CG2      -42.5760  -34.6000   52.0470 C.3   129  THR129      0.0379
     98  N        -41.9050  -36.2800   55.5130 N.am  130  HIS130     -0.1959
     99  CA       -42.6240  -36.1660   56.7730 C.3   130  HIS130      0.1787
    100  C        -41.8010  -35.2900   57.7430 C.2   130  HIS130      0.2620
    101  O        -42.3480  -34.3950   58.3960 O.2   130  HIS130     -0.2715
    102  CB       -42.8320  -37.5560   57.3810 C.3   130  HIS130      0.0785
    103  CG       -43.7370  -37.5640   58.5650 C.ar  130  HIS130      0.0821
    104  ND1      -45.0740  -37.9060   58.4230 N.ar  130  HIS130     -0.2267
    105  CD2      -43.4820  -37.3680   59.8770 C.ar  130  HIS130      0.1154
    106  CE1      -45.5990  -37.8500   59.6340 C.ar  130  HIS130      0.1986
    107  NE2      -44.6860  -37.5150   60.5410 N.ar  130  HIS130     -0.2212
    108  N        -40.4780  -35.5300   57.7960 N.am  131  THR131     -0.1951
    109  CA       -39.5540  -34.7890   58.6470 C.3   131  THR131      0.1897
    110  C        -39.4020  -33.3440   58.1650 C.2   131  THR131      0.2313
    111  O        -39.5360  -32.4340   58.9650 O.2   131  THR131     -0.2863
    112  CB       -38.1930  -35.5230   58.7270 C.3   131  THR131      0.1794
    113  OG1      -38.3780  -36.8630   59.1950 O.3   131  THR131     -0.2208
    114  CG2      -37.2050  -34.8330   59.6160 C.3   131  THR131      0.0378
    115  N        -46.7510  -33.0230   58.0340 N.3   135  ASP135     -0.1239
    116  CA       -48.0820  -33.4820   57.6480 C.3   135  ASP135      0.1674
    117  C        -49.1280  -32.4790   58.1380 C.2   135  ASP135      0.2266
    118  O        -48.8150  -31.2990   58.3420 O.2   135  ASP135     -0.2867
    119  CB       -48.3670  -34.8970   58.1660 C.3   135  ASP135      0.1410
    120  CG       -48.2460  -35.9950   57.1240 C.2   135  ASP135      0.3668
    121  OD1      -47.7410  -35.7100   56.0080 O.co2 135  ASP135     -0.2456
    122  OD2      -48.6390  -37.1470   57.4290 O.co2 135  ASP135     -0.2456
    123  N        -44.7650  -45.7240   48.2860 N.3   230  ASN230     -0.1225
    124  CA       -45.4390  -44.5090   48.7330 C.3   230  ASN230      0.1785
    125  C        -46.6560  -44.1280   47.9550 C.2   230  ASN230      0.2598
    126  O        -46.6540  -44.1820   46.7410 O.2   230  ASN230     -0.2718
    127  CB       -44.4720  -43.3410   48.6920 C.3   230  ASN230      0.1169
    128  CG       -43.6550  -43.2430   49.9220 C.2   230  ASN230      0.2627
    129  OD1      -44.1590  -43.4550   51.0250 O.2   230  ASN230     -0.2716
    130  ND2      -42.3900  -42.9240   49.7610 N.am  230  ASN230     -0.0877
    131  N        -47.6850  -43.6630   48.6570 N.am  231  SER231     -0.1938
    132  CA       -48.8960  -43.1710   48.0130 C.3   231  SER231      0.2055
    133  C        -48.5070  -41.8960   47.2490 C.2   231  SER231      0.2643
    134  O        -48.9900  -41.6640   46.1380 O.2   231  SER231     -0.2714
    135  CB       -49.9710  -42.8570   49.0530 C.3   231  SER231      0.2130
    136  OG       -50.8470  -43.9520   49.2750 O.3   231  SER231     -0.2179
    137  N        -47.5940  -41.0990   47.8380 N.am  232  ASN232     -0.1957
    138  CA       -47.1220  -39.8380   47.2830 C.3   232  ASN232      0.1819
    139  C        -45.6040  -39.7990   47.3610 C.2   232  ASN232      0.2622
    140  O        -45.0640  -39.0270   48.1580 O.2   232  ASN232     -0.2715
    141  CB       -47.7160  -38.6990   48.1140 C.3   232  ASN232      0.1195
    142  CG       -47.7310  -37.3260   47.4860 C.2   232  ASN232      0.2630
    143  OD1      -48.2280  -37.1410   46.3720 O.2   232  ASN232     -0.2716
    144  ND2      -47.3940  -36.3040   48.2710 N.am  232  ASN232     -0.0877
    145  N        -44.9040  -40.6230   46.5480 N.am  233  SER233     -0.1936
    146  CA       -43.4350  -40.6510   46.5800 C.3   233  SER233      0.2055
    147  C        -42.8300  -39.3320   46.1640 C.2   233  SER233      0.2643
    148  O        -43.3370  -38.7050   45.2370 O.2   233  SER233     -0.2714
    149  CB       -42.8560  -41.7640   45.7130 C.3   233  SER233      0.2130
    150  OG       -41.4340  -41.7670   45.7400 O.3   233  SER233     -0.2179
    151  N        -41.7450  -38.9250   46.8280 N.am  234  SER234     -0.1949
    152  CA       -41.0160  -37.7130   46.5320 C.3   234  SER234      0.1924
    153  C        -40.1880  -38.0160   45.2930 C.2   234  SER234      0.2314
    154  O        -39.2960  -38.8560   45.3490 O.2   234  SER234     -0.2863
    155  CB       -40.1660  -37.3300   47.7310 C.3   234  SER234      0.2116
    156  OG       -40.9870  -37.3920   48.8910 O.3   234  SER234     -0.2180
    157  N        -36.1390  -40.1790   47.4730 N.3   261  GLY261     -0.1225
    158  CA       -36.0580  -41.5250   48.0220 C.3   261  GLY261      0.1811
    159  C        -35.3580  -42.4260   47.0360 C.2   261  GLY261      0.2280
    160  O        -35.6000  -42.3220   45.8310 O.2   261  GLY261     -0.2866
@<TRIPOS>BOND
     1   148   147    2
     2   153   154    2
     3   153   152    1
     4   149   150    1
     5   149   146    1
     6   160   159    2
     7   134   133    2
     8   147   146    1
     9   147   151   am
    10   143   142    2
    11   152   151    1
    12   152   155    1
    13   145   146    1
    14   145   139   am
    15   126   125    2
    16   159   158    1
    17   133   137   am
    18   133   132    1
    19    66    65    1
    20   138   139    1
    21   138   137    1
    22   138   141    1
    23   139   140    2
    24   157   158    1
    25   142   141    1
    26   142   144   am
    27    67    65    1
    28   155   156    1
    29   125   131   am
    30   125   124    1
    31   132   131    1
    32   132   135    1
    33    65    62    1
    34   123   124    1
    35   127   124    1
    36   127   128    1
    37   135   136    1
    38    62    61    1
    39    62    63    1
    40   130   128   am
    41   128   129    2
    42    63    64    2
    43    63    68   am
    44    89    90    1
    45    89    88    1
    46    96    95    1
    47    68    69    1
    48    88    87    1
    49    97    95    1
    50    69    70    1
    51    95    92    1
    52    87    86    1
    53    86    83    1
    54    92    91    1
    55    92    93    1
    56    70    72   am
    57    70    71    2
    58    91    84   am
    59    72    73    1
    60    77    76    1
    61    84    83    1
    62    84    85    2
    63    83    82    1
    64    93    94    2
    65    93    98   am
    66    76    73    1
    67    82    80   am
    68    73    74    1
    69    98    99    1
    70    78    74   am
    71    78    79    1
    72    46    44   am
    73    31    29    1
    74    45    44    2
    75   121   120   ar
    76    74    75    2
    77    80    79    1
    78    80    81    2
    79    44    43    1
    80    99   102    1
    81    99   100    1
    82    29    28    2
    83    29    30    1
    84    28    27    1
    85   120   122   ar
    86   120   119    1
    87    43    40    1
    88   102   103    1
    89   116   115    1
    90   116   117    1
    91   116   119    1
    92   100   108   am
    93   100   101    2
    94   108   109    1
    95    27    26    1
    96   117   118    2
    97   110   109    1
    98   110   111    2
    99   104   103   ar
   100   104   106   ar
   101   103   105   ar
   102   109   112    1
   103    41    40    1
   104    41    42    2
   105    40    39    1
   106   112   113    1
   107   112   114    1
   108    26    25    1
   109   106   107   ar
   110   105   107   ar
   111    25    22    1
   112    35    34    2
   113     4     3    2
   114    22    21    1
   115    22    23    1
   116    34    33    1
   117    21    14   am
   118    10     9    1
   119    24    23    2
   120     5     2    1
   121     5     6    1
   122    23    32   am
   123     7     6    1
   124     7     8    1
   125     3     2    1
   126     3    12   am
   127     1     2    1
   128    32    38    1
   129    32    33    1
   130    38    37    1
   131     9     8    2
   132     9    11    1
   133    14    13    1
   134    14    15    2
   135    13    12    1
   136    13    16    1
   137    33    36    1
   138    37    36    1
   139    17    16    1
   140    17    18    1
   141    19    18    1
   142    19    20    1
   143    51    48    1
   144    51    52    1
   145    59    58    2
   146    48    47    1
   147    48    49    1
   148    50    49    2
   149    55    53   ar
   150    52    53    1
   151    53    54   ar
   152    58    57    1
   153    60    57    1
   154    57    56    1
