@<TRIPOS>MOLECULE
tmp/5mirA02.pdb
 72 66 0 0 0
SMALL
GASTEIGER

@<TRIPOS>ATOM
      1  N        -30.4780   33.8430   -0.7310 N.3     9  SER9       -0.1217
      2  CA       -30.9970   34.8140    0.1870 C.3     9  SER9        0.1889
      3  C        -32.2700   34.3250    0.9020 C.2     9  SER9        0.2288
      4  O        -33.2450   35.0630    1.0700 O.2     9  SER9       -0.2866
      5  CB       -31.2310   36.1380   -0.5060 C.3     9  SER9        0.2089
      6  OG       -31.7060   37.0900    0.4030 O.3     9  SER9       -0.2183
      7  N        -24.4330   39.3430   -1.9820 N.3    29  LEU29      -0.1245
      8  CA       -25.4890   38.3440   -1.7800 C.3    29  LEU29       0.1561
      9  C        -26.2620   38.1310   -3.1150 C.2    29  LEU29       0.2260
     10  O        -27.0110   38.9670   -3.5240 O.2    29  LEU29      -0.2867
     11  CB       -26.4300   38.8190   -0.7360 C.3    29  LEU29       0.0270
     12  CG       -27.7010   38.0180   -0.4100 C.3    29  LEU29       0.0019
     13  CD1      -27.3430   36.6490    0.0510 C.3    29  LEU29       0.0001
     14  CD2      -28.5160   38.7700    0.6140 C.3    29  LEU29       0.0001
     15  N        -28.9900   36.0210   -5.2760 N.3    31  GLU31      -0.1245
     16  CA       -30.2180   35.2590   -5.1880 C.3    31  GLU31       0.1567
     17  C        -30.8520   35.2150   -6.6090 C.2    31  GLU31       0.2260
     18  O        -31.0400   36.2730   -7.2570 O.2    31  GLU31      -0.2867
     19  CB       -31.1570   36.0060   -4.2440 C.3    31  GLU31       0.0388
     20  CG       -32.6280   35.5760   -4.2340 C.3    31  GLU31       0.1160
     21  CD       -32.7940   34.1210   -3.9160 C.2    31  GLU31       0.3649
     22  OE1      -32.2120   33.7230   -2.8600 O.co2  31  GLU31      -0.2457
     23  OE2      -33.3860   33.3410   -4.7540 O.co2  31  GLU31      -0.2457
     24  N        -34.0740   34.4130   -7.2060 N.3    33  GLY33      -0.1225
     25  CA       -35.4590   34.8680   -7.1610 C.3    33  GLY33       0.1811
     26  C        -35.7640   35.9050   -6.0930 C.2    33  GLY33       0.2280
     27  O        -35.1320   36.9590   -6.0080 O.2    33  GLY33      -0.2866
     28  N        -35.9250   37.2200   -2.2210 N.3    35  PRO35      -0.2116
     29  CA       -35.4030   36.9960   -0.8650 C.3    35  PRO35       0.1372
     30  C        -36.3990   36.2850    0.0360 C.2    35  PRO35       0.2244
     31  O        -37.5900   36.5980    0.0290 O.2    35  PRO35      -0.2868
     32  CB       -35.1810   38.3970   -0.3410 C.3    35  PRO35       0.0268
     33  CG       -34.8780   39.1860   -1.6040 C.3    35  PRO35       0.0207
     34  CD       -35.8340   38.6340   -2.6110 C.3    35  PRO35       0.0892
     35  N        -34.9700   40.6750    5.0740 N.3    64  ALA64      -0.1245
     36  CA       -34.2810   41.3130    3.9310 C.3    64  ALA64       0.1562
     37  C        -34.0360   42.7940    4.1620 C.2    64  ALA64       0.2260
     38  O        -33.0380   43.2920    3.7120 O.2    64  ALA64      -0.2867
     39  CB       -35.0710   41.1060    2.6610 C.3    64  ALA64       0.0290
     40  N        -30.5780   44.7300    4.9970 N.3    67  LEU67      -0.1245
     41  CA       -29.3560   44.3530    4.3160 C.3    67  LEU67       0.1561
     42  C        -28.7190   45.5070    3.4570 C.2    67  LEU67       0.2260
     43  O        -27.5350   45.7240    3.4990 O.2    67  LEU67      -0.2867
     44  CB       -29.5880   43.1050    3.4750 C.3    67  LEU67       0.0270
     45  CG       -30.0170   41.8580    4.2910 C.3    67  LEU67       0.0019
     46  CD1      -30.1530   40.7130    3.3550 C.3    67  LEU67       0.0001
     47  CD2      -29.0170   41.5100    5.3870 C.3    67  LEU67       0.0001
     48  N        -26.7820   43.3840   -2.8340 N.3    74  ASN74      -0.1225
     49  CA       -27.8090   42.4520   -3.2910 C.3    74  ASN74       0.1785
     50  C        -27.8790   42.4010   -4.8020 C.2    74  ASN74       0.2597
     51  O        -28.0840   43.4180   -5.4290 O.2    74  ASN74      -0.2718
     52  CB       -29.1440   42.9740   -2.8140 C.3    74  ASN74       0.1169
     53  CG       -29.2590   42.8980   -1.3220 C.2    74  ASN74       0.2627
     54  OD1      -28.9660   41.8510   -0.7630 O.2    74  ASN74      -0.2716
     55  ND2      -29.5810   44.0240   -0.6590 N.am   74  ASN74      -0.0877
     56  N        -27.7490   41.2290   -5.3900 N.am   75  ALA75      -0.1966
     57  CA       -27.8370   41.1620   -6.8350 C.3    75  ALA75       0.1728
     58  C        -28.4990   39.8950   -7.2980 C.2    75  ALA75       0.2616
     59  O        -28.2320   38.8080   -6.7550 O.2    75  ALA75      -0.2715
     60  CB       -26.4450   41.2330   -7.4300 C.3    75  ALA75       0.0334
     61  N        -29.2790   40.0370   -8.3740 N.am   76  TYR76      -0.1974
     62  CA       -29.7370   38.8950   -9.1500 C.3    76  TYR76       0.1639
     63  C        -28.6090   38.0300   -9.6610 C.2    76  TYR76       0.2290
     64  O        -27.6270   38.5140  -10.1770 O.2    76  TYR76      -0.2864
     65  CB       -30.5770   39.3550  -10.3430 C.3    76  TYR76       0.0560
     66  CG       -30.8300   38.1900  -11.2740 C.ar   76  TYR76      -0.0198
     67  CD1      -31.7350   37.2200  -10.9210 C.ar   76  TYR76      -0.0009
     68  CD2      -30.1020   38.0300  -12.4620 C.ar   76  TYR76      -0.0009
     69  CE1      -31.9490   36.1290  -11.7220 C.ar   76  TYR76       0.0417
     70  CE2      -30.3140   36.9280  -13.2820 C.ar   76  TYR76       0.0417
     71  CZ       -31.2580   35.9950  -12.9000 C.ar   76  TYR76       0.1957
     72  OH       -31.5180   34.8850  -13.6270 O.3    76  TYR76      -0.2866
@<TRIPOS>BOND
     1    72    71    1
     2    70    71   ar
     3    70    68   ar
     4    71    69   ar
     5    68    66   ar
     6    69    67   ar
     7    66    67   ar
     8    66    65    1
     9    65    62    1
    10    64    63    2
    11    63    62    1
    12    62    61    1
    13    61    58   am
    14    60    57    1
    15    58    57    1
    16    58    59    2
    17    18    17    2
    18    24    25    1
    19    25    26    1
    20    57    56    1
    21    17    16    1
    22    26    27    2
    23    51    50    2
    24    56    50   am
    25    15    16    1
    26    16    19    1
    27    50    49    1
    28    23    21   ar
    29    19    20    1
    30    20    21    1
    31    21    22   ar
    32    10     9    2
    33    49    48    1
    34    49    52    1
    35     9     8    1
    36    52    53    1
    37    34    28    1
    38    34    33    1
    39    28    29    1
    40     7     8    1
    41     8    11    1
    42    33    32    1
    43    53    54    2
    44    53    55   am
    45    29    32    1
    46    29    30    1
    47    11    12    1
    48     1     2    1
    49     5     2    1
    50     5     6    1
    51    12    13    1
    52    12    14    1
    53    31    30    2
    54     2     3    1
    55     3     4    2
    56    39    36    1
    57    46    45    1
    58    42    43    2
    59    42    41    1
    60    44    45    1
    61    44    41    1
    62    38    37    2
    63    36    37    1
    64    36    35    1
    65    45    47    1
    66    41    40    1
