@<TRIPOS>MOLECULE
tmp/5mj3A02.pdb
 94 86 0 0 0
SMALL
GASTEIGER

@<TRIPOS>ATOM
      1  N         37.9500   -5.0710   32.6820 N.3     4  LEU4       -0.1231
      2  CA        37.6900   -3.9710   31.7590 C.3     4  LEU4        0.1693
      3  C         38.4950   -4.1460   30.4770 C.2     4  LEU4        0.2592
      4  O         37.9690   -3.9900   29.3630 O.2     4  LEU4       -0.2718
      5  CB        38.0420   -2.6470   32.4430 C.3     4  LEU4        0.0284
      6  CG        37.8110   -1.3580   31.6520 C.3     4  LEU4        0.0019
      7  CD1       36.3200   -1.1570   31.3730 C.3     4  LEU4        0.0001
      8  CD2       38.3850   -0.1790   32.4150 C.3     4  LEU4        0.0001
      9  N         39.7770   -4.4650   30.6310 N.am    5  LYS5       -0.1966
     10  CA        40.6680   -4.8340   29.5420 C.3     5  LYS5        0.1728
     11  C         41.7870   -5.6570   30.1660 C.2     5  LYS5        0.2616
     12  O         41.8160   -5.8570   31.3800 O.2     5  LYS5       -0.2715
     13  CB        41.1920   -3.5980   28.8140 C.3     5  LYS5        0.0311
     14  CG        41.9320   -2.6380   29.7240 C.3     5  LYS5        0.0038
     15  CD        42.4010   -1.4280   28.9510 C.3     5  LYS5        0.0206
     16  CE        43.1370   -0.4730   29.8580 C.3     5  LYS5        0.1093
     17  NZ        43.6440    0.7260   29.1340 N.3     5  LYS5       -0.1314
     18  N         42.7080   -6.1360   29.3380 N.am    6  LYS6       -0.1963
     19  CA        43.7500   -7.0310   29.8330 C.3     6  LYS6        0.1728
     20  C         44.4090   -6.4690   31.0870 C.2     6  LYS6        0.2616
     21  O         44.9020   -5.3370   31.0880 O.2     6  LYS6       -0.2715
     22  CB        44.8010   -7.2640   28.7450 C.3     6  LYS6        0.0311
     23  CG        45.9090   -8.2270   29.1640 C.3     6  LYS6        0.0038
     24  CD        46.9260   -8.4470   28.0510 C.3     6  LYS6        0.0206
     25  CE        48.0440   -9.3780   28.5010 C.3     6  LYS6        0.1093
     26  NZ        49.0330   -9.6320   27.4150 N.3     6  LYS6       -0.1314
     27  N         44.3980   -7.2640   32.1550 N.am    7  ASP7       -0.1957
     28  CA        45.0830   -6.9560   33.4080 C.3     7  ASP7        0.1840
     29  C         44.5200   -5.7220   34.1070 C.2     7  ASP7        0.2621
     30  O         45.1860   -5.1470   34.9720 O.2     7  ASP7       -0.2715
     31  CB        46.5890   -6.7850   33.1780 C.3     7  ASP7        0.1450
     32  CG        47.2460   -8.0560   32.6680 C.2     7  ASP7        0.3671
     33  OD1       46.7140   -9.1560   32.9350 O.co2   7  ASP7       -0.2456
     34  OD2       48.2980   -7.9580   32.0160 O.co2   7  ASP7       -0.2456
     35  N         43.3070   -5.3000   33.7510 N.am    8  VAL8       -0.1977
     36  CA        42.6430   -4.1690   34.3910 C.3     8  VAL8        0.1596
     37  C         41.2420   -4.6040   34.7900 C.2     8  VAL8        0.2287
     38  O         40.4630   -5.0590   33.9430 O.2     8  VAL8       -0.2864
     39  CB        42.5820   -2.9320   33.4730 C.3     8  VAL8        0.0276
     40  CG1       41.9360   -1.7640   34.2040 C.3     8  VAL8        0.0022
     41  CG2       43.9760   -2.5570   32.9780 C.3     8  VAL8        0.0022
     42  N         47.7470   -0.9710   41.4920 N.3    65  GLN65      -0.1245
     43  CA        48.4150   -2.0050   40.7120 C.3    65  GLN65       0.1566
     44  C         48.9770   -3.0650   41.6510 C.2    65  GLN65       0.2260
     45  O         49.9600   -2.8210   42.3610 O.2    65  GLN65      -0.2867
     46  CB        49.5230   -1.4020   39.8530 C.3    65  GLN65       0.0367
     47  CG        50.2150   -2.4300   38.9750 C.3    65  GLN65       0.0905
     48  CD        51.2230   -1.8090   38.0290 C.2    65  GLN65       0.2608
     49  OE1       52.4220   -1.7920   38.3070 O.2    65  GLN65      -0.2717
     50  NE2       50.7390   -1.2940   36.9040 N.am   65  GLN65      -0.0878
     51  N         45.6960   -4.2240   37.7620 N.3    79  LEU79      -0.1245
     52  CA        45.2270   -2.9110   38.1770 C.3    79  LEU79       0.1561
     53  C         43.7570   -3.0150   38.5650 C.2    79  LEU79       0.2260
     54  O         42.9230   -3.4000   37.7420 O.2    79  LEU79      -0.2867
     55  CB        45.4050   -1.8930   37.0480 C.3    79  LEU79       0.0270
     56  CG        44.8920   -0.4790   37.3430 C.3    79  LEU79       0.0019
     57  CD1       45.6920    0.1230   38.4830 C.3    79  LEU79       0.0001
     58  CD2       44.9710    0.4000   36.1040 C.3    79  LEU79       0.0001
     59  N         40.4420   -0.9380   39.7120 N.3    81  LEU81      -0.1245
     60  CA        39.7170    0.3220   39.7520 C.3    81  LEU81       0.1561
     61  C         38.4070    0.1180   40.5000 C.2    81  LEU81       0.2260
     62  O         37.8680   -0.9920   40.5320 O.2    81  LEU81      -0.2867
     63  CB        39.4000    0.8170   38.3370 C.3    81  LEU81       0.0270
     64  CG        40.5660    0.8880   37.3560 C.3    81  LEU81       0.0019
     65  CD1       40.0680    1.2150   35.9450 C.3    81  LEU81       0.0001
     66  CD2       41.6060    1.9050   37.8520 C.3    81  LEU81       0.0001
     67  N         41.6180    9.5090   31.8370 N.3   131  THR131     -0.1218
     68  CA        41.6140    8.7020   30.6230 C.3   131  THR131      0.1862
     69  C         40.1770    8.4280   30.2050 C.2   131  THR131      0.2287
     70  O         39.3330    8.1330   31.0510 O.2   131  THR131     -0.2866
     71  CB        42.3460    7.3570   30.8370 C.3   131  THR131      0.1770
     72  OG1       43.6720    7.5960   31.3360 O.3   131  THR131     -0.2211
     73  CG2       42.4530    6.5820   29.5350 C.3   131  THR131      0.0375
     74  N         37.7730    6.2640   27.1340 N.3   133  SER133     -0.1217
     75  CA        37.7340    5.2780   26.0710 C.3   133  SER133      0.1889
     76  C         36.3200    5.2480   25.5270 C.2   133  SER133      0.2288
     77  O         35.3670    5.1950   26.3040 O.2   133  SER133     -0.2866
     78  CB        38.1250    3.8850   26.5520 C.3   133  SER133      0.2089
     79  OG        38.1870    3.0170   25.4290 O.3   133  SER133     -0.2183
     80  N         33.8840    5.0800   28.7740 N.3   191  ASP191     -0.1239
     81  CA        34.5980    4.7990   30.0180 C.3   191  ASP191      0.1674
     82  C         35.4200    6.0160   30.4260 C.2   191  ASP191      0.2266
     83  O         36.1080    6.6220   29.6010 O.2   191  ASP191     -0.2867
     84  CB        35.5530    3.6100   29.8610 C.3   191  ASP191      0.1410
     85  CG        34.8540    2.2750   29.7080 C.2   191  ASP191      0.3668
     86  OD1       33.7510    2.0630   30.2450 O.co2 191  ASP191     -0.2456
     87  OD2       35.4630    1.4070   29.0460 O.co2 191  ASP191     -0.2456
     88  N         38.1920    7.1660   33.5400 N.3   193  VAL193     -0.1245
     89  CA        38.9800    6.7560   34.6980 C.3   193  VAL193      0.1561
     90  C         39.7810    7.9480   35.1860 C.2   193  VAL193      0.2260
     91  O         40.5980    8.5070   34.4390 O.2   193  VAL193     -0.2867
     92  CB        39.9090    5.5710   34.3890 C.3   193  VAL193      0.0252
     93  CG1       40.7250    5.1800   35.6450 C.3   193  VAL193      0.0019
     94  CG2       39.0900    4.3920   33.8790 C.3   193  VAL193      0.0019
@<TRIPOS>BOND
     1    79    78    1
     2    76    75    1
     3    76    77    2
     4    75    78    1
     5    75    74    1
     6    26    25    1
     7    24    25    1
     8    24    23    1
     9    22    23    1
    10    22    19    1
    11    80    81    1
    12    13    10    1
    13    13    14    1
    14    15    14    1
    15    15    16    1
    16    87    85   ar
    17    17    16    1
    18    18    19    1
    19    18    11   am
    20     4     3    2
    21    73    71    1
    22    10    11    1
    23    10     9    1
    24    83    82    2
    25    85    84    1
    26    85    86   ar
    27    19    20    1
    28    84    81    1
    29    81    82    1
    30    11    12    2
    31    69    68    1
    32    69    70    2
    33     3     9   am
    34     3     2    1
    35    68    71    1
    36    68    67    1
    37    71    72    1
    38    20    21    2
    39    20    27   am
    40     7     6    1
    41     6     8    1
    42     6     5    1
    43     2     5    1
    44     2     1    1
    45    34    32   ar
    46    27    28    1
    47    32    33   ar
    48    32    31    1
    49    41    39    1
    50    31    28    1
    51    28    29    1
    52    39    40    1
    53    39    36    1
    54    88    89    1
    55    35    29   am
    56    35    36    1
    57    94    92    1
    58    38    37    2
    59    29    30    2
    60    92    89    1
    61    92    93    1
    62    36    37    1
    63    91    90    2
    64    89    90    1
    65    65    64    1
    66    58    56    1
    67    50    48   am
    68    55    56    1
    69    55    52    1
    70    56    57    1
    71    64    66    1
    72    64    63    1
    73    54    53    2
    74    51    52    1
    75    48    49    2
    76    48    47    1
    77    52    53    1
    78    63    60    1
    79    47    46    1
    80    59    60    1
    81    60    61    1
    82    46    43    1
    83    61    62    2
    84    43    42    1
    85    43    44    1
    86    44    45    2
