@<TRIPOS>MOLECULE
tmp/5mj5A00.pdb
 201 190 0 0 0
SMALL
GASTEIGER

@<TRIPOS>ATOM
      1  N          1.8090  -27.9540   -9.3990 N.3    20  PRO20      -0.2116
      2  CA         1.9630  -26.6120   -8.8090 C.3    20  PRO20       0.1372
      3  C          1.3040  -26.4650   -7.4490 C.2    20  PRO20       0.2244
      4  O          1.8840  -25.8430   -6.5500 O.2    20  PRO20      -0.2868
      5  CB         1.3130  -25.6970   -9.8580 C.3    20  PRO20       0.0268
      6  CG         1.3400  -26.4870  -11.1310 C.3    20  PRO20       0.0207
      7  CD         1.1580  -27.9120  -10.7180 C.3    20  PRO20       0.0892
      8  N          3.2550  -25.4600   -4.1040 N.3    24  ILE24      -0.1245
      9  CA         2.9590  -24.2120   -3.4060 C.3    24  ILE24       0.1561
     10  C          2.8680  -24.4550   -1.9050 C.2    24  ILE24       0.2260
     11  O          3.4710  -23.7340   -1.1020 O.2    24  ILE24      -0.2867
     12  CB         1.6680  -23.5790   -3.9560 C.3    24  ILE24       0.0252
     13  CG1        1.9120  -22.9850   -5.3450 C.3    24  ILE24       0.0019
     14  CG2        1.1450  -22.5180   -3.0000 C.3    24  ILE24       0.0019
     15  CD1        0.6880  -22.3370   -5.9550 C.3    24  ILE24       0.0001
     16  N          6.3030  -25.3550   -0.5310 N.3    27  ALA27      -0.1231
     17  CA         7.1970  -24.2030   -0.4810 C.3    27  ALA27       0.1694
     18  C          6.8420  -23.2720    0.6720 C.2    27  ALA27       0.2591
     19  O          7.7300  -22.7990    1.3910 O.2    27  ALA27      -0.2718
     20  CB         7.1570  -23.4510   -1.8110 C.3    27  ALA27       0.0304
     21  N          5.5500  -22.9960    0.8630 N.am   28  ALA28      -0.1980
     22  CA         5.1370  -22.0940    1.9340 C.3    28  ALA28       0.1597
     23  C          5.5730  -22.6230    3.2950 C.2    28  ALA28       0.2287
     24  O          6.1280  -21.8810    4.1140 O.2    28  ALA28      -0.2864
     25  CB         3.6220  -21.8890    1.8910 C.3    28  ALA28       0.0319
     26  N          9.4670  -22.3650    3.6950 N.3    31  GLN31      -0.1245
     27  CA         9.9940  -21.0200    3.8840 C.3    31  GLN31       0.1566
     28  C          9.5320  -20.3680    5.1810 C.2    31  GLN31       0.2260
     29  O         10.1210  -19.3600    5.5870 O.2    31  GLN31      -0.2867
     30  CB         9.6130  -20.1380    2.6930 C.3    31  GLN31       0.0367
     31  CG        10.2300  -20.6000    1.3830 C.3    31  GLN31       0.0905
     32  CD        11.7370  -20.7450    1.4720 C.2    31  GLN31       0.2608
     33  OE1       12.2700  -21.8560    1.4370 O.2    31  GLN31      -0.2717
     34  NE2       12.4340  -19.6200    1.5880 N.am   31  GLN31      -0.0878
     35  N          3.4160  -13.0960    7.4920 N.3    61  TRP61      -0.1227
     36  CA         4.1810  -14.1830    6.8860 C.3    61  TRP61       0.1737
     37  C          3.8010  -14.3850    5.4240 C.2    61  TRP61       0.2595
     38  O          4.6700  -14.6330    4.5790 O.2    61  TRP61      -0.2718
     39  CB         3.9890  -15.4780    7.6790 C.3    61  TRP61       0.0564
     40  CG         2.6000  -16.0380    7.6250 C.ar   61  TRP61       0.0003
     41  CD1        1.5990  -15.8330    8.5280 C.ar   61  TRP61       0.0946
     42  CD2        2.0610  -16.9010    6.6170 C.ar   61  TRP61       0.0152
     43  NE1        0.4680  -16.5110    8.1440 N.ar   61  TRP61      -0.2442
     44  CE2        0.7250  -17.1750    6.9740 C.ar   61  TRP61       0.0810
     45  CE3        2.5760  -17.4670    5.4460 C.ar   61  TRP61       0.0012
     46  CZ2       -0.1020  -17.9880    6.2040 C.ar   61  TRP61       0.0191
     47  CZ3        1.7540  -18.2740    4.6830 C.ar   61  TRP61       0.0001
     48  CH2        0.4290  -18.5270    5.0640 C.ar   61  TRP61       0.0015
     49  N          2.5110  -14.2740    5.1010 N.am   62  ASN62      -0.1974
     50  CA         2.0650  -14.5260    3.7340 C.3    62  ASN62       0.1688
     51  C          2.6550  -13.5030    2.7690 C.2    62  ASN62       0.2292
     52  O          3.2930  -13.8630    1.7740 O.2    62  ASN62      -0.2864
     53  CB         0.5370  -14.5210    3.6670 C.3    62  ASN62       0.1181
     54  CG         0.0120  -15.0800    2.3580 C.2    62  ASN62       0.2629
     55  OD1        0.5870  -16.0120    1.7930 O.2    62  ASN62      -0.2716
     56  ND2       -1.0790  -14.5050    1.8620 N.am   62  ASN62      -0.0877
     57  N          6.4440  -13.9360    2.4050 N.3    65  LEU65      -0.1231
     58  CA         6.8600  -15.0120    1.5120 C.3    65  LEU65       0.1693
     59  C          6.5570  -14.6720    0.0580 C.2    65  LEU65       0.2591
     60  O          7.3280  -15.0250   -0.8420 O.2    65  LEU65      -0.2718
     61  CB         6.1790  -16.3220    1.9090 C.3    65  LEU65       0.0284
     62  CG         6.4720  -16.8500    3.3140 C.3    65  LEU65       0.0019
     63  CD1        5.8090  -18.2020    3.5240 C.3    65  LEU65       0.0001
     64  CD2        7.9720  -16.9390    3.5550 C.3    65  LEU65       0.0001
     65  N          5.4390  -13.9880   -0.1920 N.am   66  ILE66      -0.1980
     66  CA         5.0820  -13.6210   -1.5610 C.3    66  ILE66       0.1595
     67  C          6.1120  -12.6600   -2.1380 C.2    66  ILE66       0.2287
     68  O          6.5580  -12.8090   -3.2820 O.2    66  ILE66      -0.2864
     69  CB         3.6640  -13.0260   -1.6070 C.3    66  ILE66       0.0276
     70  CG1        2.6300  -14.0840   -1.2190 C.3    66  ILE66       0.0022
     71  CG2        3.3680  -12.4630   -2.9910 C.3    66  ILE66       0.0022
     72  CD1        1.2150  -13.5530   -1.1490 C.3    66  ILE66       0.0001
     73  N          9.1410  -12.5310   -1.3780 N.3    68  SER68      -0.1202
     74  CA        10.3900  -13.2540   -1.5900 C.3    68  SER68       0.2020
     75  C         10.3810  -14.0090   -2.9140 C.2    68  SER68       0.2618
     76  O         11.2850  -13.8380   -3.7400 O.2    68  SER68      -0.2717
     77  CB        10.6510  -14.2070   -0.4240 C.3    68  SER68       0.2103
     78  OG        10.9860  -13.4910    0.7510 O.3    68  SER68      -0.2182
     79  N          9.3710  -14.8570   -3.1380 N.am   69  PHE69      -0.1975
     80  CA         9.3780  -15.6500   -4.3630 C.3    69  PHE69       0.1639
     81  C          9.1150  -14.7990   -5.5980 C.2    69  PHE69       0.2290
     82  O          9.5090  -15.1950   -6.7000 O.2    69  PHE69      -0.2864
     83  CB         8.3790  -16.8170   -4.2720 C.3    69  PHE69       0.0560
     84  CG         6.9260  -16.4240   -4.4070 C.ar   69  PHE69      -0.0200
     85  CD1        6.3870  -16.0870   -5.6410 C.ar   69  PHE69      -0.0042
     86  CD2        6.0840  -16.4580   -3.3080 C.ar   69  PHE69      -0.0042
     87  CE1        5.0510  -15.7480   -5.7660 C.ar   69  PHE69      -0.0003
     88  CE2        4.7450  -16.1270   -3.4290 C.ar   69  PHE69      -0.0003
     89  CZ         4.2290  -15.7700   -4.6580 C.ar   69  PHE69      -0.0000
     90  N         12.5080  -13.4310   -6.2990 N.3    72  ARG72      -0.1245
     91  CA        13.2920  -14.5840   -6.7240 C.3    72  ARG72       0.1563
     92  C         13.0320  -14.9560   -8.1770 C.2    72  ARG72       0.2260
     93  O         13.8820  -15.6000   -8.8020 O.2    72  ARG72      -0.2867
     94  CB        12.9810  -15.7740   -5.8160 C.3    72  ARG72       0.0307
     95  CG        13.7080  -17.0590   -6.1640 C.3    72  ARG72       0.0489
     96  CD        13.0380  -18.2360   -5.4750 C.3    72  ARG72       0.2205
     97  NE        12.8960  -18.0120   -4.0390 N.pl3  72  ARG72      -0.0865
     98  CZ        11.9140  -18.5160   -3.2980 C.cat  72  ARG72       0.5346
     99  NH1       10.9750  -19.2660   -3.8580 N.pl3  72  ARG72       0.1354
    100  NH2       11.8640  -18.2600   -1.9980 N.pl3  72  ARG72       0.1354
    101  N          7.1830  -18.4410  -12.1640 N.3    80  ILE80      -0.1245
    102  CA         7.4510  -18.2690  -10.7420 C.3    80  ILE80       0.1561
    103  C          8.3310  -19.4190  -10.2790 C.2    80  ILE80       0.2260
    104  O          8.0580  -20.5830  -10.5970 O.2    80  ILE80      -0.2867
    105  CB         6.1500  -18.2130   -9.9200 C.3    80  ILE80       0.0252
    106  CG1        5.3330  -16.9750  -10.2960 C.3    80  ILE80       0.0019
    107  CG2        6.4590  -18.2310   -8.4300 C.3    80  ILE80       0.0019
    108  CD1        4.0090  -16.8730   -9.5690 C.3    80  ILE80       0.0001
    109  N          9.3470  -21.4670   -7.2190 N.3    82  LEU82      -0.1231
    110  CA         8.9540  -21.7870   -5.8580 C.3    82  LEU82       0.1693
    111  C         10.1510  -22.2950   -5.0580 C.2    82  LEU82       0.2591
    112  O         11.1760  -22.7030   -5.6100 O.2    82  LEU82      -0.2718
    113  CB         7.8340  -22.8270   -5.8540 C.3    82  LEU82       0.0284
    114  CG         6.5220  -22.3900   -6.5090 C.3    82  LEU82       0.0019
    115  CD1        5.5270  -23.5390   -6.5420 C.3    82  LEU82       0.0001
    116  CD2        5.9350  -21.1900   -5.7810 C.3    82  LEU82       0.0001
    117  N         10.0030  -22.2690   -3.7310 N.am   83  ALA83      -0.1980
    118  CA        11.0960  -22.6620   -2.8480 C.3    83  ALA83       0.1597
    119  C         11.5030  -24.1180   -3.0340 C.2    83  ALA83       0.2287
    120  O         12.6230  -24.4870   -2.6630 O.2    83  ALA83      -0.2864
    121  CB        10.7100  -22.4120   -1.3900 C.3    83  ALA83       0.0319
    122  N          7.1860  -22.7220  -12.2450 N.3    88  VAL88      -0.1245
    123  CA         5.8060  -22.7870  -12.7090 C.3    88  VAL88       0.1561
    124  C          5.6060  -21.6920  -13.7460 C.2    88  VAL88       0.2260
    125  O          5.7550  -20.5020  -13.4410 O.2    88  VAL88      -0.2867
    126  CB         4.8110  -22.6370  -11.5480 C.3    88  VAL88       0.0252
    127  CG1        3.3810  -22.7400  -12.0610 C.3    88  VAL88       0.0019
    128  CG2        5.0770  -23.6860  -10.4810 C.3    88  VAL88       0.0019
    129  N          0.4500  -23.0010  -14.6080 N.3    93  ALA93      -0.1245
    130  CA        -0.3660  -22.3480  -13.5890 C.3    93  ALA93       0.1562
    131  C         -1.8370  -22.3300  -13.9880 C.2    93  ALA93       0.2260
    132  O         -2.7150  -22.6280  -13.1690 O.2    93  ALA93      -0.2867
    133  CB         0.1410  -20.9280  -13.3370 C.3    93  ALA93       0.0290
    134  N         -4.9220  -21.8640  -11.1000 N.3    98  VAL98      -0.1245
    135  CA        -4.4590  -20.6420  -10.4510 C.3    98  VAL98       0.1561
    136  C         -3.8930  -19.6920  -11.4970 C.2    98  VAL98       0.2260
    137  O         -2.8900  -19.0110  -11.2550 O.2    98  VAL98      -0.2867
    138  CB        -3.4130  -20.9520   -9.3650 C.3    98  VAL98       0.0252
    139  CG1       -4.0290  -21.7980   -8.2620 C.3    98  VAL98       0.0019
    140  CG2       -2.2090  -21.6540   -9.9740 C.3    98  VAL98       0.0019
    141  N         -4.5050  -15.5650  -10.3710 N.3   101  ILE101     -0.1231
    142  CA        -3.5870  -15.0650   -9.3510 C.3   101  ILE101      0.1692
    143  C         -2.1500  -15.1200   -9.8530 C.2   101  ILE101      0.2592
    144  O         -1.3330  -14.2460   -9.5380 O.2   101  ILE101     -0.2718
    145  CB        -3.7640  -15.8490   -8.0380 C.3   101  ILE101      0.0266
    146  CG1       -2.9180  -15.2220   -6.9280 C.3   101  ILE101      0.0019
    147  CG2       -3.3980  -17.3110   -8.2370 C.3   101  ILE101      0.0020
    148  CD1       -3.2620  -13.7760   -6.6480 C.3   101  ILE101      0.0001
    149  N         -1.8160  -16.1480  -10.6380 N.am  102  PHE102     -0.1976
    150  CA        -0.4970  -16.2100  -11.2600 C.3   102  PHE102      0.1639
    151  C         -0.2400  -14.9700  -12.1080 C.2   102  PHE102      0.2290
    152  O          0.8330  -14.3580  -12.0300 O.2   102  PHE102     -0.2864
    153  CB        -0.3820  -17.4820  -12.1050 C.3   102  PHE102      0.0560
    154  CG         0.9100  -17.5960  -12.8690 C.ar  102  PHE102     -0.0200
    155  CD1        1.0220  -17.0800  -14.1500 C.ar  102  PHE102     -0.0042
    156  CD2        2.0070  -18.2320  -12.3110 C.ar  102  PHE102     -0.0042
    157  CE1        2.2050  -17.1850  -14.8560 C.ar  102  PHE102     -0.0003
    158  CE2        3.1940  -18.3410  -13.0130 C.ar  102  PHE102     -0.0003
    159  CZ         3.2930  -17.8170  -14.2870 C.ar  102  PHE102     -0.0000
    160  N          0.4660  -11.8600   -9.9940 N.3   105  VAL105     -0.1245
    161  CA         1.8010  -11.8680   -9.4020 C.3   105  VAL105      0.1561
    162  C          2.8330  -11.3860  -10.4110 C.2   105  VAL105      0.2260
    163  O          3.7090  -10.5740  -10.0880 O.2   105  VAL105     -0.2867
    164  CB         2.1420  -13.2730   -8.8710 C.3   105  VAL105      0.0252
    165  CG1        3.6120  -13.3480   -8.4870 C.3   105  VAL105      0.0019
    166  CG2        1.2600  -13.6190   -7.6820 C.3   105  VAL105      0.0019
    167  N         -3.9740  -14.8980   -2.5300 N.3   188  CYS188     -0.1235
    168  CA        -3.1740  -16.1040   -2.3360 C.3   188  CYS188      0.1677
    169  C         -3.6340  -16.8710   -1.1040 C.2   188  CYS188      0.2270
    170  O         -3.7400  -18.1020   -1.1330 O.2   188  CYS188     -0.2867
    171  CB        -1.6920  -15.7450   -2.2210 C.3   188  CYS188      0.0956
    172  SG        -0.9230  -15.2170   -3.7680 S.3   188  CYS188     -0.0801
    173  N         -6.5890  -19.0330   -1.8570 N.3   191  HIS191     -0.1226
    174  CA        -6.2560  -20.2850   -2.5290 C.3   191  HIS191      0.1752
    175  C         -5.6720  -21.2980   -1.5530 C.2   191  HIS191      0.2595
    176  O         -5.9480  -22.4990   -1.6550 O.2   191  HIS191     -0.2718
    177  CB        -5.2850  -20.0240   -3.6800 C.3   191  HIS191      0.0759
    178  CG        -5.9200  -19.3740   -4.8700 C.ar  191  HIS191      0.0818
    179  ND1       -6.6550  -20.0790   -5.7980 N.ar  191  HIS191     -0.2268
    180  CD2       -5.9270  -18.0850   -5.2850 C.ar  191  HIS191      0.1154
    181  CE1       -7.0900  -19.2520   -6.7330 C.ar  191  HIS191      0.1986
    182  NE2       -6.6610  -18.0360   -6.4450 N.ar  191  HIS191     -0.2212
    183  N         -4.8560  -20.8360   -0.6030 N.am  192  LEU192     -0.1980
    184  CA        -4.3190  -21.7470    0.4030 C.3   192  LEU192      0.1596
    185  C         -5.4390  -22.4020    1.2000 C.2   192  LEU192      0.2287
    186  O         -5.3450  -23.5800    1.5650 O.2   192  LEU192     -0.2864
    187  CB        -3.3580  -21.0030    1.3310 C.3   192  LEU192      0.0297
    188  CG        -2.0340  -20.5620    0.7060 C.3   192  LEU192      0.0022
    189  CD1       -1.1700  -19.8320    1.7240 C.3   192  LEU192      0.0001
    190  CD2       -1.2910  -21.7580    0.1270 C.3   192  LEU192      0.0001
    191  N         -7.0140  -25.0250   -1.0030 N.3   195  PHE195     -0.1241
    192  CA        -6.2270  -26.2530   -0.9810 C.3   195  PHE195      0.1605
    193  C         -6.4500  -27.0200    0.3170 C.2   195  PHE195      0.2264
    194  O         -6.6370  -28.2430    0.3070 O.2   195  PHE195     -0.2867
    195  CB        -4.7430  -25.9280   -1.1660 C.3   195  PHE195      0.0534
    196  CG        -4.4490  -25.0650   -2.3640 C.ar  195  PHE195     -0.0203
    197  CD1       -5.2940  -25.0600   -3.4620 C.ar  195  PHE195     -0.0042
    198  CD2       -3.3230  -24.2590   -2.3900 C.ar  195  PHE195     -0.0042
    199  CE1       -5.0220  -24.2650   -4.5610 C.ar  195  PHE195     -0.0003
    200  CE2       -3.0460  -23.4630   -3.4860 C.ar  195  PHE195     -0.0003
    201  CZ        -3.8970  -23.4670   -4.5730 C.ar  195  PHE195     -0.0000
@<TRIPOS>BOND
     1   157   159   ar
     2   157   155   ar
     3   129   130    1
     4   159   158   ar
     5   155   154   ar
     6   131   130    1
     7   131   132    2
     8   124   125    2
     9   124   123    1
    10   130   133    1
    11   158   156   ar
    12   154   156   ar
    13   154   153    1
    14   123   122    1
    15   123   126    1
    16   101   102    1
    17   151   152    2
    18   151   150    1
    19   153   150    1
    20   127   126    1
    21   126   128    1
    22   136   137    2
    23   136   135    1
    24   150   149    1
    25     6     7    1
    26     6     5    1
    27   134   135    1
    28   102   103    1
    29   102   105    1
    30     7     1    1
    31   149   143   am
    32   104   103    2
    33   135   138    1
    34   162   163    2
    35   162   161    1
    36   141   142    1
    37   106   105    1
    38   106   108    1
    39   160   161    1
    40   140   138    1
    41   105   107    1
    42     5     2    1
    43   143   144    2
    44   143   142    1
    45   161   164    1
    46     1     2    1
    47   138   139    1
    48   142   145    1
    49   164   165    1
    50   164   166    1
    51     2     3    1
    52    93    92    2
    53   147   145    1
    54    92    91    1
    55   145   146    1
    56     3     4    2
    57   109   110    1
    58   146   148    1
    59   181   182   ar
    60   181   179   ar
    61    91    90    1
    62    91    94    1
    63    82    81    2
    64   115   114    1
    65   114   113    1
    66   114   116    1
    67   182   180   ar
    68    95    94    1
    69    95    96    1
    70    15    13    1
    71   110   113    1
    72   110   111    1
    73   179   178   ar
    74    87    85   ar
    75    87    89   ar
    76    85    84   ar
    77   112   111    2
    78    81    80    1
    79    96    97    1
    80    13    12    1
    81   180   178   ar
    82   111   117   am
    83   178   177    1
    84    89    88   ar
    85   201   199   ar
    86   201   200   ar
    87   199   197   ar
    88    84    83    1
    89    84    86   ar
    90    80    83    1
    91    80    79    1
    92     8     9    1
    93    97    98    2
    94    12     9    1
    95    12    14    1
    96    99    98    1
    97   172   171    1
    98    76    75    2
    99   117   118    1
   100   177   174    1
   101   200   198   ar
   102   197   196   ar
   103    88    86   ar
   104     9    10    1
   105    98   100    1
   106    68    67    2
   107    79    75   am
   108   119   118    1
   109   119   120    2
   110    71    69    1
   111    75    74    1
   112   118   121    1
   113   167   168    1
   114   174   173    1
   115   174   175    1
   116   198   196   ar
   117   196   195    1
   118   168   171    1
   119   168   169    1
   120    67    66    1
   121    10    11    2
   122    20    17    1
   123   176   175    2
   124    69    66    1
   125    69    70    1
   126    74    73    1
   127    74    77    1
   128    66    65    1
   129   175   183   am
   130    70    72    1
   131   195   192    1
   132   170   169    2
   133   191   192    1
   134   192   193    1
   135    60    59    2
   136   183   184    1
   137    16    17    1
   138    17    18    1
   139    77    78    1
   140    65    59   am
   141    59    58    1
   142   190   188    1
   143   194   193    2
   144   184   185    1
   145   184   187    1
   146    18    21   am
   147    18    19    2
   148   188   187    1
   149   188   189    1
   150    21    22    1
   151   185   186    2
   152    31    32    1
   153    31    30    1
   154    33    32    2
   155    32    34   am
   156    58    61    1
   157    58    57    1
   158    52    51    2
   159    55    54    2
   160    56    54   am
   161    25    22    1
   162    61    62    1
   163    22    23    1
   164    54    53    1
   165    30    27    1
   166    51    50    1
   167    23    24    2
   168    62    63    1
   169    62    64    1
   170    53    50    1
   171    26    27    1
   172    50    49    1
   173    27    28    1
   174    38    37    2
   175    47    48   ar
   176    47    45   ar
   177    48    46   ar
   178    49    37   am
   179    28    29    2
   180    37    36    1
   181    45    42   ar
   182    46    44   ar
   183    42    44   ar
   184    42    40   ar
   185    36    35    1
   186    36    39    1
   187    44    43   ar
   188    40    39    1
   189    40    41   ar
   190    43    41   ar
