@<TRIPOS>MOLECULE
tmp/5mj6A02.pdb
 245 237 0 0 0
SMALL
GASTEIGER

@<TRIPOS>ATOM
      1  N         26.4950  -31.7990  -22.8470 N.3   116  TYR116     -0.1241
      2  CA        25.8810  -31.1650  -21.7030 C.3   116  TYR116      0.1605
      3  C         26.7050  -29.9210  -21.3690 C.2   116  TYR116      0.2264
      4  O         27.9080  -29.9180  -21.5560 O.2   116  TYR116     -0.2867
      5  CB        25.8170  -32.1850  -20.5730 C.3   116  TYR116      0.0534
      6  CG        24.8090  -31.9410  -19.4870 C.ar  116  TYR116     -0.0201
      7  CD1       23.6470  -31.2030  -19.7090 C.ar  116  TYR116     -0.0009
      8  CD2       25.0230  -32.4710  -18.2090 C.ar  116  TYR116     -0.0009
      9  CE1       22.7170  -30.9830  -18.6620 C.ar  116  TYR116      0.0417
     10  CE2       24.1090  -32.2720  -17.1660 C.ar  116  TYR116      0.0417
     11  CZ        22.9690  -31.5240  -17.3960 C.ar  116  TYR116      0.1957
     12  OH        22.1000  -31.3400  -16.3480 O.3   116  TYR116     -0.2866
     13  N         23.4740  -26.7010  -23.8360 N.3   137  GLN137     -0.1245
     14  CA        22.3600  -27.5260  -23.3560 C.3   137  GLN137      0.1566
     15  C         22.3660  -27.4960  -21.8430 C.2   137  GLN137      0.2260
     16  O         23.1160  -28.2300  -21.2170 O.2   137  GLN137     -0.2867
     17  CB        22.4710  -28.9700  -23.8520 C.3   137  GLN137      0.0367
     18  CG        21.5520  -29.9750  -23.1580 C.3   137  GLN137      0.0905
     19  CD        20.0960  -29.6110  -23.2860 C.2   137  GLN137      0.2608
     20  OE1       19.6250  -29.2540  -24.3700 O.2   137  GLN137     -0.2717
     21  NE2       19.3580  -29.7040  -22.1750 N.am  137  GLN137     -0.0878
     22  N         19.5300  -27.5420  -19.4280 N.3   139  GLU139     -0.1231
     23  CA        18.5740  -28.2570  -18.5590 C.3   139  GLU139      0.1684
     24  C         19.0240  -29.6950  -18.2690 C.2   139  GLU139      0.2434
     25  O         19.3570  -30.4480  -19.1710 O.2   139  GLU139     -0.2733
     26  CB        17.1590  -28.2590  -19.1680 C.3   139  GLU139      0.0402
     27  CG        16.0410  -28.7360  -18.1860 C.3   139  GLU139      0.1161
     28  CD        14.6630  -28.9140  -18.8600 C.2   139  GLU139      0.3649
     29  OE1       14.6240  -29.2170  -20.0710 O.co2 139  GLU139     -0.2457
     30  OE2       13.6200  -28.7410  -18.1890 O.co2 139  GLU139     -0.2457
     31  N         19.0330  -30.0860  -16.9990 N.am  140  PRO140     -0.2729
     32  CA        18.6490  -29.2900  -15.8340 C.3   140  PRO140      0.1401
     33  C         19.7800  -28.5560  -15.1140 C.2   140  PRO140      0.2269
     34  O         19.4950  -27.4790  -14.5790 O.2   140  PRO140     -0.2865
     35  CB        18.0460  -30.3430  -14.8930 C.3   140  PRO140      0.0296
     36  CG        18.8420  -31.5890  -15.1880 C.3   140  PRO140      0.0237
     37  CD        19.1380  -31.5300  -16.6760 C.3   140  PRO140      0.0939
     38  N         22.2200  -34.3190  -28.0200 N.3   270  GLU270     -0.1231
     39  CA        21.7840  -35.5970  -27.4220 C.3   270  GLU270      0.1699
     40  C         20.2680  -35.7580  -27.2840 C.2   270  GLU270      0.2592
     41  O         19.7290  -36.8070  -27.6390 O.2   270  GLU270     -0.2718
     42  CB        22.4230  -35.8220  -26.0500 C.3   270  GLU270      0.0402
     43  CG        22.0210  -37.1710  -25.3650 C.3   270  GLU270      0.1161
     44  CD        22.2180  -38.4310  -26.2760 C.2   270  GLU270      0.3649
     45  OE1       23.0680  -38.3950  -27.1940 O.co2 270  GLU270     -0.2457
     46  OE2       21.5190  -39.4630  -26.0840 O.co2 270  GLU270     -0.2457
     47  N         19.5870  -34.7410  -26.7600 N.am  271  ALA271     -0.1966
     48  CA        18.1280  -34.7670  -26.6670 C.3   271  ALA271      0.1728
     49  C         17.4700  -34.7210  -28.0370 C.2   271  ALA271      0.2617
     50  O         18.1260  -34.4110  -29.0240 O.2   271  ALA271     -0.2715
     51  CB        17.6490  -33.6090  -25.8370 C.3   271  ALA271      0.0334
     52  N         16.1710  -35.0120  -28.0950 N.am  272  GLY272     -0.1940
     53  CA        15.3910  -34.6980  -29.2780 C.3   272  GLY272      0.2014
     54  C         15.2990  -33.1870  -29.5300 C.2   272  GLY272      0.2639
     55  O         15.3990  -32.7320  -30.6610 O.2   272  GLY272     -0.2714
     56  N         15.1110  -32.3990  -28.4770 N.am  273  ALA273     -0.1963
     57  CA        14.9940  -30.9540  -28.6330 C.3   273  ALA273      0.1728
     58  C         15.0980  -30.2690  -27.2960 C.2   273  ALA273      0.2616
     59  O         15.1560  -30.9240  -26.2620 O.2   273  ALA273     -0.2715
     60  CB        13.6730  -30.5730  -29.3030 C.3   273  ALA273      0.0334
     61  N         15.1130  -28.9430  -27.3230 N.am  274  MET274     -0.1963
     62  CA        15.1970  -28.1480  -26.1080 C.3   274  MET274      0.1736
     63  C         14.4860  -26.8350  -26.3260 C.2   274  MET274      0.2616
     64  O         14.6230  -26.2120  -27.3750 O.2   274  MET274     -0.2715
     65  CB        16.6560  -27.8840  -25.6980 C.3   274  MET274      0.0427
     66  CG        16.7850  -27.1580  -24.3500 C.3   274  MET274      0.0599
     67  SD        15.9430  -27.9940  -22.9580 S.3   274  MET274     -0.1393
     68  CE        15.5030  -26.6100  -21.9110 C.3   274  MET274      0.0692
     69  N         13.7640  -26.4000  -25.3060 N.am  275  GLU275     -0.1977
     70  CA        12.8450  -25.2890  -25.4290 C.3   275  GLU275      0.1602
     71  C         13.3560  -23.9070  -25.0220 C.2   275  GLU275      0.2287
     72  O         12.5480  -23.0500  -24.6370 O.2   275  GLU275     -0.2864
     73  CB        11.6350  -25.5870  -24.5750 C.3   275  GLU275      0.0415
     74  CG        11.9720  -25.5370  -23.0650 C.3   275  GLU275      0.1163
     75  CD        11.9410  -26.9010  -22.3800 C.2   275  GLU275      0.3649
     76  OE1       12.2620  -27.9290  -23.0410 O.co2 275  GLU275     -0.2457
     77  OE2       11.5940  -26.9310  -21.1700 O.co2 275  GLU275     -0.2457
     78  N         15.2250  -34.5200  -36.2660 N.3   286  THR286     -0.1218
     79  CA        13.8880  -34.2380  -35.7340 C.3   286  THR286      0.1862
     80  C         13.3530  -32.8730  -36.1710 C.2   286  THR286      0.2287
     81  O         12.2950  -32.4410  -35.7180 O.2   286  THR286     -0.2866
     82  CB        13.8510  -34.2890  -34.1660 C.3   286  THR286      0.1770
     83  OG1       14.4610  -33.1140  -33.6280 O.3   286  THR286     -0.2211
     84  CG2       14.5760  -35.5190  -33.6240 C.3   286  THR286      0.0375
     85  N          7.0140  -37.1740  -36.4570 N.3   301  LEU301     -0.1245
     86  CA         8.0690  -36.8210  -35.5020 C.3   301  LEU301      0.1561
     87  C          8.3800  -35.3140  -35.5110 C.2   301  LEU301      0.2260
     88  O          8.4280  -34.6800  -34.4590 O.2   301  LEU301     -0.2867
     89  CB         9.3360  -37.6330  -35.7900 C.3   301  LEU301      0.0270
     90  CG        10.6380  -37.1490  -35.1490 C.3   301  LEU301      0.0019
     91  CD1       10.5240  -37.3010  -33.6850 C.3   301  LEU301      0.0001
     92  CD2       11.8770  -37.8940  -35.6480 C.3   301  LEU301      0.0001
     93  N          5.2180  -33.3870  -34.1920 N.3   304  LYS304     -0.1231
     94  CA         5.0560  -33.5990  -32.7560 C.3   304  LYS304      0.1693
     95  C          6.0530  -32.8000  -31.9370 C.2   304  LYS304      0.2591
     96  O          5.6740  -32.1640  -30.9570 O.2   304  LYS304     -0.2718
     97  CB         5.1920  -35.0770  -32.4050 C.3   304  LYS304      0.0285
     98  CG         4.0410  -35.9460  -32.8870 C.3   304  LYS304      0.0035
     99  CD         4.3320  -37.4240  -32.7020 C.3   304  LYS304      0.0206
    100  CE         4.8450  -37.6850  -31.3150 C.3   304  LYS304      0.1093
    101  NZ         5.1520  -39.1120  -31.0910 N.3   304  LYS304     -0.1314
    102  N          7.3240  -32.8230  -32.3370 N.am  305  ILE305     -0.1980
    103  CA         8.3690  -32.2410  -31.4980 C.3   305  ILE305      0.1595
    104  C          8.3060  -30.7130  -31.5720 C.2   305  ILE305      0.2287
    105  O          8.6830  -30.0300  -30.6250 O.2   305  ILE305     -0.2864
    106  CB         9.7990  -32.7760  -31.8740 C.3   305  ILE305      0.0276
    107  CG1       10.7900  -32.5330  -30.7370 C.3   305  ILE305      0.0022
    108  CG2       10.3400  -32.1340  -33.1310 C.3   305  ILE305      0.0022
    109  CD1       11.8040  -33.6490  -30.5580 C.3   305  ILE305      0.0001
    110  N          5.5340  -29.7470  -29.2750 N.3   308  HIS308     -0.1226
    111  CA         6.0400  -29.8820  -27.9260 C.3   308  HIS308      0.1752
    112  C          6.9200  -28.6850  -27.5070 C.2   308  HIS308      0.2595
    113  O          6.7170  -28.1300  -26.4250 O.2   308  HIS308     -0.2718
    114  CB         6.8120  -31.1880  -27.7860 C.3   308  HIS308      0.0759
    115  CG         7.1950  -31.5040  -26.3790 C.ar  308  HIS308      0.0818
    116  ND1        6.3460  -32.1490  -25.5070 N.ar  308  HIS308     -0.2268
    117  CD2        8.3270  -31.2460  -25.6820 C.ar  308  HIS308      0.1154
    118  CE1        6.9440  -32.2850  -24.3360 C.ar  308  HIS308      0.1986
    119  NE2        8.1450  -31.7450  -24.4130 N.ar  308  HIS308     -0.2212
    120  N          7.8720  -28.2710  -28.3510 N.am  309  GLU309     -0.1979
    121  CA         8.7470  -27.1950  -27.9460 C.3   309  GLU309      0.1602
    122  C          8.0010  -25.8810  -27.8710 C.2   309  GLU309      0.2287
    123  O          8.2540  -25.0880  -26.9670 O.2   309  GLU309     -0.2864
    124  CB         9.9350  -27.0570  -28.8750 C.3   309  GLU309      0.0415
    125  CG        10.8160  -28.2740  -28.9230 C.3   309  GLU309      0.1163
    126  CD        11.1070  -28.8560  -27.5630 C.2   309  GLU309      0.3649
    127  OE1       11.4860  -28.0980  -26.6570 O.co2 309  GLU309     -0.2457
    128  OE2       10.9910  -30.0870  -27.4040 O.co2 309  GLU309     -0.2457
    129  N          6.0350  -25.5600  -24.5670 N.3   312  HIS312     -0.1241
    130  CA         6.9720  -25.1530  -23.5140 C.3   312  HIS312      0.1621
    131  C          7.1610  -23.6410  -23.3790 C.2   312  HIS312      0.2264
    132  O          7.4830  -23.1560  -22.2830 O.2   312  HIS312     -0.2867
    133  CB         8.3490  -25.7680  -23.7430 C.3   312  HIS312      0.0745
    134  CG         8.5400  -27.0970  -23.0960 C.ar  312  HIS312      0.0817
    135  ND1        8.2450  -27.3280  -21.7730 N.ar  312  HIS312     -0.2268
    136  CD2        8.9730  -28.2780  -23.5980 C.ar  312  HIS312      0.1154
    137  CE1        8.5060  -28.5890  -21.4780 C.ar  312  HIS312      0.1986
    138  NE2        8.9440  -29.1870  -22.5690 N.ar  312  HIS312     -0.2212
    139  N          6.5820  -30.7320  -18.1520 N.3   331  GLU331     -0.1245
    140  CA         6.6810  -31.7810  -19.1470 C.3   331  GLU331      0.1567
    141  C          5.3610  -32.5060  -19.4110 C.2   331  GLU331      0.2260
    142  O          5.0360  -32.8210  -20.5650 O.2   331  GLU331     -0.2867
    143  CB         7.7720  -32.7750  -18.7140 C.3   331  GLU331      0.0388
    144  CG         9.1970  -32.1570  -18.6660 C.3   331  GLU331      0.1160
    145  CD         9.6420  -31.5910  -20.0170 C.2   331  GLU331      0.3649
    146  OE1        8.9580  -31.8590  -21.0210 O.co2 331  GLU331     -0.2457
    147  OE2       10.6660  -30.8720  -20.0830 O.co2 331  GLU331     -0.2457
    148  N          3.5020  -32.0930  -22.9380 N.3   335  THR335     -0.1218
    149  CA         3.2190  -33.3270  -23.6680 C.3   335  THR335      0.1862
    150  C          1.7440  -33.3690  -24.0070 C.2   335  THR335      0.2287
    151  O          1.3540  -33.7340  -25.1160 O.2   335  THR335     -0.2866
    152  CB         3.6080  -34.5970  -22.8590 C.3   335  THR335      0.1770
    153  OG1        5.0020  -34.5670  -22.5800 O.3   335  THR335     -0.2211
    154  CG2        3.3540  -35.8210  -23.6360 C.3   335  THR335      0.0375
    155  N          1.2080  -30.9120  -26.8940 N.3   338  GLU338     -0.1245
    156  CA         1.7120  -31.5560  -28.0890 C.3   338  GLU338      0.1567
    157  C          0.6090  -32.3820  -28.7730 C.2   338  GLU338      0.2260
    158  O          0.3170  -32.1480  -29.9290 O.2   338  GLU338     -0.2867
    159  CB         2.9240  -32.4180  -27.7310 C.3   338  GLU338      0.0388
    160  CG         3.4130  -33.3780  -28.7870 C.3   338  GLU338      0.1160
    161  CD         4.3770  -34.3560  -28.1710 C.2   338  GLU338      0.3649
    162  OE1        4.8200  -34.0520  -27.0450 O.co2 338  GLU338     -0.2457
    163  OE2        4.6840  -35.4150  -28.7800 O.co2 338  GLU338     -0.2457
    164  N         18.0710  -35.5570  -12.4190 N.3   385  GLU385     -0.1245
    165  CA        18.1840  -36.1520  -13.7410 C.3   385  GLU385      0.1567
    166  C         17.1260  -37.2080  -13.9750 C.2   385  GLU385      0.2260
    167  O         16.5290  -37.2420  -15.0360 O.2   385  GLU385     -0.2867
    168  CB        19.5630  -36.7900  -13.9320 C.3   385  GLU385      0.0388
    169  CG        20.7180  -35.8430  -13.8980 C.3   385  GLU385      0.1160
    170  CD        20.9360  -35.0790  -15.2080 C.2   385  GLU385      0.3649
    171  OE1       20.3730  -35.4810  -16.2440 O.co2 385  GLU385     -0.2457
    172  OE2       21.7060  -34.0830  -15.1980 O.co2 385  GLU385     -0.2457
    173  N         13.5260  -36.7690  -15.5340 N.3   388  PHE388     -0.1227
    174  CA        13.2820  -36.6840  -16.9730 C.3   388  PHE388      0.1736
    175  C         13.0250  -38.0530  -17.5680 C.2   388  PHE388      0.2595
    176  O         13.8520  -38.5920  -18.3040 O.2   388  PHE388     -0.2718
    177  CB        14.4490  -35.9910  -17.6710 C.3   388  PHE388      0.0547
    178  CG        14.4850  -34.5180  -17.4130 C.ar  388  PHE388     -0.0202
    179  CD1       15.1300  -34.0140  -16.2790 C.ar  388  PHE388     -0.0042
    180  CD2       13.8420  -33.6350  -18.2810 C.ar  388  PHE388     -0.0042
    181  CE1       15.1280  -32.6410  -16.0170 C.ar  388  PHE388     -0.0003
    182  CE2       13.8390  -32.2750  -18.0420 C.ar  388  PHE388     -0.0003
    183  CZ        14.4780  -31.7720  -16.9040 C.ar  388  PHE388     -0.0000
    184  N         11.8620  -38.6040  -17.2290 N.am  389  ASP389     -0.1960
    185  CA        11.4880  -39.9450  -17.6590 C.3   389  ASP389      0.1840
    186  C         10.0470  -39.9870  -18.1420 C.2   389  ASP389      0.2622
    187  O          9.3630  -38.9660  -18.1750 O.2   389  ASP389     -0.2715
    188  CB        11.7160  -40.9660  -16.5260 C.3   389  ASP389      0.1450
    189  CG        10.7680  -40.7870  -15.3190 C.2   389  ASP389      0.3671
    190  OD1        9.9530  -39.8270  -15.2570 O.co2 389  ASP389     -0.2456
    191  OD2       10.8550  -41.6440  -14.4000 O.co2 389  ASP389     -0.2456
    192  N          9.5760  -41.1670  -18.5070 N.am  390  SER390     -0.1950
    193  CA         8.2330  -41.2420  -19.0600 C.3   390  SER390      0.1924
    194  C          7.1250  -40.9460  -18.0370 C.2   390  SER390      0.2314
    195  O          6.0520  -40.5360  -18.4280 O.2   390  SER390     -0.2863
    196  CB         8.0070  -42.6070  -19.7090 C.3   390  SER390      0.2116
    197  OG         7.9820  -43.6170  -18.7260 O.3   390  SER390     -0.2180
    198  N          6.3800  -37.1410  -18.1040 N.3   393  TYR393     -0.1227
    199  CA         5.8460  -36.7480  -19.4060 C.3   393  TYR393      0.1736
    200  C          4.4820  -37.3480  -19.6840 C.2   393  TYR393      0.2595
    201  O          3.5400  -36.6230  -19.9540 O.2   393  TYR393     -0.2718
    202  CB         6.7950  -37.1510  -20.5250 C.3   393  TYR393      0.0548
    203  CG         8.0270  -36.3030  -20.6480 C.ar  393  TYR393     -0.0200
    204  CD1        9.0210  -36.3140  -19.6680 C.ar  393  TYR393     -0.0009
    205  CD2        8.2110  -35.5090  -21.7670 C.ar  393  TYR393     -0.0009
    206  CE1       10.1650  -35.5440  -19.8100 C.ar  393  TYR393      0.0417
    207  CE2        9.3210  -34.7460  -21.9200 C.ar  393  TYR393      0.0417
    208  CZ        10.3090  -34.7480  -20.9460 C.ar  393  TYR393      0.1957
    209  OH        11.4290  -33.9540  -21.1460 O.3   393  TYR393     -0.2866
    210  N          4.3730  -38.6710  -19.6220 N.am  394  PHE394     -0.1976
    211  CA         3.1690  -39.3250  -20.1060 C.3   394  PHE394      0.1639
    212  C          2.1250  -39.6070  -19.0270 C.2   394  PHE394      0.2290
    213  O          0.9360  -39.5090  -19.3010 O.2   394  PHE394     -0.2864
    214  CB         3.5450  -40.6010  -20.8550 C.3   394  PHE394      0.0560
    215  CG         4.1280  -40.3330  -22.2170 C.ar  394  PHE394     -0.0200
    216  CD1        3.3800  -39.6660  -23.1790 C.ar  394  PHE394     -0.0042
    217  CD2        5.4340  -40.7120  -22.5250 C.ar  394  PHE394     -0.0042
    218  CE1        3.9090  -39.3940  -24.4250 C.ar  394  PHE394     -0.0003
    219  CE2        5.9810  -40.4400  -23.7720 C.ar  394  PHE394     -0.0003
    220  CZ         5.2250  -39.7770  -24.7270 C.ar  394  PHE394     -0.0000
    221  N         20.8430  -39.8910  -15.9580 N.3   795  SER795     -0.1202
    222  CA        20.1330  -39.1990  -17.0000 C.3   795  SER795      0.2020
    223  C         19.3690  -40.1580  -17.9040 C.2   795  SER795      0.2619
    224  O         19.5530  -41.3780  -17.8570 O.2   795  SER795     -0.2717
    225  CB        21.1360  -38.4010  -17.8310 C.3   795  SER795      0.2103
    226  OG        22.1540  -39.2740  -18.3160 O.3   795  SER795     -0.2182
    227  N         18.5500  -39.5840  -18.7710 N.am  796  TYR796     -0.1961
    228  CA        17.6850  -40.3780  -19.6090 C.3   796  TYR796      0.1771
    229  C         18.4860  -41.3440  -20.5010 C.2   796  TYR796      0.2620
    230  O         18.1080  -42.5080  -20.6530 O.2   796  TYR796     -0.2715
    231  CB        16.7770  -39.4710  -20.4600 C.3   796  TYR796      0.0574
    232  CG        16.0140  -40.3100  -21.4210 C.ar  796  TYR796     -0.0198
    233  CD1       14.8660  -40.9850  -21.0120 C.ar  796  TYR796     -0.0009
    234  CD2       16.4860  -40.5190  -22.7190 C.ar  796  TYR796     -0.0009
    235  CE1       14.1930  -41.8070  -21.8730 C.ar  796  TYR796      0.0417
    236  CE2       15.8120  -41.3410  -23.5840 C.ar  796  TYR796      0.0417
    237  CZ        14.6720  -41.9890  -23.1560 C.ar  796  TYR796      0.1957
    238  OH        13.9890  -42.8010  -24.0270 O.3   796  TYR796     -0.2866
    239  N         19.5800  -40.8650  -21.0880 N.am  797  THR797     -0.1951
    240  CA        20.3850  -41.6870  -21.9970 C.3   797  THR797      0.1897
    241  C         20.9160  -42.9680  -21.3090 C.2   797  THR797      0.2313
    242  O         20.8350  -44.0650  -21.8670 O.2   797  THR797     -0.2863
    243  CB        21.5820  -40.8900  -22.5730 C.3   797  THR797      0.1794
    244  OG1       21.1410  -39.6080  -23.0320 O.3   797  THR797     -0.2208
    245  CG2       22.2610  -41.6560  -23.7300 C.3   797  THR797      0.0378
@<TRIPOS>BOND
     1    85    86    1
     2    78    79    1
     3    80    79    1
     4    80    81    2
     5    89    86    1
     6    89    90    1
     7    79    82    1
     8    92    90    1
     9    87    86    1
    10    87    88    2
    11    90    91    1
    12    93    94    1
    13    82    83    1
    14    82    84    1
    15   108   106    1
    16    98    99    1
    17    98    97    1
    18    94    97    1
    19    94    95    1
    20    99   100    1
    21   102    95   am
    22   102   103    1
    23    95    96    2
    24   106   103    1
    25   106   107    1
    26   104   103    1
    27   104   105    2
    28   100   101    1
    29   107   109    1
    30    55    54    2
    31   158   157    2
    32    54    53    1
    33    54    56   am
    34    60    57    1
    35    53    52    1
    36   110   111    1
    37    50    49    2
    38   125   124    1
    39   125   126    1
    40   124   121    1
    41   160   161    1
    42   160   159    1
    43   163   161   ar
    44   157   156    1
    45    57    56    1
    46    57    58    1
    47   120   121    1
    48   120   112   am
    49   161   162   ar
    50    52    49   am
    51   156   159    1
    52   156   155    1
    53    49    48    1
    54    38    39    1
    55   121   122    1
    56   111   114    1
    57   111   112    1
    58   122   123    2
    59   114   115    1
    60    41    40    2
    61   126   128   ar
    62   126   127   ar
    63   112   113    2
    64    39    40    1
    65    39    42    1
    66    64    63    2
    67    61    58   am
    68    61    62    1
    69    58    59    2
    70    40    47   am
    71    45    44   ar
    72    47    48    1
    73    48    51    1
    74   115   117   ar
    75   115   116   ar
    76    63    62    1
    77    63    69   am
    78    44    46   ar
    79    44    43    1
    80    62    65    1
    81    42    43    1
    82    65    66    1
    83   117   119   ar
    84   116   118   ar
    85    70    69    1
    86    70    71    1
    87    70    73    1
    88   151   150    2
    89    71    72    2
    90   220   218   ar
    91   220   219   ar
    92    73    74    1
    93   129   130    1
    94   218   216   ar
    95   119   118   ar
    96    20    19    2
    97    66    67    1
    98   238   237    1
    99   150   149    1
   100    17    14    1
   101    17    18    1
   102    13    14    1
   103   219   217   ar
   104   133   130    1
   105   133   134    1
   106   245   243    1
   107   149   148    1
   108   149   152    1
   109   154   152    1
   110   136   134   ar
   111   136   138   ar
   112   236   237   ar
   113   236   234   ar
   114   130   131    1
   115   131   132    2
   116    14    15    1
   117    19    18    1
   118    19    21   am
   119   216   215   ar
   120   237   235   ar
   121   134   135   ar
   122    74    75    1
   123    76    75   ar
   124   244   243    1
   125    67    68    1
   126   152   153    1
   127     1     2    1
   128   234   232   ar
   129   243   240    1
   130   138   137   ar
   131   217   215   ar
   132    75    77   ar
   133   215   214    1
   134   240   241    1
   135   240   239    1
   136   207   205   ar
   137   207   208   ar
   138   235   233   ar
   139   242   241    2
   140    15    16    2
   141   135   137   ar
   142   205   203   ar
   143     2     3    1
   144     2     5    1
   145     4     3    2
   146   232   233   ar
   147   232   231    1
   148   209   208    1
   149   239   229   am
   150   146   145   ar
   151   208   206   ar
   152   214   211    1
   153   230   229    2
   154   203   202    1
   155   203   204   ar
   156     5     6    1
   157   142   141    2
   158   202   199    1
   159   229   228    1
   160   231   228    1
   161   211   210    1
   162   211   212    1
   163   147   145   ar
   164    29    28   ar
   165   145   144    1
   166   201   200    2
   167   206   204   ar
   168   196   193    1
   169   196   197    1
   170     7     6   ar
   171     7     9   ar
   172   200   210   am
   173   200   199    1
   174   228   227    1
   175     6     8   ar
   176    22    23    1
   177   141   140    1
   178   199   198    1
   179   213   212    2
   180    25    24    2
   181    26    23    1
   182    26    27    1
   183   140   143    1
   184   140   139    1
   185   193   192    1
   186   193   194    1
   187    28    30   ar
   188    28    27    1
   189   227   223   am
   190   143   144    1
   191     9    11   ar
   192    23    24    1
   193   192   186   am
   194   195   194    2
   195   226   225    1
   196   176   175    2
   197   180   182   ar
   198   180   178   ar
   199    24    31   am
   200     8    10   ar
   201   187   186    2
   202   186   185    1
   203   182   183   ar
   204   223   224    2
   205   223   222    1
   206   225   222    1
   207   177   178    1
   208   177   174    1
   209   185   184    1
   210   185   188    1
   211   175   184   am
   212   175   174    1
   213   178   179   ar
   214    11    10   ar
   215    11    12    1
   216   222   221    1
   217    31    37    1
   218    31    32    1
   219   174   173    1
   220   183   181   ar
   221    37    36    1
   222   188   189    1
   223   179   181   ar
   224   171   170   ar
   225    32    33    1
   226    32    35    1
   227   189   190   ar
   228   189   191   ar
   229   170   172   ar
   230   170   169    1
   231    36    35    1
   232    33    34    2
   233   167   166    2
   234   166   165    1
   235   168   169    1
   236   168   165    1
   237   165   164    1
