@<TRIPOS>MOLECULE
tmp/5mj6A03.pdb
 89 87 0 0 0
SMALL
GASTEIGER

@<TRIPOS>ATOM
      1  N         34.1790  -15.2320  -24.2860 N.3    26  HIS26      -0.1227
      2  CA        35.0530  -15.3440  -25.4320 C.3    26  HIS26       0.1737
      3  C         35.4050  -16.8080  -25.6690 C.2    26  HIS26       0.2438
      4  O         36.4100  -17.3200  -25.1520 O.2    26  HIS26      -0.2733
      5  CB        36.3020  -14.5140  -25.2300 C.3    26  HIS26       0.0758
      6  CG        37.1270  -14.3790  -26.4610 C.ar   26  HIS26       0.0818
      7  ND1       38.2280  -13.5540  -26.5310 N.ar   26  HIS26      -0.2268
      8  CD2       37.0210  -14.9730  -27.6680 C.ar   26  HIS26       0.1154
      9  CE1       38.7620  -13.6390  -27.7340 C.ar   26  HIS26       0.1986
     10  NE2       38.0540  -14.4990  -28.4420 N.ar   26  HIS26      -0.2212
     11  N         34.5470  -17.4970  -26.4300 N.am   27  PRO27      -0.2718
     12  CA        34.7740  -18.8880  -26.8120 C.3    27  PRO27       0.1535
     13  C         35.8480  -19.0090  -27.8810 C.2    27  PRO27       0.2599
     14  O         35.8690  -18.2480  -28.8460 O.2    27  PRO27      -0.2715
     15  CB        33.4180  -19.3300  -27.3670 C.3    27  PRO27       0.0310
     16  CG        32.4550  -18.2200  -27.0470 C.3    27  PRO27       0.0237
     17  CD        33.2670  -16.9860  -26.9460 C.3    27  PRO27       0.0939
     18  N         36.7470  -19.9630  -27.7180 N.am   28  ASN28      -0.1959
     19  CA        37.5710  -20.3260  -28.8450 C.3    28  ASN28       0.1819
     20  C         37.3200  -21.7600  -29.2800 C.2    28  ASN28       0.2621
     21  O         37.7750  -22.7110  -28.6430 O.2    28  ASN28      -0.2715
     22  CB        39.0570  -20.1290  -28.5590 C.3    28  ASN28       0.1195
     23  CG        39.8510  -20.2140  -29.8220 C.2    28  ASN28       0.2630
     24  OD1       40.2890  -21.2910  -30.2220 O.2    28  ASN28      -0.2716
     25  ND2       39.9950  -19.0740  -30.4980 N.am   28  ASN28      -0.0877
     26  N         36.6080  -21.9080  -30.3810 N.am   29  LEU29      -0.1963
     27  CA        36.1330  -23.2190  -30.7740 C.3    29  LEU29       0.1728
     28  C         37.3090  -24.1200  -31.1320 C.2    29  LEU29       0.2617
     29  O         37.2970  -25.3190  -30.8520 O.2    29  LEU29      -0.2715
     30  CB        35.1460  -23.0990  -31.9360 C.3    29  LEU29       0.0311
     31  CG        33.7090  -22.7070  -31.5500 C.3    29  LEU29       0.0022
     32  CD1       33.6600  -21.3580  -30.8580 C.3    29  LEU29       0.0001
     33  CD2       32.7860  -22.6950  -32.7530 C.3    29  LEU29       0.0001
     34  N         38.3420  -23.5190  -31.7130 N.am   30  THR30      -0.1937
     35  CA        39.5470  -24.2370  -32.1210 C.3    30  THR30       0.2028
     36  C         40.2660  -24.8710  -30.9350 C.2    30  THR30       0.2642
     37  O         40.4310  -26.0870  -30.8830 O.2    30  THR30      -0.2714
     38  CB        40.5070  -23.2980  -32.8820 C.3    30  THR30       0.1808
     39  OG1       39.9750  -23.0810  -34.1910 O.3    30  THR30      -0.2208
     40  CG2       41.9200  -23.8860  -32.9910 C.3    30  THR30       0.0379
     41  N         40.6830  -24.0470  -29.9840 N.am   31  SER31      -0.1949
     42  CA        41.3410  -24.5370  -28.7840 C.3    31  SER31       0.1924
     43  C         40.3710  -25.1670  -27.7750 C.2    31  SER31       0.2314
     44  O         40.8270  -25.7430  -26.7950 O.2    31  SER31      -0.2863
     45  CB        42.0980  -23.3970  -28.1020 C.3    31  SER31       0.2116
     46  OG        41.2050  -22.5640  -27.3760 O.3    31  SER31      -0.2180
     47  N         31.9750  -13.0490  -28.0950 N.3   164  ILE164     -0.1231
     48  CA        32.9660  -12.7040  -29.1040 C.3   164  ILE164      0.1692
     49  C         33.1480  -13.8850  -30.0450 C.2   164  ILE164      0.2592
     50  O         33.3380  -15.0160  -29.6150 O.2   164  ILE164     -0.2718
     51  CB        34.2800  -12.3160  -28.4710 C.3   164  ILE164      0.0266
     52  CG1       34.1300  -10.9580  -27.7830 C.3   164  ILE164      0.0019
     53  CG2       35.3850  -12.3280  -29.5100 C.3   164  ILE164      0.0020
     54  CD1       35.3050  -10.5980  -26.9050 C.3   164  ILE164      0.0001
     55  N         33.0450  -13.6240  -31.3380 N.am  165  ARG165     -0.1966
     56  CA        33.0410  -14.6920  -32.3140 C.3   165  ARG165      0.1729
     57  C         33.8650  -14.3070  -33.5380 C.2   165  ARG165      0.2616
     58  O         34.0080  -13.1260  -33.8620 O.2   165  ARG165     -0.2715
     59  CB        31.6180  -15.0070  -32.7460 C.3   165  ARG165      0.0348
     60  CG        30.9870  -13.8110  -33.4340 C.3   165  ARG165      0.0492
     61  CD        29.8320  -14.1790  -34.3170 C.3   165  ARG165      0.2205
     62  NE        29.8030  -13.3430  -35.5210 N.pl3 165  ARG165     -0.0865
     63  CZ        29.1360  -12.2000  -35.6230 C.cat 165  ARG165      0.5346
     64  NH1       28.4550  -11.7330  -34.6110 N.pl3 165  ARG165      0.1354
     65  NH2       29.1410  -11.5180  -36.7410 N.pl3 165  ARG165      0.1354
     66  N         34.3880  -15.3140  -34.2300 N.am  166  ASP166     -0.1971
     67  CA        35.0100  -15.1000  -35.5370 C.3   166  ASP166      0.1709
     68  C         33.9570  -14.5910  -36.5170 C.2   166  ASP166      0.2293
     69  O         32.8130  -15.0550  -36.5030 O.2   166  ASP166     -0.2864
     70  CB        35.6450  -16.3850  -36.0830 C.3   166  ASP166      0.1436
     71  CG        36.9470  -16.7520  -35.3730 C.2   166  ASP166      0.3671
     72  OD1       37.9730  -16.0660  -35.5940 O.co2 166  ASP166     -0.2456
     73  OD2       36.9410  -17.7410  -34.5920 O.co2 166  ASP166     -0.2456
     74  N         41.9620   -8.4220  -35.1220 N.3   185  ASP185     -0.1239
     75  CA        41.9500   -9.7090  -35.8000 C.3   185  ASP185      0.1674
     76  C         40.5930   -9.8370  -36.4770 C.2   185  ASP185      0.2266
     77  O         39.9150   -8.8280  -36.7130 O.2   185  ASP185     -0.2867
     78  CB        42.2620  -10.8350  -34.8180 C.3   185  ASP185      0.1410
     79  CG        43.5920  -10.5920  -34.0870 C.2   185  ASP185      0.3668
     80  OD1       44.6060  -10.3750  -34.7870 O.co2 185  ASP185     -0.2456
     81  OD2       43.6320  -10.5720  -32.8300 O.co2 185  ASP185     -0.2456
     82  N         37.6940  -10.5830  -35.4880 N.3   187  LEU187     -0.1245
     83  CA        36.7370  -10.8290  -34.3950 C.3   187  LEU187      0.1561
     84  C         35.5930   -9.8230  -34.3480 C.2   187  LEU187      0.2260
     85  O         35.7420   -8.6430  -34.6990 O.2   187  LEU187     -0.2867
     86  CB        37.4400  -10.8380  -33.0320 C.3   187  LEU187      0.0270
     87  CG        38.5070  -11.9200  -32.9150 C.3   187  LEU187      0.0019
     88  CD1       39.0090  -12.1250  -31.4980 C.3   187  LEU187      0.0001
     89  CD2       38.0280  -13.2260  -33.5400 C.3   187  LEU187      0.0001
@<TRIPOS>BOND
     1    65    63    1
     2    77    76    2
     3    68    69    2
     4    68    67    1
     5    76    75    1
     6    70    67    1
     7    70    71    1
     8    75    74    1
     9    75    78    1
    10    63    62    2
    11    63    64    1
    12    72    71   ar
    13    67    66    1
    14    62    61    1
    15    82    83    1
    16    71    73   ar
    17    78    79    1
    18    80    79   ar
    19    85    84    2
    20    83    84    1
    21    83    86    1
    22    61    60    1
    23    66    57   am
    24    39    38    1
    25    79    81   ar
    26    58    57    2
    27    89    87    1
    28    57    56    1
    29    60    59    1
    30    86    87    1
    31    40    38    1
    32    87    88    1
    33    38    35    1
    34    33    31    1
    35    59    56    1
    36    56    55    1
    37    35    34    1
    38    35    36    1
    39    30    31    1
    40    30    27    1
    41    34    28   am
    42    31    32    1
    43    55    49   am
    44    28    29    2
    45    28    27    1
    46    36    37    2
    47    36    41   am
    48    27    26    1
    49    25    23   am
    50    26    20   am
    51    24    23    2
    52    49    50    2
    53    49    48    1
    54    41    42    1
    55    23    22    1
    56    53    51    1
    57    20    19    1
    58    20    21    2
    59    48    51    1
    60    48    47    1
    61    14    13    2
    62    19    22    1
    63    19    18    1
    64    42    45    1
    65    42    43    1
    66    51    52    1
    67    10     9   ar
    68    10     8   ar
    69    45    46    1
    70    13    18   am
    71    13    12    1
    72    52    54    1
    73    43    44    2
    74     9     7   ar
    75     8     6   ar
    76    15    16    1
    77    15    12    1
    78    16    17    1
    79    17    11    1
    80    12    11    1
    81     7     6   ar
    82     6     5    1
    83    11     3   am
    84     3     2    1
    85     3     4    2
    86     2     5    1
    87     2     1    1
