@<TRIPOS>MOLECULE
tmp/5mj7A00.pdb
 129 122 0 0 0
SMALL
GASTEIGER

@<TRIPOS>ATOM
      1  N         11.7090   38.3660   72.8010 N.3    10  ASP10      -0.1239
      2  CA        10.7000   38.5030   71.7450 C.3    10  ASP10       0.1674
      3  C         10.4120   37.1890   71.0230 C.2    10  ASP10       0.2266
      4  O          9.6590   37.1740   70.0620 O.2    10  ASP10      -0.2867
      5  CB        11.0560   39.6150   70.7560 C.3    10  ASP10       0.1410
      6  CG        12.3690   39.3840   70.0130 C.2    10  ASP10       0.3668
      7  OD1       13.2260   38.5990   70.4490 O.co2  10  ASP10      -0.2456
      8  OD2       12.5870   40.0640   68.9750 O.co2  10  ASP10      -0.2456
      9  N         11.5190   34.6370   69.0210 N.3    12  VAL12      -0.1245
     10  CA        11.7000   34.0890   67.6640 C.3    12  VAL12       0.1561
     11  C         12.7450   32.9610   67.6740 C.2    12  VAL12       0.2260
     12  O         13.0880   32.4530   68.7200 O.2    12  VAL12      -0.2867
     13  CB        11.9280   35.1800   66.6060 C.3    12  VAL12       0.0252
     14  CG1       10.6760   36.1010   66.5840 C.3    12  VAL12       0.0019
     15  CG2       13.2520   35.9920   66.8300 C.3    12  VAL12       0.0019
     16  N         15.9570   32.0920   67.3320 N.3    14  ASP14      -0.1225
     17  CA        17.1010   31.9800   68.2280 C.3    14  ASP14       0.1805
     18  C         16.7150   32.1360   69.6890 C.2    14  ASP14       0.2597
     19  O         17.3000   31.4790   70.5420 O.2    14  ASP14      -0.2718
     20  CB        18.2880   32.8760   67.8310 C.3    14  ASP14       0.1424
     21  CG        17.9680   34.3500   67.8050 C.2    14  ASP14       0.3668
     22  OD1       16.8420   34.7350   67.4320 O.co2  14  ASP14      -0.2456
     23  OD2       18.8930   35.1320   68.1580 O.co2  14  ASP14      -0.2456
     24  N         15.7540   33.0060   69.9930 N.am   15  ASP15      -0.1974
     25  CA        15.2450   33.1160   71.3600 C.3    15  ASP15       0.1709
     26  C         14.7930   31.7660   71.8830 C.2    15  ASP15       0.2293
     27  O         15.0610   31.4120   73.0280 O.2    15  ASP15      -0.2864
     28  CB        14.0460   34.0240   71.4610 C.3    15  ASP15       0.1436
     29  CG        14.3570   35.4590   71.0570 C.2    15  ASP15       0.3671
     30  OD1       14.5130   35.6960   69.8470 O.co2  15  ASP15      -0.2456
     31  OD2       14.5250   36.3110   71.9720 O.co2  15  ASP15      -0.2456
     32  N         10.7720   41.1510   66.9850 N.3    39  CYS39      -0.1235
     33  CA        10.6850   40.6330   65.6250 C.3    39  CYS39       0.1677
     34  C          9.2480   40.1670   65.3360 C.2    39  CYS39       0.2270
     35  O          8.8010   40.1730   64.1750 O.2    39  CYS39      -0.2867
     36  CB        11.6860   39.4910   65.4790 C.3    39  CYS39       0.0956
     37  SG        11.8100   38.7770   63.8410 S.3    39  CYS39      -0.0801
     38  N         11.7500   34.7320   59.8930 N.3    84  PHE84      -0.1241
     39  CA        11.7630   33.3980   60.4820 C.3    84  PHE84       0.1605
     40  C         10.4080   32.7200   60.3610 C.2    84  PHE84       0.2264
     41  O         10.1960   31.6540   60.9510 O.2    84  PHE84      -0.2867
     42  CB        12.1120   33.4530   61.9650 C.3    84  PHE84       0.0534
     43  CG        13.4170   34.1010   62.2610 C.ar   84  PHE84      -0.0203
     44  CD1       14.6090   33.4710   61.9280 C.ar   84  PHE84      -0.0042
     45  CD2       13.4550   35.3960   62.7730 C.ar   84  PHE84      -0.0042
     46  CE1       15.8250   34.0910   62.2060 C.ar   84  PHE84      -0.0003
     47  CE2       14.6530   36.0290   63.0180 C.ar   84  PHE84      -0.0003
     48  CZ        15.8400   35.3700   62.7530 C.ar   84  PHE84      -0.0000
     49  N         17.0090   39.5060   75.5470 N.3   130  ILE130     -0.1245
     50  CA        17.2970   39.0320   74.1970 C.3   130  ILE130      0.1561
     51  C         16.2930   39.5620   73.1800 C.2   130  ILE130      0.2260
     52  O         16.2470   39.1150   72.0190 O.2   130  ILE130     -0.2867
     53  CB        17.4620   37.4810   74.1310 C.3   130  ILE130      0.0252
     54  CG1       16.2780   36.7560   74.7780 C.3   130  ILE130      0.0019
     55  CG2       18.7990   37.1020   74.7730 C.3   130  ILE130      0.0019
     56  CD1       16.3660   35.2030   74.6230 C.3   130  ILE130      0.0001
     57  N         21.7390   41.0730   75.1820 N.3   156  MET156     -0.1245
     58  CA        22.0470   40.7980   73.7870 C.3   156  MET156      0.1570
     59  C         21.6450   41.9990   72.9520 C.2   156  MET156      0.2261
     60  O         20.4570   42.2670   72.7780 O.2   156  MET156     -0.2867
     61  CB        21.2490   39.5850   73.3380 C.3   156  MET156      0.0387
     62  CG        21.3050   39.3190   71.8790 C.3   156  MET156      0.0595
     63  SD        22.9990   39.0080   71.2870 S.3   156  MET156     -0.1393
     64  CE        23.4760   37.6300   72.2830 C.3   156  MET156      0.0692
     65  N         23.3230   45.9570   62.0050 N.3   165  ASN165     -0.1240
     66  CA        22.8510   44.7280   61.3960 C.3   165  ASN165      0.1653
     67  C         21.3770   44.7730   61.0110 C.2   165  ASN165      0.2266
     68  O         20.7360   43.7080   60.8560 O.2   165  ASN165     -0.2867
     69  CB        23.1660   43.5110   62.2700 C.3   165  ASN165      0.1155
     70  CG        22.3380   43.4290   63.5070 C.2   165  ASN165      0.2627
     71  OD1       21.6930   44.4090   63.9160 O.2   165  ASN165     -0.2716
     72  ND2       22.3150   42.2460   64.1300 N.am  165  ASN165     -0.0877
     73  N         22.3760   48.2270   66.0250 N.3   173  GLU173     -0.1231
     74  CA        22.0810   46.8090   66.1210 C.3   173  GLU173      0.1699
     75  C         20.5720   46.6080   66.3560 C.2   173  GLU173      0.2592
     76  O         19.8730   47.5010   66.8030 O.2   173  GLU173     -0.2718
     77  CB        22.9100   46.2440   67.2820 C.3   173  GLU173      0.0402
     78  CG        22.5990   44.8240   67.6710 C.3   173  GLU173      0.1161
     79  CD        21.3190   44.6710   68.5220 C.2   173  GLU173      0.3649
     80  OE1       20.9440   45.6310   69.2170 O.co2 173  GLU173     -0.2457
     81  OE2       20.6730   43.5860   68.4200 O.co2 173  GLU173     -0.2457
     82  N         20.0730   45.4440   65.9570 N.am  174  TYR174     -0.1962
     83  CA        18.6550   45.1640   65.8390 C.3   174  TYR174      0.1771
     84  C         17.8300   45.4550   67.1200 C.2   174  TYR174      0.2619
     85  O         16.7880   46.0870   67.0470 O.2   174  TYR174     -0.2715
     86  CB        18.5540   43.6810   65.4870 C.3   174  TYR174      0.0574
     87  CG        17.1700   43.2350   65.1120 C.ar  174  TYR174     -0.0198
     88  CD1       16.6950   43.3480   63.8260 C.ar  174  TYR174     -0.0009
     89  CD2       16.3190   42.7830   66.1010 C.ar  174  TYR174     -0.0009
     90  CE1       15.3700   42.9330   63.5270 C.ar  174  TYR174      0.0417
     91  CE2       15.0380   42.4300   65.8360 C.ar  174  TYR174      0.0417
     92  CZ        14.5620   42.4920   64.5660 C.ar  174  TYR174      0.1957
     93  OH        13.2690   41.9790   64.3590 O.3   174  TYR174     -0.2866
     94  N         18.2010   44.8410   68.2440 N.am  175  ASN175     -0.1972
     95  CA        17.4250   45.0420   69.4710 C.3   175  ASN175      0.1688
     96  C         17.4340   46.4830   69.9640 C.2   175  ASN175      0.2292
     97  O         16.4010   47.0010   70.4230 O.2   175  ASN175     -0.2864
     98  CB        17.8960   44.1220   70.5960 C.3   175  ASN175      0.1181
     99  CG        17.4830   42.6590   70.3590 C.2   175  ASN175      0.2629
    100  OD1       16.5150   42.3890   69.6690 O.2   175  ASN175     -0.2716
    101  ND2       18.2490   41.7390   70.9030 N.am  175  ASN175     -0.0877
    102  N         26.9980   43.1720   68.6390 N.3   199  TRP199     -0.1241
    103  CA        26.9740   42.5610   67.3360 C.3   199  TRP199      0.1605
    104  C         28.3490   42.1910   66.7850 C.2   199  TRP199      0.2264
    105  O         28.4850   41.1350   66.1050 O.2   199  TRP199     -0.2867
    106  CB        26.2080   43.4410   66.3630 C.3   199  TRP199      0.0550
    107  CG        26.1580   42.9150   64.9740 C.ar  199  TRP199      0.0003
    108  CD1       26.6490   43.5180   63.8800 C.ar  199  TRP199      0.0946
    109  CD2       25.6420   41.6540   64.5370 C.ar  199  TRP199      0.0152
    110  NE1       26.5080   42.7150   62.7800 N.ar  199  TRP199     -0.2442
    111  CE2       25.8960   41.5600   63.1620 C.ar  199  TRP199      0.0810
    112  CE3       24.9920   40.5970   65.1740 C.ar  199  TRP199      0.0012
    113  CZ2       25.4660   40.4690   62.3920 C.ar  199  TRP199      0.0191
    114  CZ3       24.5830   39.5070   64.3950 C.ar  199  TRP199      0.0001
    115  CH2       24.8890   39.4390   63.0590 C.ar  199  TRP199      0.0015
    116  N         22.9290   33.1870   67.9260 N.3   250  CYS250     -0.1221
    117  CA        22.9300   34.6000   68.3290 C.3   250  CYS250      0.1808
    118  C         22.4860   34.7460   69.7720 C.2   250  CYS250      0.2601
    119  O         23.3310   34.6820   70.6730 O.2   250  CYS250     -0.2717
    120  CB        22.0800   35.4700   67.4250 C.3   250  CYS250      0.0970
    121  SG        22.2510   37.2280   67.8770 S.3   250  CYS250     -0.0800
    122  N         21.1840   34.7370   70.0280 N.am  251  ASP251     -0.1973
    123  CA        20.6690   34.9490   71.3860 C.3   251  ASP251      0.1709
    124  C         21.1590   33.8860   72.3640 C.2   251  ASP251      0.2293
    125  O         21.2620   34.1210   73.5760 O.2   251  ASP251     -0.2864
    126  CB        19.1430   35.0060   71.4120 C.3   251  ASP251      0.1436
    127  CG        18.5570   36.3000   70.8200 C.2   251  ASP251      0.3671
    128  OD1       19.3490   37.1840   70.3630 O.co2 251  ASP251     -0.2456
    129  OD2       17.3130   36.3830   70.7390 O.co2 251  ASP251     -0.2456
@<TRIPOS>BOND
     1    38    39    1
     2    40    39    1
     3    40    41    2
     4    39    42    1
     5    68    67    2
     6    67    66    1
     7    66    65    1
     8    66    69    1
     9    44    46   ar
    10    44    43   ar
    11    42    43    1
    12    46    48   ar
    13    43    45   ar
    14    69    70    1
    15   113   115   ar
    16   113   111   ar
    17    48    47   ar
    18    45    47   ar
    19   110   111   ar
    20   110   108   ar
    21   115   114   ar
    22   111   109   ar
    23    70    71    2
    24    70    72   am
    25    90    88   ar
    26    90    92   ar
    27    88    87   ar
    28    37    36    1
    29   108   107   ar
    30    35    34    2
    31    93    92    1
    32   114   112   ar
    33   109   107   ar
    34   109   112   ar
    35    92    91   ar
    36   107   106    1
    37    87    86    1
    38    87    89   ar
    39    34    33    1
    40    36    33    1
    41    86    83    1
    42    33    32    1
    43    91    89   ar
    44    83    82    1
    45    83    84    1
    46    82    75   am
    47    73    74    1
    48   105   104    2
    49    74    75    1
    50    74    77    1
    51    75    76    2
    52   106   103    1
    53    14    13    1
    54    13    15    1
    55    13    10    1
    56   104   103    1
    57    85    84    2
    58    84    94   am
    59    77    78    1
    60    16    17    1
    61   103   102    1
    62   120   121    1
    63   120   117    1
    64    22    21   ar
    65    10    11    1
    66    10     9    1
    67    78    79    1
    68    11    12    2
    69    21    20    1
    70    21    23   ar
    71    20    17    1
    72   116   117    1
    73    17    18    1
    74    94    95    1
    75   117   118    1
    76    81    79   ar
    77    79    80   ar
    78     8     6   ar
    79    95    96    1
    80    95    98    1
    81   100    99    2
    82    18    24   am
    83    18    19    2
    84   118   122   am
    85   118   119    2
    86    30    29   ar
    87    96    97    2
    88    24    25    1
    89     6     7   ar
    90     6     5    1
    91   122   123    1
    92     4     3    2
    93    99    98    1
    94    99   101   am
    95   128   127   ar
    96   129   127   ar
    97     5     2    1
    98   127   126    1
    99     3     2    1
   100    29    28    1
   101    29    31   ar
   102    63    62    1
   103    63    64    1
   104    25    28    1
   105    25    26    1
   106   123   126    1
   107   123   124    1
   108     2     1    1
   109    62    61    1
   110    26    27    2
   111    52    51    2
   112   124   125    2
   113    60    59    2
   114    59    58    1
   115    51    50    1
   116    61    58    1
   117    58    57    1
   118    53    50    1
   119    53    55    1
   120    53    54    1
   121    50    49    1
   122    56    54    1
