@<TRIPOS>MOLECULE
tmp/5mjbB00.pdb
 138 127 0 0 0
SMALL
GASTEIGER

@<TRIPOS>ATOM
      1  N        -38.7920   54.6890    5.1110 N.3    18  ILE18      -0.1231
      2  CA       -38.5530   54.6340    3.6600 C.3    18  ILE18       0.1692
      3  C        -39.3230   53.4870    2.9810 C.2    18  ILE18       0.2592
      4  O        -39.3170   53.3740    1.7500 O.2    18  ILE18      -0.2718
      5  CB       -37.0320   54.6130    3.3060 C.3    18  ILE18       0.0266
      6  CG1      -36.2900   53.4450    4.0160 C.3    18  ILE18       0.0019
      7  CG2      -36.4020   55.9890    3.5800 C.3    18  ILE18       0.0020
      8  CD1      -34.8410   53.1670    3.5480 C.3    18  ILE18       0.0001
      9  N        -39.9720   52.6560    3.7890 N.am   19  GLY19      -0.1957
     10  CA       -40.7530   51.5280    3.3030 C.3    19  GLY19       0.1869
     11  C        -41.3490   50.6610    4.3900 C.2    19  GLY19       0.2309
     12  O        -41.2470   50.9690    5.5830 O.2    19  GLY19      -0.2863
     13  N        -39.0810   49.8480    7.3160 N.3    26  VAL26      -0.1245
     14  CA       -37.7270   50.0590    6.8680 C.3    26  VAL26       0.1561
     15  C        -37.5040   51.5690    7.0370 C.2    26  VAL26       0.2260
     16  O        -38.3260   52.3720    6.5930 O.2    26  VAL26      -0.2867
     17  CB       -37.4410   49.5410    5.4210 C.3    26  VAL26       0.0252
     18  CG1      -35.9650   49.7050    5.0570 C.3    26  VAL26       0.0019
     19  CG2      -37.8670   48.0840    5.2580 C.3    26  VAL26       0.0019
     20  N        -29.9030   51.7190    5.6570 N.3    41  ALA41      -0.1245
     21  CA       -31.3150   51.3670    5.7320 C.3    41  ALA41       0.1562
     22  C        -31.4140   50.4140    6.9130 C.2    41  ALA41       0.2260
     23  O        -30.4800   49.6670    7.1790 O.2    41  ALA41      -0.2867
     24  CB       -31.7890   50.6970    4.4630 C.3    41  ALA41       0.0290
     25  N        -33.9580   47.6460    8.8970 N.3    43  LYS43      -0.1245
     26  CA       -35.1590   46.8090    8.9750 C.3    43  LYS43       0.1561
     27  C        -35.3910   46.5540   10.4530 C.2    43  LYS43       0.2260
     28  O        -34.4580   46.1670   11.1540 O.2    43  LYS43      -0.2867
     29  CB       -34.9570   45.4660    8.2580 C.3    43  LYS43       0.0271
     30  CG       -35.7820   45.2910    7.0100 C.3    43  LYS43       0.0035
     31  CD       -35.7410   43.8560    6.5080 C.3    43  LYS43       0.0206
     32  CE       -36.1800   43.7630    5.0610 C.3    43  LYS43       0.1093
     33  NZ       -36.1330   42.3700    4.5080 N.3    43  LYS43      -0.1314
     34  N        -32.6990   35.9790    8.1110 N.3    60  GLU60      -0.1245
     35  CA       -32.3220   36.7690    6.9240 C.3    60  GLU60       0.1567
     36  C        -30.9230   37.3550    7.1560 C.2    60  GLU60       0.2260
     37  O        -30.0840   37.2490    6.2760 O.2    60  GLU60      -0.2867
     38  CB       -33.3320   37.8890    6.5860 C.3    60  GLU60       0.0388
     39  CG       -33.2280   38.3210    5.1210 C.3    60  GLU60       0.1160
     40  CD       -33.5440   39.7450    4.6740 C.2    60  GLU60       0.3649
     41  OE1      -34.2250   40.4860    5.4170 O.co2  60  GLU60      -0.2457
     42  OE2      -33.1500   40.0990    3.5370 O.co2  60  GLU60      -0.2457
     43  N        -27.5690   36.7560    5.0100 N.3    64  MET64      -0.1245
     44  CA       -26.8830   37.9650    4.5210 C.3    64  MET64       0.1570
     45  C        -25.4330   38.1140    4.9680 C.2    64  MET64       0.2261
     46  O        -24.5980   38.6230    4.2230 O.2    64  MET64      -0.2867
     47  CB       -27.6350   39.1990    4.9650 C.3    64  MET64       0.0387
     48  CG       -28.8400   39.4750    4.1440 C.3    64  MET64       0.0595
     49  SD       -29.6920   40.9100    4.7820 S.3    64  MET64      -0.1393
     50  CE       -28.6850   42.1300    4.1790 C.3    64  MET64       0.0692
     51  N        -26.8510   42.9720   -1.4710 N.3    73  ILE73      -0.1245
     52  CA       -27.0320   43.9890   -0.4330 C.3    73  ILE73       0.1561
     53  C        -26.1470   43.6690    0.7900 C.2    73  ILE73       0.2260
     54  O        -26.1320   42.5520    1.2750 O.2    73  ILE73      -0.2867
     55  CB       -28.5420   44.2430   -0.1040 C.3    73  ILE73       0.0252
     56  CG1      -28.7520   45.5910    0.5470 C.3    73  ILE73       0.0019
     57  CG2      -29.2160   43.1440    0.6860 C.3    73  ILE73       0.0019
     58  CD1      -28.7110   46.6460   -0.4180 C.3    73  ILE73       0.0001
     59  N        -31.7470   45.0200   11.4650 N.3    87  ILE87      -0.1245
     60  CA       -30.8920   44.5290   10.3810 C.3    87  ILE87       0.1561
     61  C        -30.4950   45.8090    9.6290 C.2    87  ILE87       0.2260
     62  O        -31.3660   46.5100    9.1000 O.2    87  ILE87      -0.2867
     63  CB       -31.5790   43.4890    9.4400 C.3    87  ILE87       0.0252
     64  CG1      -31.9930   42.2140   10.2100 C.3    87  ILE87       0.0019
     65  CG2      -30.6510   43.1420    8.2400 C.3    87  ILE87       0.0019
     66  CD1      -32.6400   41.1170    9.3090 C.3    87  ILE87       0.0001
     67  N        -28.3180   47.6880    6.6220 N.3    89  THR89      -0.1203
     68  CA       -27.6830   47.4870    5.3240 C.3    89  THR89       0.1994
     69  C        -27.2350   48.8020    4.7100 C.2    89  THR89       0.2618
     70  O        -27.6110   49.8560    5.1900 O.2    89  THR89      -0.2717
     71  CB       -28.6530   46.7850    4.3440 C.3    89  THR89       0.1784
     72  OG1      -29.7900   47.6280    4.0820 O.3    89  THR89      -0.2211
     73  CG2      -29.0940   45.4350    4.8340 C.3    89  THR89       0.0376
     74  N        -26.4660   48.7410    3.6140 N.am   90  GLU90      -0.1965
     75  CA       -26.0760   49.9370    2.8810 C.3    90  GLU90       0.1733
     76  C        -27.3450   50.6200    2.3120 C.2    90  GLU90       0.2616
     77  O        -28.2950   49.9390    1.8970 O.2    90  GLU90      -0.2715
     78  CB       -25.1020   49.5710    1.7510 C.3    90  GLU90       0.0429
     79  CG       -25.6610   48.5240    0.8020 C.3    90  GLU90       0.1163
     80  CD       -24.7350   48.1230   -0.3180 C.2    90  GLU90       0.3649
     81  OE1      -24.3260   49.0060   -1.1040 O.co2  90  GLU90      -0.2457
     82  OE2      -24.4540   46.9120   -0.4310 O.co2  90  GLU90      -0.2457
     83  N        -27.3760   51.9480    2.3330 N.am   91  PHE91      -0.1960
     84  CA       -28.5430   52.6820    1.8620 C.3    91  PHE91       0.1771
     85  C        -28.6160   52.6910    0.3230 C.2    91  PHE91       0.2619
     86  O        -27.6150   52.9610   -0.3420 O.2    91  PHE91      -0.2715
     87  CB       -28.5720   54.0890    2.4640 C.3    91  PHE91       0.0574
     88  CG       -29.7260   54.9400    2.0060 C.ar   91  PHE91      -0.0200
     89  CD1      -31.0340   54.6040    2.3380 C.ar   91  PHE91      -0.0042
     90  CD2      -29.5080   56.0770    1.2330 C.ar   91  PHE91      -0.0042
     91  CE1      -32.1020   55.3880    1.9030 C.ar   91  PHE91      -0.0003
     92  CE2      -30.5820   56.8600    0.7990 C.ar   91  PHE91      -0.0003
     93  CZ       -31.8680   56.5100    1.1380 C.ar   91  PHE91      -0.0000
     94  N        -29.7730   52.2880   -0.2270 N.am   92  MET92      -0.1963
     95  CA       -30.0040   52.2070   -1.6580 C.3    92  MET92       0.1736
     96  C        -30.9590   53.3010   -2.0090 C.2    92  MET92       0.2616
     97  O        -32.1720   53.1060   -1.9860 O.2    92  MET92      -0.2715
     98  CB       -30.5540   50.8280   -2.0430 C.3    92  MET92       0.0427
     99  CG       -29.6990   49.6710   -1.5440 C.3    92  MET92       0.0599
    100  SD       -28.0320   49.5720   -2.2520 S.3    92  MET92      -0.1393
    101  CE       -28.4080   49.0930   -3.9150 C.3    92  MET92       0.0692
    102  N        -30.3960   54.4780   -2.2990 N.am   93  GLU93      -0.1977
    103  CA       -31.1030   55.7150   -2.6000 C.3    93  GLU93       0.1602
    104  C        -32.1460   55.6260   -3.7240 C.2    93  GLU93       0.2287
    105  O        -33.1740   56.2940   -3.6270 O.2    93  GLU93      -0.2864
    106  CB       -30.0990   56.8320   -2.9020 C.3    93  GLU93       0.0415
    107  CG       -30.6790   58.2200   -2.6820 C.3    93  GLU93       0.1163
    108  CD       -29.7310   59.3830   -2.8850 C.2    93  GLU93       0.3649
    109  OE1      -28.9570   59.3650   -3.8710 O.co2  93  GLU93      -0.2457
    110  OE2      -29.8060   60.3430   -2.0830 O.co2  93  GLU93      -0.2457
    111  N        -33.9750   53.0830   -4.5500 N.3    95  CYS95      -0.1235
    112  CA       -35.0030   52.1210   -4.1530 C.3    95  CYS95       0.1677
    113  C        -35.0850   50.8880   -5.0740 C.2    95  CYS95       0.2270
    114  O        -34.0720   50.4750   -5.6160 O.2    95  CYS95      -0.2867
    115  CB       -36.3600   52.8190   -4.0080 C.3    95  CYS95       0.0956
    116  SG       -36.2660   54.5140   -3.3480 S.3    95  CYS95      -0.0801
    117  N        -32.5110   46.2790   -5.5030 N.3   143  LEU143     -0.1245
    118  CA       -32.3550   47.6620   -5.0450 C.3   143  LEU143      0.1561
    119  C        -31.2590   48.3290   -5.8230 C.2   143  LEU143      0.2260
    120  O        -30.3520   47.6570   -6.3100 O.2   143  LEU143     -0.2867
    121  CB       -32.0760   47.7390   -3.5440 C.3   143  LEU143      0.0270
    122  CG       -33.2060   47.2830   -2.6020 C.3   143  LEU143      0.0019
    123  CD1      -32.6530   46.9970   -1.2290 C.3   143  LEU143      0.0001
    124  CD2      -34.3420   48.3170   -2.5350 C.3   143  LEU143      0.0001
    125  N        -31.5510   41.5490   -3.0620 N.3   153  SER153     -0.1202
    126  CA       -31.9870   41.7040   -1.6780 C.3   153  SER153      0.2020
    127  C        -33.1570   40.7260   -1.3790 C.2   153  SER153      0.2618
    128  O        -33.4610   39.8450   -2.2040 O.2   153  SER153     -0.2717
    129  CB       -32.4120   43.1550   -1.4280 C.3   153  SER153      0.2103
    130  OG       -33.6090   43.4590   -2.1160 O.3   153  SER153     -0.2182
    131  N        -33.7990   40.8900   -0.2130 N.am  154  ASP154     -0.1973
    132  CA       -34.9640   40.0910    0.2380 C.3   154  ASP154      0.1709
    133  C        -34.6480   38.6030    0.2700 C.2   154  ASP154      0.2293
    134  O        -35.1260   37.8320   -0.5820 O.2   154  ASP154     -0.2864
    135  CB       -36.2050   40.3910   -0.6500 C.3   154  ASP154      0.1436
    136  CG       -37.5470   40.3280    0.0390 C.2   154  ASP154      0.3671
    137  OD1      -37.8500   39.2850    0.6620 O.co2 154  ASP154     -0.2456
    138  OD2      -38.3340   41.2870   -0.1150 O.co2 154  ASP154     -0.2456
@<TRIPOS>BOND
     1   120   119    2
     2   119   118    1
     3   114   113    2
     4   117   118    1
     5   113   112    1
     6   118   121    1
     7   111   112    1
     8   112   115    1
     9   115   116    1
    10   101   100    1
    11   109   108   ar
    12   104   105    2
    13   104   103    1
    14   121   122    1
    15   125   126    1
    16   106   107    1
    17   106   103    1
    18   108   107    1
    19   108   110   ar
    20   122   124    1
    21   122   123    1
    22   103   102    1
    23   102    96   am
    24   100    99    1
    25   128   127    2
    26   130   129    1
    27    98    95    1
    28    98    99    1
    29    96    97    2
    30    96    95    1
    31   126   129    1
    32   126   127    1
    33    95    94    1
    34    51    52    1
    35   127   131   am
    36    81    80   ar
    37   135   136    1
    38   135   132    1
    39   134   133    2
    40    52    55    1
    41    52    53    1
    42    82    80   ar
    43    58    56    1
    44    86    85    2
    45    80    79    1
    46    94    85   am
    47   131   132    1
    48   138   136   ar
    49    55    56    1
    50    55    57    1
    51   136   137   ar
    52   132   133    1
    53    85    84    1
    54    53    54    2
    55    92    93   ar
    56    92    90   ar
    57    79    78    1
    58    93    91   ar
    59    90    88   ar
    60     4     3    2
    61    78    75    1
    62    84    83    1
    63    84    87    1
    64    77    76    2
    65    91    89   ar
    66    88    89   ar
    67    88    87    1
    68    76    83   am
    69    76    75    1
    70    75    74    1
    71     3     2    1
    72     3     9   am
    73    10     9    1
    74    10    11    1
    75     5     7    1
    76     5     2    1
    77     5     6    1
    78    42    40   ar
    79     8     6    1
    80    74    69   am
    81     2     1    1
    82    72    71    1
    83    48    49    1
    84    48    47    1
    85    50    49    1
    86    46    45    2
    87    71    73    1
    88    71    68    1
    89    11    12    2
    90    24    21    1
    91    33    32    1
    92    44    47    1
    93    44    45    1
    94    44    43    1
    95    40    39    1
    96    40    41   ar
    97    69    70    2
    98    69    68    1
    99    18    17    1
   100    32    31    1
   101    39    38    1
   102    19    17    1
   103    68    67    1
   104    17    14    1
   105    20    21    1
   106    21    22    1
   107    37    36    2
   108    31    30    1
   109    38    35    1
   110    16    15    2
   111    14    15    1
   112    14    13    1
   113    22    23    2
   114    35    36    1
   115    35    34    1
   116    30    29    1
   117    65    63    1
   118    29    26    1
   119    25    26    1
   120    26    27    1
   121    62    61    2
   122    66    64    1
   123    63    64    1
   124    63    60    1
   125    61    60    1
   126    60    59    1
   127    27    28    2
