@<TRIPOS>MOLECULE
tmp/5mjlA00.pdb
 67 64 0 0 0
SMALL
GASTEIGER

@<TRIPOS>ATOM
      1  N         12.7580    5.0860   15.7440 N.3    96  LEU96      -0.1245
      2  CA        13.2040    5.7360   14.5210 C.3    96  LEU96       0.1561
      3  C         14.4820    5.0720   14.0350 C.2    96  LEU96       0.2260
      4  O         15.3600    4.7350   14.8350 O.2    96  LEU96      -0.2867
      5  CB        13.4420    7.2330   14.7470 C.3    96  LEU96       0.0270
      6  CG        12.2600    8.0310   15.3020 C.3    96  LEU96       0.0019
      7  CD1       12.6590    9.4800   15.5360 C.3    96  LEU96       0.0001
      8  CD2       11.0540    7.9500   14.3740 C.3    96  LEU96       0.0001
      9  N         16.6490    8.9150   11.1690 N.3   100  GLY100     -0.1210
     10  CA        15.7140    9.7700   11.8690 C.3   100  GLY100      0.1956
     11  C         14.2760    9.6420   11.4240 C.2   100  GLY100      0.2613
     12  O         13.4550   10.4880   11.7930 O.2   100  GLY100     -0.2717
     13  N         13.9440    8.6130   10.6490 N.am  101  SER101     -0.1938
     14  CA        12.6050    8.4250   10.1170 C.3   101  SER101      0.2055
     15  C         11.9950    7.1540   10.6900 C.2   101  SER101      0.2644
     16  O         12.6860    6.2990   11.2480 O.2   101  SER101     -0.2714
     17  CB        12.6260    8.3540    8.5850 C.3   101  SER101      0.2130
     18  OG        11.3130    8.3210    8.0520 O.3   101  SER101     -0.2179
     19  N         10.6810    7.0440   10.5450 N.am  102  GLY102     -0.1939
     20  CA         9.9460    5.9090   11.0610 C.3   102  GLY102      0.2014
     21  C          8.4600    6.0920   10.8520 C.2   102  GLY102      0.2639
     22  O          7.9730    7.2260   10.7580 O.2   102  GLY102     -0.2714
     23  N          7.7340    4.9800   10.7750 N.am  103  GLN103     -0.1963
     24  CA         6.3090    5.0350   10.4960 C.3   103  GLN103      0.1733
     25  C          5.5120    5.2600   11.7790 C.2   103  GLN103      0.2616
     26  O          5.9640    4.9640   12.8880 O.2   103  GLN103     -0.2715
     27  CB         5.8450    3.7500    9.8090 C.3   103  GLN103      0.0408
     28  CG         6.4890    3.5010    8.4490 C.3   103  GLN103      0.0908
     29  CD         6.2290    4.6270    7.4600 C.2   103  GLN103      0.2608
     30  OE1        7.1050    5.4540    7.2000 O.2   103  GLN103     -0.2717
     31  NE2        5.0220    4.6620    6.9020 N.am  103  GLN103     -0.0878
     32  N          4.2990    5.7890   11.6090 N.am  104  TYR104     -0.1974
     33  CA         3.4590    6.1000   12.7600 C.3   104  TYR104      0.1639
     34  C          2.9950    4.8440   13.4860 C.2   104  TYR104      0.2290
     35  O          2.7790    4.8800   14.7020 O.2   104  TYR104     -0.2864
     36  CB         2.2480    6.9290   12.3200 C.3   104  TYR104      0.0560
     37  CG         2.4410    8.4370   12.3180 C.ar  104  TYR104     -0.0198
     38  CD1        3.4120    9.0440   13.1040 C.ar  104  TYR104     -0.0009
     39  CD2        1.6290    9.2550   11.5360 C.ar  104  TYR104     -0.0009
     40  CE1        3.5730   10.4150   13.1090 C.ar  104  TYR104      0.0417
     41  CE2        1.7860   10.6310   11.5350 C.ar  104  TYR104      0.0417
     42  CZ         2.7600   11.2030   12.3230 C.ar  104  TYR104      0.1957
     43  OH         2.9250   12.5710   12.3280 O.3   104  TYR104     -0.2866
     44  N          5.8030    4.1900   15.9270 N.3   107  ILE107     -0.1245
     45  CA         5.8690    5.1630   17.0150 C.3   107  ILE107      0.1561
     46  C          4.7590    4.9050   18.0240 C.2   107  ILE107      0.2260
     47  O          4.9690    5.0090   19.2390 O.2   107  ILE107     -0.2867
     48  CB         5.8100    6.5980   16.4570 C.3   107  ILE107      0.0252
     49  CG1        7.0510    6.8740   15.6040 C.3   107  ILE107      0.0019
     50  CG2        5.7040    7.6160   17.5920 C.3   107  ILE107      0.0019
     51  CD1        7.0310    8.2100   14.8900 C.3   107  ILE107      0.0001
     52  N         10.0810   14.1870   18.5190 N.3   133  LEU133     -0.1231
     53  CA         9.7180   13.7960   17.1620 C.3   133  LEU133      0.1693
     54  C          8.2940   14.2570   16.8830 C.2   133  LEU133      0.2593
     55  O          7.5870   14.7320   17.7740 O.2   133  LEU133     -0.2718
     56  CB         9.8560   12.2820   16.9690 C.3   133  LEU133      0.0284
     57  CG         9.0550   11.3930   17.9270 C.3   133  LEU133      0.0019
     58  CD1        7.6290   11.1750   17.4340 C.3   133  LEU133      0.0001
     59  CD2        9.7540   10.0560   18.1270 C.3   133  LEU133      0.0001
     60  N          7.8780   14.0980   15.6380 N.am  134  GLY134     -0.1942
     61  CA         6.5350   14.4690   15.2480 C.3   134  GLY134      0.2014
     62  C          6.4280   14.6750   13.7610 C.2   134  GLY134      0.2639
     63  O          7.4140   14.8250   13.0420 O.2   134  GLY134     -0.2714
     64  N          5.1970   14.6650   13.2960 N.am  135  GLY135     -0.1954
     65  CA         4.9140   14.9150   11.9080 C.3   135  GLY135      0.1869
     66  C          3.5180   15.4440   11.7770 C.2   135  GLY135      0.2309
     67  O          2.9480   15.9870   12.7260 O.2   135  GLY135     -0.2863
@<TRIPOS>BOND
     1    31    29   am
     2    30    29    2
     3    29    28    1
     4    18    17    1
     5    28    27    1
     6    17    14    1
     7    27    24    1
     8    14    13    1
     9    14    15    1
    10    24    23    1
    11    24    25    1
    12    19    15   am
    13    19    20    1
    14    13    11   am
    15    15    16    2
    16    22    21    2
    17    23    21   am
    18    21    20    1
    19     9    10    1
    20    11    12    2
    21    11    10    1
    22    41    39   ar
    23    41    42   ar
    24    39    37   ar
    25    32    25   am
    26    32    33    1
    27    66    65    1
    28    66    67    2
    29    25    26    2
    30    65    64    1
    31    37    36    1
    32    37    38   ar
    33    36    33    1
    34    42    43    1
    35    42    40   ar
    36    33    34    1
    37    63    62    2
    38    38    40   ar
    39    64    62   am
    40    34    35    2
    41    62    61    1
    42     3     2    1
    43     3     4    2
    44     8     6    1
    45     2     5    1
    46     2     1    1
    47     5     6    1
    48    51    49    1
    49    61    60    1
    50     6     7    1
    51    49    48    1
    52    60    54   am
    53    44    45    1
    54    48    45    1
    55    48    50    1
    56    54    53    1
    57    54    55    2
    58    56    53    1
    59    56    57    1
    60    45    46    1
    61    53    52    1
    62    58    57    1
    63    57    59    1
    64    46    47    2
