@<TRIPOS>MOLECULE
tmp/5mjnA00.pdb
 148 143 0 0 0
SMALL
GASTEIGER

@<TRIPOS>ATOM
      1  N        -12.6620    6.1560   11.1630 N.3    89  GLN89      -0.1245
      2  CA       -12.3780    5.0120   10.3450 C.3    89  GLN89       0.1566
      3  C        -12.6540    3.7480   11.1200 C.2    89  GLN89       0.2260
      4  O        -12.6850    3.8060   12.3620 O.2    89  GLN89      -0.2867
      5  CB       -10.9210    4.9780    9.8330 C.3    89  GLN89       0.0367
      6  CG        -9.8500    5.1000   10.8790 C.3    89  GLN89       0.0905
      7  CD        -9.1240    3.8170   11.2180 C.2    89  GLN89       0.2608
      8  OE1       -9.6440    2.7340   11.1680 O.2    89  GLN89      -0.2717
      9  NE2       -7.9250    3.9550   11.6610 N.am   89  GLN89      -0.0878
     10  N        -11.1970   -0.5020   10.9480 N.3    91  HIS91      -0.1241
     11  CA       -10.3610   -1.4670   10.3410 C.3    91  HIS91       0.1621
     12  C        -10.3780   -2.7380   11.1780 C.2    91  HIS91       0.2264
     13  O        -11.0020   -2.7810   12.2120 O.2    91  HIS91      -0.2867
     14  CB        -8.8920   -0.9900   10.2490 C.3    91  HIS91       0.0745
     15  CG        -8.2960   -0.6920   11.6010 C.ar   91  HIS91       0.0817
     16  ND1       -8.4600    0.4580   12.2550 N.ar   91  HIS91      -0.2268
     17  CD2       -7.6350   -1.4980   12.4740 C.ar   91  HIS91       0.1154
     18  CE1       -7.9450    0.3860   13.5080 C.ar   91  HIS91       0.1986
     19  NE2       -7.4390   -0.8460   13.6740 N.ar   91  HIS91      -0.2212
     20  N         -8.0910   -6.5000   12.4610 N.3    93  HIS93      -0.1241
     21  CA        -6.8910   -7.2860   12.6660 C.3    93  HIS93       0.1621
     22  C         -7.3330   -8.7590   12.5490 C.2    93  HIS93       0.2264
     23  O         -8.3790   -9.1020   13.0590 O.2    93  HIS93      -0.2867
     24  CB        -6.2220   -7.0420   14.0410 C.3    93  HIS93       0.0745
     25  CG        -5.9870   -5.5890   14.3080 C.ar   93  HIS93       0.0817
     26  ND1       -4.7430   -5.0390   14.1310 N.ar   93  HIS93      -0.2268
     27  CD2       -6.7760   -4.5400   14.6610 C.ar   93  HIS93       0.1154
     28  CE1       -4.7590   -3.7440   14.3950 C.ar   93  HIS93       0.1986
     29  NE2       -6.0270   -3.3940   14.6800 N.ar   93  HIS93      -0.2212
     30  N        -12.0350   -2.6540   14.8500 N.3   116  HIS116     -0.1241
     31  CA       -11.8210   -1.4340   15.5960 C.3   116  HIS116      0.1621
     32  C        -12.5080   -0.2730   14.8560 C.2   116  HIS116      0.2264
     33  O        -12.1450    0.0800   13.7450 O.2   116  HIS116     -0.2867
     34  CB       -10.3100   -1.1150   15.6710 C.3   116  HIS116      0.0745
     35  CG        -9.6250   -2.0950   16.6250 C.ar  116  HIS116      0.0817
     36  ND1       -8.2670   -2.2920   16.5700 N.ar  116  HIS116     -0.2268
     37  CD2      -10.1460   -2.9320   17.5130 C.ar  116  HIS116      0.1154
     38  CE1       -7.9860   -3.2010   17.4660 C.ar  116  HIS116      0.1986
     39  NE2       -9.0490   -3.6050   18.0970 N.ar  116  HIS116     -0.2212
     40  N        -12.8180    3.5620   15.1800 N.3   118  VAL118     -0.1245
     41  CA       -11.9240    4.5620   15.8060 C.3   118  VAL118      0.1561
     42  C        -12.6320    5.8980   15.8040 C.2   118  VAL118      0.2260
     43  O        -13.1130    6.3670   14.7780 O.2   118  VAL118     -0.2867
     44  CB       -10.5720    4.6530   15.0480 C.3   118  VAL118      0.0252
     45  CG1       -9.6660    5.7000   15.6520 C.3   118  VAL118      0.0019
     46  CG2       -9.9260    3.3180   14.9660 C.3   118  VAL118      0.0019
     47  N         -8.0620   14.9240   14.6670 N.3   127  PHE127     -0.1227
     48  CA        -7.5240   13.6680   15.0770 C.3   127  PHE127      0.1736
     49  C         -6.0760   13.7770   15.5410 C.2   127  PHE127      0.2596
     50  O         -5.6820   13.1680   16.5420 O.2   127  PHE127     -0.2718
     51  CB        -7.6170   12.6720   13.9190 C.3   127  PHE127      0.0547
     52  CG        -7.1280   11.3230   14.2180 C.ar  127  PHE127     -0.0202
     53  CD1       -7.9230   10.4140   14.8630 C.ar  127  PHE127     -0.0042
     54  CD2       -5.8370   10.9300   13.9470 C.ar  127  PHE127     -0.0042
     55  CE1       -7.5190    9.1330   15.1480 C.ar  127  PHE127     -0.0003
     56  CE2       -5.4020    9.6800   14.2810 C.ar  127  PHE127     -0.0003
     57  CZ        -6.2810    8.8210   14.8910 C.ar  127  PHE127     -0.0000
     58  N         -5.2580   14.5490   14.7910 N.am  128  GLY128     -0.1957
     59  CA        -3.8610   14.7030   15.1380 C.3   128  GLY128      0.1869
     60  C         -3.6840   15.2980   16.5080 C.2   128  GLY128      0.2309
     61  O         -2.6920   15.0170   17.1750 O.2   128  GLY128     -0.2863
     62  N         -4.8590   12.6090   19.3620 N.3   131  VAL131     -0.1245
     63  CA        -3.9650   11.4900   19.7630 C.3   131  VAL131      0.1561
     64  C         -2.8350   11.9020   20.7150 C.2   131  VAL131      0.2260
     65  O         -2.1910   11.0450   21.3010 O.2   131  VAL131     -0.2867
     66  CB        -3.3460   10.7910   18.5640 C.3   131  VAL131      0.0252
     67  CG1       -4.3570   10.1080   17.7100 C.3   131  VAL131      0.0019
     68  CG2       -2.4120   11.6440   17.7400 C.3   131  VAL131      0.0019
     69  N         -9.0440    9.5460   22.1360 N.3   137  LEU137     -0.1245
     70  CA        -9.7630    8.5710   21.2550 C.3   137  LEU137      0.1561
     71  C        -10.5550    7.6510   22.0530 C.2   137  LEU137      0.2260
     72  O        -10.3030    7.3530   23.2280 O.2   137  LEU137     -0.2867
     73  CB        -8.7350    7.7450   20.4650 C.3   137  LEU137      0.0270
     74  CG        -7.9180    8.3280   19.4010 C.3   137  LEU137      0.0019
     75  CD1       -7.1450    7.3110   18.6430 C.3   137  LEU137      0.0001
     76  CD2       -8.2890    9.5170   18.5930 C.3   137  LEU137      0.0001
     77  N        -12.0010    3.7860   21.0700 N.3   139  VAL139     -0.1245
     78  CA       -12.0340    2.7280   20.0670 C.3   139  VAL139      0.1561
     79  C        -12.9430    1.6880   20.5630 C.2   139  VAL139      0.2260
     80  O        -12.8630    1.1580   21.6890 O.2   139  VAL139     -0.2867
     81  CB       -10.6560    2.1370   19.7360 C.3   139  VAL139      0.0252
     82  CG1      -10.7800    1.1150   18.6560 C.3   139  VAL139      0.0019
     83  CG2       -9.6980    3.2420   19.2870 C.3   139  VAL139      0.0019
     84  N         -3.0130    3.1450   21.2280 N.3   194  LEU194     -0.1231
     85  CA        -3.0220    2.6060   19.8470 C.3   194  LEU194      0.1693
     86  C         -2.3450    1.3040   19.8970 C.2   194  LEU194      0.2593
     87  O         -1.3100    1.1350   20.6000 O.2   194  LEU194     -0.2718
     88  CB        -2.3590    3.5500   18.9280 C.3   194  LEU194      0.0284
     89  CG        -2.8160    5.0200   18.8790 C.3   194  LEU194      0.0019
     90  CD1       -1.9870    5.7660   17.8560 C.3   194  LEU194      0.0001
     91  CD2       -4.2460    5.0980   18.5260 C.3   194  LEU194      0.0001
     92  N         -2.7300    0.3500   19.0320 N.am  195  THR195     -0.1939
     93  CA        -2.1010   -0.9540   18.9580 C.3   195  THR195      0.2028
     94  C         -1.1290   -1.0820   17.8670 C.2   195  THR195      0.2643
     95  O         -0.5040   -2.1140   17.6910 O.2   195  THR195     -0.2714
     96  CB        -3.0800   -2.1180   18.8720 C.3   195  THR195      0.1808
     97  OG1       -3.7650   -2.0470   17.6040 O.3   195  THR195     -0.2208
     98  CG2       -4.1020   -2.1260   19.9990 C.3   195  THR195      0.0379
     99  N         -0.8900    0.0040   17.1120 N.am  196  THR196     -0.1937
    100  CA         0.1450    0.0780   16.1290 C.3   196  THR196      0.2013
    101  C          0.9810    1.3070   16.4510 C.2   196  THR196      0.2484
    102  O          0.4890    2.2590   17.0570 O.2   196  THR196     -0.2729
    103  CB        -0.3760    0.2010   14.6720 C.3   196  THR196      0.1807
    104  OG1       -1.1150    1.4300   14.5490 O.3   196  THR196     -0.2208
    105  CG2       -1.2050   -0.9270   14.2990 C.3   196  THR196      0.0379
    106  N          2.2590    1.3520   16.0010 N.am  197  PRO197     -0.2715
    107  CA         3.0190    2.5760   16.0390 C.3   197  PRO197      0.1521
    108  C          2.1810    3.7590   15.4740 C.2   197  PRO197      0.2440
    109  O          1.4840    3.5950   14.4990 O.2   197  PRO197     -0.2731
    110  CB         4.2110    2.2570   15.1780 C.3   197  PRO197      0.0310
    111  CG         4.4190    0.7540   15.4110 C.3   197  PRO197      0.0237
    112  CD         3.0330    0.2740   15.3900 C.3   197  PRO197      0.0939
    113  N          2.1790    4.9160   16.1780 N.am  198  PRO198     -0.2727
    114  CA         3.1060    5.2990   17.2640 C.3   198  PRO198      0.1402
    115  C          2.7230    4.8550   18.6520 C.2   198  PRO198      0.2269
    116  O          3.4190    5.2970   19.5980 O.2   198  PRO198     -0.2865
    117  CB         3.1260    6.8240   17.0590 C.3   198  PRO198      0.0296
    118  CG         1.7240    7.1730   16.6280 C.3   198  PRO198      0.0237
    119  CD         1.3980    6.0780   15.6270 C.3   198  PRO198      0.0939
    120  N          0.4950    5.5120   20.8110 N.3   200  LEU200     -0.1245
    121  CA         0.1930    6.6240   21.7510 C.3   200  LEU200      0.1561
    122  C         -0.8130    6.2030   22.7560 C.2   200  LEU200      0.2260
    123  O         -1.7920    5.4970   22.4400 O.2   200  LEU200     -0.2867
    124  CB        -0.2370    7.8560   20.9620 C.3   200  LEU200      0.0270
    125  CG         0.8250    8.4150   20.0180 C.3   200  LEU200      0.0019
    126  CD1        0.2890    9.5010   19.0590 C.3   200  LEU200      0.0001
    127  CD2        1.9640    9.0670   20.8480 C.3   200  LEU200      0.0001
    128  N         -6.1190    6.2660   24.2550 N.3   203  VAL203     -0.1245
    129  CA        -7.4140    5.5550   23.9100 C.3   203  VAL203      0.1561
    130  C         -8.1510    5.1430   25.1540 C.2   203  VAL203      0.2260
    131  O         -7.6050    4.4770   26.0590 O.2   203  VAL203     -0.2867
    132  CB        -7.1190    4.2870   23.0970 C.3   203  VAL203      0.0252
    133  CG1       -8.3950    3.5700   22.7090 C.3   203  VAL203      0.0019
    134  CG2       -6.3610    4.6360   21.8190 C.3   203  VAL203      0.0019
    135  N        -10.5520    2.3260   25.6250 N.3   205  TRP205     -0.1241
    136  CA       -11.0090    1.1310   24.9100 C.3   205  TRP205      0.1605
    137  C        -12.3250    0.7280   25.4510 C.2   205  TRP205      0.2264
    138  O        -12.6250    0.6750   26.6680 O.2   205  TRP205     -0.2867
    139  CB        -9.9350   -0.0270   25.1140 C.3   205  TRP205      0.0550
    140  CG        -8.8970    0.0760   24.1770 C.ar  205  TRP205      0.0003
    141  CD1       -7.6340    0.6360   24.3140 C.ar  205  TRP205      0.0946
    142  CD2       -8.9190   -0.3620   22.8050 C.ar  205  TRP205      0.0152
    143  NE1       -6.9240    0.6280   23.1920 N.ar  205  TRP205     -0.2442
    144  CE2       -7.6960   -0.0020   22.2230 C.ar  205  TRP205      0.0810
    145  CE3       -9.9110   -0.9910   21.9980 C.ar  205  TRP205      0.0012
    146  CZ2       -7.4180   -0.2270   20.8990 C.ar  205  TRP205      0.0191
    147  CZ3       -9.6060   -1.2400   20.7110 C.ar  205  TRP205      0.0001
    148  CH2       -8.4100   -0.8910   20.1290 C.ar  205  TRP205      0.0015
@<TRIPOS>BOND
     1     5     2    1
     2     5     6    1
     3    14    11    1
     4    14    15    1
     5    11    10    1
     6    11    12    1
     7     2     3    1
     8     2     1    1
     9     6     7    1
    10     3     4    2
    11     8     7    2
    12    12    13    2
    13     7     9   am
    14    15    16   ar
    15    15    17   ar
    16    16    18   ar
    17    20    21    1
    18    17    19   ar
    19    22    21    1
    20    22    23    2
    21    21    24    1
    22    18    19   ar
    23    33    32    2
    24    51    52    1
    25    51    48    1
    26    54    52   ar
    27    54    56   ar
    28    24    25    1
    29    26    25   ar
    30    26    28   ar
    31    52    53   ar
    32    56    57   ar
    33   105   103    1
    34    25    27   ar
    35    28    29   ar
    36   109   108    2
    37   104   103    1
    38    27    29   ar
    39    47    48    1
    40   103   100    1
    41    43    42    2
    42    58    59    1
    43    58    49   am
    44    30    31    1
    45    32    31    1
    46    53    55   ar
    47    57    55   ar
    48    46    44    1
    49    44    45    1
    50    44    41    1
    51    48    49    1
    52    59    60    1
    53   110   111    1
    54   110   107    1
    55    40    41    1
    56   112   111    1
    57   112   106    1
    58   108   107    1
    59   108   113   am
    60    49    50    2
    61    31    34    1
    62   119   113    1
    63   119   118    1
    64    34    35    1
    65    42    41    1
    66   106   107    1
    67   106   101   am
    68   100   101    1
    69   100    99    1
    70   113   114    1
    71   101   102    2
    72    60    61    2
    73    36    35   ar
    74    36    38   ar
    75    35    37   ar
    76   118   117    1
    77   117   114    1
    78    99    94   am
    79   114   115    1
    80    38    39   ar
    81    37    39   ar
    82    97    96    1
    83    95    94    2
    84    67    66    1
    85    68    66    1
    86    90    89    1
    87    94    93    1
    88    91    89    1
    89    66    63    1
    90    76    74    1
    91    75    74    1
    92   115   116    2
    93    82    81    1
    94    96    93    1
    95    96    98    1
    96    89    88    1
    97    88    85    1
    98    93    92    1
    99    92    86   am
   100   126   125    1
   101    83    81    1
   102    62    63    1
   103    74    73    1
   104    81    78    1
   105    63    64    1
   106    85    86    1
   107    85    84    1
   108    86    87    2
   109   125   127    1
   110   125   124    1
   111    78    79    1
   112    78    77    1
   113   148   147   ar
   114   148   146   ar
   115    73    70    1
   116    79    80    2
   117   147   145   ar
   118    64    65    2
   119   120   121    1
   120   146   144   ar
   121   124   121    1
   122    70    71    1
   123    70    69    1
   124   121   122    1
   125   134   132    1
   126   145   142   ar
   127    71    72    2
   128   144   142   ar
   129   144   143   ar
   130   123   122    2
   131   133   132    1
   132   142   140   ar
   133   132   129    1
   134   143   141   ar
   135   129   128    1
   136   129   130    1
   137   140   141   ar
   138   140   139    1
   139   136   139    1
   140   136   137    1
   141   136   135    1
   142   130   131    2
   143   137   138    2
