@<TRIPOS>MOLECULE
tmp/5mjsE00.pdb
 176 162 0 0 0
SMALL
GASTEIGER

@<TRIPOS>ATOM
      1  N         67.3020   93.6140   95.5780 N.3    10  GLY10      -0.1210
      2  CA        67.8320   94.7360   96.3180 C.3    10  GLY10       0.1956
      3  C         66.7900   95.8070   96.5330 C.2    10  GLY10       0.2612
      4  O         65.8700   95.9880   95.7400 O.2    10  GLY10      -0.2717
      5  N         66.9470   96.5350   97.6410 N.am   11  GLN11      -0.1965
      6  CA        65.9710   97.5530   98.0090 C.3    11  GLN11       0.1733
      7  C         66.0050   98.7120   97.0300 C.2    11  GLN11       0.2616
      8  O         65.0010   99.4100   96.8510 O.2    11  GLN11      -0.2715
      9  CB        66.2460   98.0350   99.4280 C.3    11  GLN11       0.0408
     10  CG        65.0810   98.6680  100.1470 C.3    11  GLN11       0.0908
     11  CD        64.9450  100.1330   99.8940 C.2    11  GLN11       0.2608
     12  OE1       63.9050  100.6010   99.4560 O.2    11  GLN11      -0.2717
     13  NE2       65.9900  100.8760  100.1950 N.am   11  GLN11      -0.0878
     14  N         67.1560   98.9260   96.3950 N.am   12  ALA12      -0.1977
     15  CA        67.2060   99.7780   95.2200 C.3    12  ALA12       0.1597
     16  C         66.3770   99.1860   94.1010 C.2    12  ALA12       0.2287
     17  O         65.5020   99.8570   93.5440 O.2    12  ALA12      -0.2864
     18  CB        68.6510   99.9810   94.7810 C.3    12  ALA12       0.0319
     19  N         62.6900   99.9330   94.5300 N.3    15  GLN15      -0.1231
     20  CA        62.1540  101.2580   94.2810 C.3    15  GLN15       0.1698
     21  C         62.4910  101.7790   92.9000 C.2    15  GLN15       0.2592
     22  O         61.8130  102.6940   92.4280 O.2    15  GLN15      -0.2718
     23  CB        62.6650  102.2200   95.3420 C.3    15  GLN15       0.0381
     24  CG        62.1470  101.9080   96.7230 C.3    15  GLN15       0.0905
     25  CD        62.7230  102.8240   97.7670 C.2    15  GLN15       0.2608
     26  OE1       63.5990  103.6330   97.4760 O.2    15  GLN15      -0.2717
     27  NE2       62.2550  102.6900   98.9980 N.am   15  GLN15      -0.0878
     28  N         63.5180  101.2300   92.2550 N.am   16  ILE16      -0.1980
     29  CA        63.8030  101.6030   90.8770 C.3    16  ILE16       0.1595
     30  C         62.6470  101.2100   89.9760 C.2    16  ILE16       0.2287
     31  O         62.1370  102.0290   89.2020 O.2    16  ILE16      -0.2864
     32  CB        65.1230  100.9720   90.4140 C.3    16  ILE16       0.0276
     33  CG1       66.3110  101.7040   91.0320 C.3    16  ILE16       0.0022
     34  CG2       65.2250  100.9670   88.9080 C.3    16  ILE16       0.0022
     35  CD1       66.4880  103.1110   90.5320 C.3    16  ILE16       0.0001
     36  N         63.6870   90.3010   97.4060 N.3    63  ASP63      -0.1239
     37  CA        64.2390   90.9820   98.5590 C.3    63  ASP63       0.1674
     38  C         64.1240   90.0410   99.7380 C.2    63  ASP63       0.2266
     39  O         63.2500   89.1740   99.7690 O.2    63  ASP63      -0.2867
     40  CB        63.5100   92.2940   98.8380 C.3    63  ASP63       0.1410
     41  CG        64.2510   93.1730   99.8120 C.2    63  ASP63       0.3668
     42  OD1       65.2960   92.7500  100.3470 O.co2  63  ASP63      -0.2456
     43  OD2       63.7950   94.3090  100.0320 O.co2  63  ASP63      -0.2456
     44  N         63.8970   91.4020  102.8690 N.3    65  GLU65      -0.1245
     45  CA        63.0200   92.0350  103.8250 C.3    65  GLU65       0.1567
     46  C         61.5970   91.8890  103.3530 C.2    65  GLU65       0.2260
     47  O         61.3510   91.9130  102.1440 O.2    65  GLU65      -0.2867
     48  CB        63.3380   93.5140  103.9880 C.3    65  GLU65       0.0388
     49  CG        64.6290   93.8010  104.6810 C.3    65  GLU65       0.1160
     50  CD        64.6130   93.3940  106.1360 C.2    65  GLU65       0.3649
     51  OE1       63.5280   93.3930  106.7610 O.co2  65  GLU65      -0.2457
     52  OE2       65.7080   93.1110  106.6560 O.co2  65  GLU65      -0.2457
     53  N         66.3540   88.3270  107.0440 N.3    92  ASP92      -0.1239
     54  CA        67.3960   88.9410  106.2530 C.3    92  ASP92       0.1674
     55  C         68.6130   89.1270  107.1280 C.2    92  ASP92       0.2266
     56  O         68.5050   89.3190  108.3400 O.2    92  ASP92      -0.2867
     57  CB        66.9440   90.2900  105.6950 C.3    92  ASP92       0.1410
     58  CG        67.9370   90.9080  104.7240 C.2    92  ASP92       0.3668
     59  OD1       68.9660   90.2900  104.3820 O.co2  92  ASP92      -0.2456
     60  OD2       67.6860   92.0520  104.3070 O.co2  92  ASP92      -0.2456
     61  N         71.2660   91.5300  105.6520 N.3    94  SER94      -0.1202
     62  CA        71.7980   92.2520  104.5160 C.3    94  SER94       0.2020
     63  C         73.0870   92.9490  104.9310 C.2    94  SER94       0.2618
     64  O         73.5570   92.7970  106.0600 O.2    94  SER94      -0.2717
     65  CB        70.7550   93.2040  103.9600 C.3    94  SER94       0.2103
     66  OG        71.2970   93.9760  102.9080 O.3    94  SER94      -0.2182
     67  N         73.6940   93.6700  103.9780 N.am   95  ASN95      -0.1974
     68  CA        75.0720   94.1770  104.0380 C.3    95  ASN95       0.1688
     69  C         76.0760   93.0580  104.2910 C.2    95  ASN95       0.2292
     70  O         77.1800   93.2880  104.7770 O.2    95  ASN95      -0.2864
     71  CB        75.2190   95.2830  105.0790 C.3    95  ASN95       0.1181
     72  CG        74.2120   96.3660  104.8850 C.2    95  ASN95       0.2629
     73  OD1       73.3610   96.5970  105.7400 O.2    95  ASN95      -0.2716
     74  ND2       74.2680   97.0160  103.7370 N.am   95  ASN95      -0.0877
     75  N         71.8430   96.9450   93.1800 N.3   134  SER134     -0.1217
     76  CA        72.7600   98.0160   93.5290 C.3   134  SER134      0.1889
     77  C         74.0660   97.4220   94.0160 C.2   134  SER134      0.2288
     78  O         74.1740   96.2240   94.2750 O.2   134  SER134     -0.2866
     79  CB        72.2240   98.9180   94.6280 C.3   134  SER134      0.2089
     80  OG        72.3480   98.2730   95.8730 O.3   134  SER134     -0.2183
     81  N         75.3930   99.4250   96.5960 N.3   136  GLY136     -0.1210
     82  CA        75.1990   99.8520   97.9670 C.3   136  GLY136      0.1956
     83  C         74.3470   98.8940   98.7650 C.2   136  GLY136      0.2612
     84  O         74.3180   98.9620   99.9940 O.2   136  GLY136     -0.2717
     85  N         73.6200   98.0140   98.0890 N.am  137  GLY137     -0.1942
     86  CA        72.9600   96.9360   98.7890 C.3   137  GLY137      0.2014
     87  C         73.9520   95.8820   99.2380 C.2   137  GLY137      0.2639
     88  O         75.0590   95.7690   98.7080 O.2   137  GLY137     -0.2714
     89  N         73.5670   95.1300  100.2560 N.am  138  GLY138     -0.1939
     90  CA        74.2610   93.8890  100.4780 C.3   138  GLY138      0.2014
     91  C         73.6630   92.8380   99.5740 C.2   138  GLY138      0.2640
     92  O         74.3210   92.3680   98.6460 O.2   138  GLY138     -0.2714
     93  N         72.3870   92.5200   99.7950 N.am  139  THR139     -0.1936
     94  CA        71.7980   91.3350   99.1860 C.3   139  THR139      0.2028
     95  C         71.5380   91.5360   97.7050 C.2   139  THR139      0.2642
     96  O         71.6800   90.5970   96.9170 O.2   139  THR139     -0.2714
     97  CB        70.5050   90.9820   99.9060 C.3   139  THR139      0.1808
     98  OG1       70.7450   90.9470  101.3170 O.3   139  THR139     -0.2208
     99  CG2       69.9870   89.6390   99.4590 C.3   139  THR139      0.0379
    100  N         71.1680   92.7480   97.3060 N.am  140  GLY140     -0.1954
    101  CA        71.0690   93.0380   95.8890 C.3   140  GLY140      0.1869
    102  C         72.4110   92.9550   95.1960 C.2   140  GLY140      0.2309
    103  O         72.5050   92.4710   94.0660 O.2   140  GLY140     -0.2863
    104  N         74.0130  100.7320   90.3640 N.3   165  VAL165     -0.1245
    105  CA        74.3040  101.9950   91.0300 C.3   165  VAL165      0.1561
    106  C         75.2990  101.7170   92.1460 C.2   165  VAL165      0.2260
    107  O         75.1300  100.7840   92.9350 O.2   165  VAL165     -0.2867
    108  CB        73.0180  102.6900   91.5170 C.3   165  VAL165      0.0252
    109  CG1       72.1370  101.7380   92.2840 C.3   165  VAL165      0.0019
    110  CG2       73.3590  103.8930   92.3690 C.3   165  VAL165      0.0019
    111  N         76.2860  105.2370  101.5590 N.3   173  THR173     -0.1203
    112  CA        75.1410  104.8940  102.3810 C.3   173  THR173      0.1994
    113  C         75.4770  103.8420  103.4230 C.2   173  THR173      0.2618
    114  O         74.7050  103.6640  104.3700 O.2   173  THR173     -0.2717
    115  CB        73.9740  104.4440  101.5090 C.3   173  THR173      0.1784
    116  OG1       74.3590  103.3260  100.6990 O.3   173  THR173     -0.2211
    117  CG2       73.5360  105.6020  100.6330 C.3   173  THR173      0.0376
    118  N         76.6110  103.1600  103.2820 N.am  174  SER174     -0.1951
    119  CA        77.0730  102.2220  104.2920 C.3   174  SER174      0.1924
    120  C         78.5760  102.0200  104.1580 C.2   174  SER174      0.2314
    121  O         79.1670  102.2560  103.1040 O.2   174  SER174     -0.2863
    122  CB        76.3320  100.8870  104.1960 C.3   174  SER174      0.2116
    123  OG        76.5570  100.2760  102.9500 O.3   174  SER174     -0.2180
    124  N         80.4090   99.2910  101.5620 N.3   177  GLU177     -0.1245
    125  CA        80.4320   99.6140  100.1490 C.3   177  GLU177      0.1567
    126  C         81.8220   99.5540   99.5330 C.2   177  GLU177      0.2260
    127  O         81.9350   99.4100   98.3150 O.2   177  GLU177     -0.2867
    128  CB        79.7690  100.9720   99.9760 C.3   177  GLU177      0.0388
    129  CG        78.2890  100.8490  100.2700 C.3   177  GLU177      0.1160
    130  CD        77.5780  102.1720  100.4180 C.2   177  GLU177      0.3649
    131  OE1       78.2420  103.2140  100.2890 O.co2 177  GLU177     -0.2457
    132  OE2       76.3670  102.1720  100.7390 O.co2 177  GLU177     -0.2457
    133  N         74.4840  108.4540   92.6450 N.3   200  ASN200     -0.1240
    134  CA        73.5070  109.2850   93.3290 C.3   200  ASN200      0.1653
    135  C         73.9930  110.7160   93.4400 C.2   200  ASN200      0.2266
    136  O         73.2920  111.6500   93.0440 O.2   200  ASN200     -0.2867
    137  CB        73.2370  108.7280   94.7130 C.3   200  ASN200      0.1155
    138  CG        72.5270  107.4310   94.6660 C.2   200  ASN200      0.2627
    139  OD1       71.5770  107.2570   93.9150 O.2   200  ASN200     -0.2716
    140  ND2       73.0010  106.4850   95.4490 N.am  200  ASN200     -0.0877
    141  N         64.8790  109.9780   96.9340 N.3   218  TYR218     -0.1241
    142  CA        65.1650  108.8160   96.1070 C.3   218  TYR218      0.1605
    143  C         64.2250  108.7310   94.9230 C.2   218  TYR218      0.2264
    144  O         64.6450  108.3770   93.8160 O.2   218  TYR218     -0.2867
    145  CB        65.0160  107.5410   96.9180 C.3   218  TYR218      0.0534
    146  CG        66.0500  107.2960   97.9610 C.ar  218  TYR218     -0.0201
    147  CD1       67.3430  107.0210   97.5990 C.ar  218  TYR218     -0.0009
    148  CD2       65.7150  107.2470   99.2960 C.ar  218  TYR218     -0.0009
    149  CE1       68.2890  106.7270   98.5090 C.ar  218  TYR218      0.0417
    150  CE2       66.6670  106.9700  100.2440 C.ar  218  TYR218      0.0417
    151  CZ        67.9560  106.7050   99.8350 C.ar  218  TYR218      0.1957
    152  OH        68.9470  106.4390  100.7370 O.3   218  TYR218     -0.2866
    153  N         65.2040  110.6470   92.0290 N.3   221  LEU221     -0.1231
    154  CA        66.3060  109.9500   91.3820 C.3   221  LEU221      0.1693
    155  C         65.8290  108.6780   90.7200 C.2   221  LEU221      0.2592
    156  O         66.3860  108.2690   89.6960 O.2   221  LEU221     -0.2718
    157  CB        67.4070  109.6280   92.3790 C.3   221  LEU221      0.0284
    158  CG        68.4490  110.7140   92.6060 C.3   221  LEU221      0.0019
    159  CD1       67.9560  111.8790   93.4320 C.3   221  LEU221      0.0001
    160  CD2       69.7000  110.1140   93.2120 C.3   221  LEU221      0.0001
    161  N         64.7990  108.0530   91.2830 N.am  222  ASN222     -0.1974
    162  CA        64.2330  106.8710   90.6590 C.3   222  ASN222      0.1688
    163  C         63.5820  107.2170   89.3340 C.2   222  ASN222      0.2292
    164  O         63.6980  106.4610   88.3660 O.2   222  ASN222     -0.2864
    165  CB        63.2130  106.2250   91.5830 C.3   222  ASN222      0.1181
    166  CG        63.8430  105.5870   92.7800 C.2   222  ASN222      0.2629
    167  OD1       64.8730  104.9310   92.6760 O.2   222  ASN222     -0.2716
    168  ND2       63.2300  105.7760   93.9370 N.am  222  ASN222     -0.0877
    169  N         66.4380  107.8190   86.5070 N.3   225  ILE225     -0.1245
    170  CA        67.0320  106.6100   85.9460 C.3   225  ILE225      0.1561
    171  C         66.0270  105.8740   85.0750 C.2   225  ILE225      0.2260
    172  O         66.3910  105.2880   84.0460 O.2   225  ILE225     -0.2867
    173  CB        67.5650  105.7330   87.0920 C.3   225  ILE225      0.0252
    174  CG1       68.7570  106.4060   87.7500 C.3   225  ILE225      0.0019
    175  CG2       67.9660  104.3430   86.6410 C.3   225  ILE225      0.0019
    176  CD1       69.2140  105.6840   88.9710 C.3   225  ILE225      0.0001
@<TRIPOS>BOND
     1   172   171    2
     2   171   170    1
     3   170   169    1
     4   170   173    1
     5   175   173    1
     6   173   174    1
     7   174   176    1
     8   164   163    2
     9    34    32    1
    10    31    30    2
    11   163   162    1
    12   156   155    2
    13    30    29    1
    14   104   105    1
    15    32    29    1
    16    32    33    1
    17    35    33    1
    18   162   161    1
    19   162   165    1
    20   155   161   am
    21   155   154    1
    22    29    28    1
    23   105   108    1
    24   105   106    1
    25   154   153    1
    26   154   157    1
    27   108   109    1
    28   108   110    1
    29   165   166    1
    30   106   107    2
    31    28    21   am
    32   157   158    1
    33    22    21    2
    34   158   160    1
    35   158   159    1
    36   133   134    1
    37   167   166    2
    38   166   168   am
    39    21    20    1
    40   136   135    2
    41    75    76    1
    42   134   135    1
    43   134   137    1
    44    76    77    1
    45    76    79    1
    46    17    16    2
    47   144   143    2
    48   139   138    2
    49    77    78    2
    50   103   102    2
    51    16    15    1
    52    20    19    1
    53    20    23    1
    54    79    80    1
    55   138   137    1
    56   138   140   am
    57    18    15    1
    58   143   142    1
    59   102   101    1
    60    15    14    1
    61    23    24    1
    62     1     2    1
    63     4     3    2
    64   101   100    1
    65   142   145    1
    66   142   141    1
    67     2     3    1
    68    14     7   am
    69     3     5   am
    70    81    82    1
    71    24    25    1
    72     8     7    2
    73    96    95    2
    74   145   146    1
    75     7     6    1
    76   100    95   am
    77    36    37    1
    78    26    25    2
    79   147   146   ar
    80   147   149   ar
    81     5     6    1
    82    95    94    1
    83    25    27   am
    84   146   148   ar
    85    82    83    1
    86     6     9    1
    87    85    83   am
    88    85    86    1
    89   127   126    2
    90   149   151   ar
    91    37    40    1
    92    37    38    1
    93    92    91    2
    94    88    87    2
    95    83    84    2
    96    86    87    1
    97    40    41    1
    98    94    93    1
    99    94    97    1
   100    87    89   am
   101   148   150   ar
   102     9    10    1
   103    12    11    2
   104    99    97    1
   105   126   125    1
   106    91    93   am
   107    91    90    1
   108    38    39    2
   109    41    43   ar
   110    41    42   ar
   111   151   150   ar
   112   151   152    1
   113    11    10    1
   114    11    13   am
   115    97    98    1
   116   128   125    1
   117   128   129    1
   118   125   124    1
   119    89    90    1
   120   129   130    1
   121   131   130   ar
   122   130   132   ar
   123   117   115    1
   124   116   115    1
   125   115   112    1
   126   111   112    1
   127    47    46    2
   128   112   113    1
   129    44    45    1
   130    66    65    1
   131   123   122    1
   132   121   120    2
   133   118   113   am
   134   118   119    1
   135    46    45    1
   136   113   114    2
   137    74    72   am
   138    45    48    1
   139    65    62    1
   140    67    68    1
   141    67    63   am
   142    48    49    1
   143    68    69    1
   144    68    71    1
   145   120   119    1
   146   122   119    1
   147    69    70    2
   148    60    58   ar
   149    59    58   ar
   150    62    63    1
   151    62    61    1
   152    49    50    1
   153    58    57    1
   154    72    71    1
   155    72    73    2
   156    63    64    2
   157    57    54    1
   158    50    52   ar
   159    50    51   ar
   160    54    53    1
   161    54    55    1
   162    55    56    2
