@<TRIPOS>MOLECULE
tmp/5mjuA01.pdb
 179 165 0 0 0
SMALL
GASTEIGER

@<TRIPOS>ATOM
      1  N         53.2210  168.0430    5.0810 N.3    60  ILE60      -0.1245
      2  CA        54.3270  167.0720    5.1400 C.3    60  ILE60       0.1561
      3  C         55.6660  167.7460    5.4550 C.2    60  ILE60       0.2260
      4  O         56.4150  167.2110    6.2710 O.2    60  ILE60      -0.2867
      5  CB        54.4290  166.1080    3.9170 C.3    60  ILE60       0.0252
      6  CG1       55.0080  166.7780    2.6660 C.3    60  ILE60       0.0019
      7  CG2       53.1090  165.4230    3.6090 C.3    60  ILE60       0.0019
      8  CD1       56.3610  166.2690    2.3150 C.3    60  ILE60       0.0001
      9  N         57.7960  166.1820    8.5410 N.3    64  ILE64      -0.1245
     10  CA        59.0380  165.3920    8.4070 C.3    64  ILE64       0.1561
     11  C         60.2660  166.0420    9.0640 C.2    64  ILE64       0.2260
     12  O         61.1060  165.3280    9.6130 O.2    64  ILE64      -0.2867
     13  CB        59.3470  164.9820    6.9380 C.3    64  ILE64       0.0252
     14  CG1       59.4740  166.2040    5.9900 C.3    64  ILE64       0.0019
     15  CG2       58.3300  163.9540    6.4180 C.3    64  ILE64       0.0019
     16  CD1       60.6400  166.1500    5.0370 C.3    64  ILE64       0.0001
     17  N         62.8130  165.5690   -0.4830 N.3   148  ILE148     -0.1245
     18  CA        62.5450  164.8730    0.7800 C.3   148  ILE148      0.1561
     19  C         63.7890  164.1870    1.3310 C.2   148  ILE148      0.2260
     20  O         64.0220  164.2360    2.5350 O.2   148  ILE148     -0.2867
     21  CB        61.3390  163.8990    0.7000 C.3   148  ILE148      0.0252
     22  CG1       60.2760  164.3400   -0.3530 C.3   148  ILE148      0.0019
     23  CG2       60.7290  163.6710    2.0920 C.3   148  ILE148      0.0019
     24  CD1       59.3390  165.5260   -0.0020 C.3   148  ILE148      0.0001
     25  N         65.2570  164.7360    4.9770 N.3   152  VAL152     -0.1245
     26  CA        65.3150  163.5880    5.8940 C.3   152  VAL152      0.1561
     27  C         66.7410  163.4440    6.4550 C.2   152  VAL152      0.2260
     28  O         66.9010  163.4040    7.6790 O.2   152  VAL152     -0.2867
     29  CB        64.7350  162.2770    5.2700 C.3   152  VAL152      0.0252
     30  CG1       65.1330  161.0310    6.0670 C.3   152  VAL152      0.0019
     31  CG2       63.2140  162.3560    5.1350 C.3   152  VAL152      0.0019
     32  N         46.9870  158.0900   -3.5830 N.3   260  SER260     -0.1202
     33  CA        48.0070  157.3030   -4.2990 C.3   260  SER260      0.2020
     34  C         49.4470  157.7370   -3.9650 C.2   260  SER260      0.2619
     35  O         50.3880  157.3700   -4.6790 O.2   260  SER260     -0.2717
     36  CB        47.7680  157.3150   -5.8090 C.3   260  SER260      0.2103
     37  OG        47.6460  156.0020   -6.3270 O.3   260  SER260     -0.2182
     38  N         49.6180  158.4940   -2.8700 N.am  261  SER261     -0.1937
     39  CA        50.9170  158.9880   -2.4280 C.3   261  SER261      0.2055
     40  C         51.0820  158.7370   -0.9400 C.2   261  SER261      0.2644
     41  O         50.2500  159.1900   -0.1480 O.2   261  SER261     -0.2714
     42  CB        51.0470  160.4770   -2.7380 C.3   261  SER261      0.2130
     43  OG        52.2730  161.0080   -2.2630 O.3   261  SER261     -0.2179
     44  N         52.1540  158.0100   -0.5590 N.am  262  SER262     -0.1935
     45  CA        52.4660  157.7180    0.8460 C.3   262  SER262      0.2055
     46  C         52.8840  159.0140    1.6000 C.2   262  SER262      0.2643
     47  O         52.8360  159.0580    2.8420 O.2   262  SER262     -0.2714
     48  CB        53.5200  156.6150    0.9620 C.3   262  SER262      0.2130
     49  OG        54.7240  156.9180    0.2740 O.3   262  SER262     -0.2179
     50  N         53.2470  160.0740    0.8180 N.am  263  SER263     -0.1949
     51  CA        53.6120  161.4170    1.2710 C.3   263  SER263      0.1924
     52  C         52.3520  162.1380    1.7330 C.2   263  SER263      0.2314
     53  O         52.2740  162.5530    2.8920 O.2   263  SER263     -0.2863
     54  CB        54.2350  162.1980    0.1200 C.3   263  SER263      0.2116
     55  OG        54.6100  163.5040    0.5230 O.3   263  SER263     -0.2180
     56  N         50.9560  160.3390    4.7160 N.3   266  LEU266     -0.1245
     57  CA        51.8110  160.2790    5.9120 C.3   266  LEU266      0.1561
     58  C         51.2440  161.1170    7.1210 C.2   266  LEU266      0.2260
     59  O         51.2750  160.5890    8.2400 O.2   266  LEU266     -0.2867
     60  CB        53.2970  160.6340    5.6230 C.3   266  LEU266      0.0270
     61  CG        54.2740  160.4220    6.8210 C.3   266  LEU266      0.0019
     62  CD1       54.6470  158.9540    6.9990 C.3   266  LEU266      0.0001
     63  CD2       55.5050  161.3200    6.7410 C.3   266  LEU266      0.0001
     64  N         58.4550  158.9460    8.8880 N.3   289  PRO289     -0.2116
     65  CA        58.9380  159.7930    7.7630 C.3   289  PRO289      0.1372
     66  C         59.8870  159.0790    6.7820 C.2   289  PRO289      0.2244
     67  O         59.7420  159.2290    5.5550 O.2   289  PRO289     -0.2868
     68  CB        59.6100  160.9850    8.4650 C.3   289  PRO289      0.0268
     69  CG        59.9150  160.4950    9.8490 C.3   289  PRO289      0.0207
     70  CD        58.8060  159.5490   10.1930 C.3   289  PRO289      0.0892
     71  N         57.9870  156.0380    4.7290 N.3   292  ALA292     -0.1231
     72  CA        57.1370  156.5030    3.6320 C.3   292  ALA292      0.1694
     73  C         57.9110  156.7570    2.3020 C.2   292  ALA292      0.2592
     74  O         57.3570  156.5270    1.2190 O.2   292  ALA292     -0.2718
     75  CB        56.3760  157.7440    4.0660 C.3   292  ALA292      0.0304
     76  N         59.2060  157.1690    2.4150 N.am  293  THR293     -0.1953
     77  CA        60.1590  157.5210    1.3350 C.3   293  THR293      0.1897
     78  C         61.0960  156.3950    0.8320 C.2   293  THR293      0.2313
     79  O         61.5870  156.4560   -0.3080 O.2   293  THR293     -0.2863
     80  CB        61.0580  158.6870    1.8020 C.3   293  THR293      0.1794
     81  OG1       61.1010  158.7710    3.2360 O.3   293  THR293     -0.2208
     82  CG2       60.6640  160.0090    1.1820 C.3   293  THR293      0.0378
     83  N         59.1110  150.7770    0.4120 N.3   296  MET296     -0.1245
     84  CA        58.0710  150.7300   -0.6020 C.3   296  MET296      0.1570
     85  C         57.9090  149.2870   -1.0910 C.2   296  MET296      0.2261
     86  O         58.4600  148.8910   -2.1250 O.2   296  MET296     -0.2867
     87  CB        58.3530  151.7320   -1.7360 C.3   296  MET296      0.0387
     88  CG        58.2840  153.1810   -1.2980 C.3   296  MET296      0.0595
     89  SD        58.5670  154.3170   -2.6710 S.3   296  MET296     -0.1393
     90  CE        58.6550  155.8430   -1.8000 C.3   296  MET296      0.0692
     91  N         55.7310  148.9200   -4.2360 N.3   299  THR299     -0.1218
     92  CA        56.5190  149.2860   -5.4130 C.3   299  THR299      0.1862
     93  C         57.3980  148.1030   -5.8420 C.2   299  THR299      0.2287
     94  O         57.3650  147.7390   -7.0150 O.2   299  THR299     -0.2866
     95  CB        57.2820  150.6040   -5.1810 C.3   299  THR299      0.1770
     96  OG1       56.3490  151.6180   -4.8110 O.3   299  THR299     -0.2211
     97  CG2       58.0620  151.0640   -6.4070 C.3   299  THR299      0.0375
     98  N         64.4870  154.3540   -4.1640 N.3   329  GLY329     -0.1210
     99  CA        64.5610  155.4310   -5.1450 C.3   329  GLY329      0.1956
    100  C         63.5010  156.5070   -5.0510 C.2   329  GLY329      0.2611
    101  O         62.3060  156.2150   -4.9810 O.2   329  GLY329     -0.2717
    102  N         63.9650  157.7670   -5.0600 N.am  330  ALA330     -0.1979
    103  CA        63.1890  159.0060   -5.0140 C.3   330  ALA330      0.1597
    104  C         64.0750  160.1380   -5.5950 C.2   330  ALA330      0.2287
    105  O         64.5810  160.9940   -4.8550 O.2   330  ALA330     -0.2864
    106  CB        62.7700  159.3160   -3.5780 C.3   330  ALA330      0.0319
    107  N         58.7260  164.2690   -9.0490 N.3   334  PRO334     -0.2102
    108  CA        57.8180  163.3530   -8.3210 C.3   334  PRO334      0.1504
    109  C         56.7130  162.8040   -9.2370 C.2   334  PRO334      0.2576
    110  O         56.0080  163.5880   -9.8800 O.2   334  PRO334     -0.2718
    111  CB        57.2580  164.2230   -7.1780 C.3   334  PRO334      0.0282
    112  CG        58.0540  165.5090   -7.2060 C.3   334  PRO334      0.0208
    113  CD        58.5200  165.6660   -8.6160 C.3   334  PRO334      0.0893
    114  N         56.5930  161.4560   -9.3290 N.am  335  GLN335     -0.1966
    115  CA        55.6330  160.7740  -10.2120 C.3   335  GLN335      0.1733
    116  C         54.7320  159.7320   -9.5100 C.2   335  GLN335      0.2616
    117  O         54.5230  159.8020   -8.2940 O.2   335  GLN335     -0.2715
    118  CB        56.3680  160.1400  -11.4150 C.3   335  GLN335      0.0408
    119  CG        56.4530  161.0360  -12.6520 C.3   335  GLN335      0.0908
    120  CD        55.1230  161.2270  -13.3490 C.2   335  GLN335      0.2608
    121  OE1       54.4250  160.2680  -13.7030 O.2   335  GLN335     -0.2717
    122  NE2       54.7570  162.4770  -13.5860 N.am  335  GLN335     -0.0878
    123  N         54.1760  158.7900  -10.3080 N.am  336  ALA336     -0.1963
    124  CA        53.2860  157.7120   -9.8780 C.3   336  ALA336      0.1728
    125  C         53.9750  156.3280   -9.8560 C.2   336  ALA336      0.2616
    126  O         53.3020  155.3100   -9.6670 O.2   336  ALA336     -0.2715
    127  CB        52.0480  157.6800  -10.7660 C.3   336  ALA336      0.0334
    128  N         55.3000  156.3090  -10.0300 N.am  337  GLY337     -0.1955
    129  CA        56.1010  155.0880   -9.9990 C.3   337  GLY337      0.1869
    130  C         56.7360  154.6720  -11.3110 C.2   337  GLY337      0.2309
    131  O         57.5220  153.7210  -11.3360 O.2   337  GLY337     -0.2863
    132  N         58.6620  156.7170  -13.0950 N.3   339  VAL339     -0.1231
    133  CA        59.8930  157.5120  -13.1590 C.3   339  VAL339      0.1692
    134  C         61.1700  156.6290  -13.0860 C.2   339  VAL339      0.2592
    135  O         62.2050  157.0080  -13.6360 O.2   339  VAL339     -0.2718
    136  CB        59.8680  158.6560  -12.0940 C.3   339  VAL339      0.0266
    137  CG1       59.9840  158.1270  -10.6630 C.3   339  VAL339      0.0020
    138  CG2       60.9150  159.7300  -12.3780 C.3   339  VAL339      0.0020
    139  N         61.0690  155.4440  -12.4490 N.am  340  THR340     -0.1953
    140  CA        62.1820  154.5070  -12.2540 C.3   340  THR340      0.1897
    141  C         62.1230  153.2460  -13.1460 C.2   340  THR340      0.2313
    142  O         62.9440  152.3400  -12.9630 O.2   340  THR340     -0.2863
    143  CB        62.2910  154.1280  -10.7630 C.3   340  THR340      0.1794
    144  OG1       61.0390  153.6020  -10.3160 O.3   340  THR340     -0.2208
    145  CG2       62.7210  155.3000   -9.8820 C.3   340  THR340      0.0378
    146  N         48.3470  151.7350   -8.7480 N.3   366  ASP366     -0.1239
    147  CA        49.0350  152.7280   -7.9180 C.3   366  ASP366      0.1674
    148  C         48.3300  152.8920   -6.5700 C.2   366  ASP366      0.2266
    149  O         48.9980  152.9470   -5.5390 O.2   366  ASP366     -0.2867
    150  CB        49.1080  154.0770   -8.6710 C.3   366  ASP366      0.1410
    151  CG        50.0400  155.1370   -8.1010 C.2   366  ASP366      0.3668
    152  OD1       50.9270  154.7820   -7.2910 O.co2 366  ASP366     -0.2456
    153  OD2       49.8910  156.3200   -8.4780 O.co2 366  ASP366     -0.2456
    154  N         49.0890  149.8100   -4.6650 N.3   369  ARG369     -0.1231
    155  CA        50.5360  149.8370   -4.4830 C.3   369  ARG369      0.1694
    156  C         50.8950  150.6750   -3.2480 C.2   369  ARG369      0.2592
    157  O         51.6770  150.2170   -2.4130 O.2   369  ARG369     -0.2718
    158  CB        51.1940  150.3860   -5.7630 C.3   369  ARG369      0.0321
    159  CG        52.6910  150.6410   -5.6850 C.3   369  ARG369      0.0489
    160  CD        53.3590  150.4970   -7.0370 C.3   369  ARG369      0.2205
    161  NE        53.1180  151.6350   -7.9260 N.pl3 369  ARG369     -0.0865
    162  CZ        52.2560  151.6330   -8.9370 C.cat 369  ARG369      0.5346
    163  NH1       51.5170  150.5580   -9.1880 N.pl3 369  ARG369      0.1354
    164  NH2       52.1090  152.7120   -9.6930 N.pl3 369  ARG369      0.1354
    165  N         50.2850  151.8740   -3.1220 N.am  370  THR370     -0.1953
    166  CA        50.4810  152.8210   -2.0150 C.3   370  THR370      0.1897
    167  C         50.0020  152.2300   -0.6840 C.2   370  THR370      0.2313
    168  O         50.6430  152.4540    0.3450 O.2   370  THR370     -0.2863
    169  CB        49.7930  154.1690   -2.3290 C.3   370  THR370      0.1794
    170  OG1       50.1610  154.5920   -3.6420 O.3   370  THR370     -0.2208
    171  CG2       50.1340  155.2690   -1.3180 C.3   370  THR370      0.0378
    172  N         52.6620  150.1990    0.7260 N.3   373  ASN373     -0.1240
    173  CA        53.7520  151.1190    1.1010 C.3   373  ASN373      0.1653
    174  C         53.5200  151.7340    2.4810 C.2   373  ASN373      0.2266
    175  O         54.4780  151.9220    3.2350 O.2   373  ASN373     -0.2867
    176  CB        53.9040  152.2490    0.0750 C.3   373  ASN373      0.1155
    177  CG        54.5830  151.8730   -1.2140 C.2   373  ASN373      0.2627
    178  OD1       54.7910  150.7000   -1.5350 O.2   373  ASN373     -0.2716
    179  ND2       54.9250  152.8760   -1.9990 N.am  373  ASN373     -0.0877
@<TRIPOS>BOND
     1   121   120    2
     2   135   134    2
     3   122   120   am
     4   120   119    1
     5   133   132    1
     6   133   134    1
     7   133   136    1
     8   141   142    2
     9   141   140    1
    10   134   139   am
    11   119   118    1
    12   139   140    1
    13   138   136    1
    14   140   143    1
    15   136   137    1
    16   118   115    1
    17   131   130    2
    18   130   129    1
    19   127   124    1
    20   143   144    1
    21   143   145    1
    22   123   124    1
    23   123   116   am
    24   115   116    1
    25   115   114    1
    26   128   129    1
    27   128   125   am
    28   110   109    2
    29   124   125    1
    30   125   126    2
    31   164   162    1
    32   116   117    2
    33   114   109   am
    34   109   108    1
    35   163   162    1
    36   107   113    1
    37   107   108    1
    38   162   161    2
    39   146   147    1
    40   150   151    1
    41   150   147    1
    42   113   112    1
    43   153   151   ar
    44   108   111    1
    45   151   152   ar
    46   161   160    1
    47   147   148    1
    48   112   111    1
    49   160   159    1
    50    94    93    2
    51   148   149    2
    52    97    95    1
    53    37    36    1
    54    93    92    1
    55    36    33    1
    56   158   159    1
    57   158   155    1
    58   104   103    1
    59   104   105    2
    60    92    95    1
    61    92    91    1
    62    95    96    1
    63    99   100    1
    64    99    98    1
    65   102   100   am
    66   102   103    1
    67   100   101    2
    68   103   106    1
    69    35    34    2
    70   154   155    1
    71   155   156    1
    72    33    34    1
    73    33    32    1
    74    34    38   am
    75   170   169    1
    76   156   165   am
    77   156   157    2
    78   165   166    1
    79    38    39    1
    80    42    39    1
    81    42    43    1
    82    89    90    1
    83    89    88    1
    84    39    40    1
    85   169   166    1
    86   169   171    1
    87    86    85    2
    88   166   167    1
    89   179   177   am
    90    87    88    1
    91    87    84    1
    92   178   177    2
    93   177   176    1
    94    85    84    1
    95    40    44   am
    96    40    41    2
    97   167   168    2
    98    84    83    1
    99    44    45    1
   100    17    18    1
   101    22    24    1
   102    22    21    1
   103    79    78    2
   104   176   173    1
   105    54    55    1
   106    54    51    1
   107    49    48    1
   108    21    18    1
   109    21    23    1
   110   172   173    1
   111    18    19    1
   112    50    51    1
   113    50    46   am
   114    78    77    1
   115    45    48    1
   116    45    46    1
   117   173   174    1
   118    82    80    1
   119    74    73    2
   120    51    52    1
   121    19    20    2
   122    77    80    1
   123    77    76    1
   124    46    47    2
   125    52    53    2
   126    80    81    1
   127    73    76   am
   128    73    72    1
   129     8     6    1
   130   174   175    2
   131     6     5    1
   132     7     5    1
   133    72    75    1
   134    72    71    1
   135     5     2    1
   136    56    57    1
   137    25    26    1
   138    16    14    1
   139     1     2    1
   140    31    29    1
   141     2     3    1
   142    29    26    1
   143    29    30    1
   144     3     4    2
   145    67    66    2
   146    60    57    1
   147    60    61    1
   148    26    27    1
   149    57    58    1
   150    14    13    1
   151    15    13    1
   152    27    28    2
   153    63    61    1
   154    66    65    1
   155    61    62    1
   156    13    10    1
   157    58    59    2
   158    65    68    1
   159    65    64    1
   160    10     9    1
   161    10    11    1
   162    68    69    1
   163    64    70    1
   164    11    12    2
   165    69    70    1
