@<TRIPOS>MOLECULE
tmp/5mk4C01.pdb
 194 183 0 0 0
SMALL
GASTEIGER

@<TRIPOS>ATOM
      1  N         15.4450   25.1490  -20.9320 N.3    26  ILE26      -0.1245
      2  CA        15.5290   24.0460  -19.9740 C.3    26  ILE26       0.1561
      3  C         15.4570   24.5530  -18.5340 C.2    26  ILE26       0.2260
      4  O         14.8410   23.9190  -17.6670 O.2    26  ILE26      -0.2867
      5  CB        16.8100   23.2250  -20.2010 C.3    26  ILE26       0.0252
      6  CG1       16.6990   22.3680  -21.4820 C.3    26  ILE26       0.0019
      7  CG2       17.1740   22.4190  -18.9480 C.3    26  ILE26       0.0019
      8  CD1       18.0030   21.7100  -21.9020 C.3    26  ILE26       0.0001
      9  N         11.8220   25.7790  -17.9760 N.3    29  ALA29      -0.1231
     10  CA        10.8790   24.6640  -17.9320 C.3    29  ALA29       0.1694
     11  C         11.0330   23.8260  -16.6570 C.2    29  ALA29       0.2591
     12  O         10.0330   23.4040  -16.0640 O.2    29  ALA29      -0.2718
     13  CB        11.0510   23.7880  -19.1780 C.3    29  ALA29       0.0304
     14  N         12.2660   23.5430  -16.2430 N.am   30  ALA30      -0.1980
     15  CA        12.4730   22.7110  -15.0560 C.3    30  ALA30       0.1597
     16  C         11.8730   23.3780  -13.8330 C.2    30  ALA30       0.2287
     17  O         11.1470   22.7480  -13.0630 O.2    30  ALA30      -0.2864
     18  CB        13.9640   22.4570  -14.8360 C.3    30  ALA30       0.0319
     19  N          8.0850   23.2380  -13.9090 N.3    33  GLN33      -0.1245
     20  CA         7.4930   21.9320  -13.6420 C.3    33  GLN33       0.1566
     21  C          7.6950   21.4720  -12.2090 C.2    33  GLN33       0.2260
     22  O          6.9880   20.5660  -11.7650 O.2    33  GLN33      -0.2867
     23  CB         8.0130   20.8660  -14.6180 C.3    33  GLN33       0.0367
     24  CG         7.5210   21.1020  -16.0770 C.3    33  GLN33       0.0905
     25  CD         5.9880   21.2400  -16.1670 C.2    33  GLN33       0.2608
     26  OE1        5.4720   22.3620  -16.2560 O.2    33  GLN33      -0.2717
     27  NE2        5.2590   20.1100  -16.1340 N.am   33  GLN33      -0.0878
     28  N         12.9070   14.5680   -7.8710 N.3    63  TRP63      -0.1227
     29  CA        12.2970   15.5210   -8.8000 C.3    63  TRP63       0.1737
     30  C         12.9090   15.3970  -10.2030 C.2    63  TRP63       0.2595
     31  O         12.2000   15.4700  -11.2110 O.2    63  TRP63      -0.2718
     32  CB        12.4390   16.9770   -8.2970 C.3    63  TRP63       0.0564
     33  CG        13.8420   17.4580   -8.2230 C.ar   63  TRP63       0.0003
     34  CD1       14.6980   17.3450   -7.1600 C.ar   63  TRP63       0.0946
     35  CD2       14.5990   18.1140   -9.2790 C.ar   63  TRP63       0.0152
     36  NE1       15.9240   17.8970   -7.4810 N.ar   63  TRP63      -0.2442
     37  CE2       15.8870   18.3780   -8.7660 C.ar   63  TRP63       0.0810
     38  CE3       14.3030   18.5060  -10.5840 C.ar   63  TRP63       0.0012
     39  CZ2       16.8900   18.9960   -9.5240 C.ar   63  TRP63       0.0191
     40  CZ3       15.3020   19.1510  -11.3360 C.ar   63  TRP63       0.0001
     41  CH2       16.5810   19.3850  -10.7970 C.ar   63  TRP63       0.0015
     42  N         14.2180   15.2310  -10.2850 N.am   64  ASN64      -0.1974
     43  CA        14.8920   15.3070  -11.5790 C.3    64  ASN64       0.1688
     44  C         14.4810   14.1400  -12.4570 C.2    64  ASN64       0.2292
     45  O         14.0680   14.3300  -13.6080 O.2    64  ASN64      -0.2864
     46  CB        16.4150   15.3430  -11.3800 C.3    64  ASN64       0.1181
     47  CG        17.1810   15.7110  -12.6670 C.2    64  ASN64       0.2629
     48  OD1       16.7020   16.4960  -13.5110 O.2    64  ASN64      -0.2716
     49  ND2       18.3540   15.1220  -12.8300 N.am   64  ASN64      -0.0877
     50  N         10.8580   14.5800  -13.5220 N.3    67  LEU67      -0.1231
     51  CA        10.6290   15.5010  -14.6430 C.3    67  LEU67       0.1693
     52  C         11.1780   14.9380  -15.9510 C.2    67  LEU67       0.2591
     53  O         10.5770   15.1280  -17.0180 O.2    67  LEU67      -0.2718
     54  CB        11.2700   16.8710  -14.3770 C.3    67  LEU67       0.0284
     55  CG        10.8060   17.6300  -13.1410 C.3    67  LEU67       0.0019
     56  CD1       11.5040   19.0100  -13.1060 C.3    67  LEU67       0.0001
     57  CD2        9.2990   17.7670  -13.1130 C.3    67  LEU67       0.0001
     58  N         12.3340   14.2720  -15.8980 N.am   68  ILE68      -0.1980
     59  CA        12.9000   13.6810  -17.1100 C.3    68  ILE68       0.1595
     60  C         11.9630   12.6300  -17.6750 C.2    68  ILE68       0.2287
     61  O         11.8000   12.5150  -18.8980 O.2    68  ILE68      -0.2864
     62  CB        14.2900   13.0900  -16.8290 C.3    68  ILE68       0.0276
     63  CG1       15.2690   14.2170  -16.5120 C.3    68  ILE68       0.0022
     64  CG2       14.7560   12.2030  -18.0250 C.3    68  ILE68       0.0022
     65  CD1       16.5700   13.7270  -15.8760 C.3    68  ILE68       0.0001
     66  N          8.7610   12.6740  -17.4250 N.3    70  SER70      -0.1202
     67  CA         7.6030   13.3390  -18.0220 C.3    70  SER70       0.2020
     68  C          7.9440   13.9690  -19.3650 C.2    70  SER70       0.2618
     69  O          7.1860   13.8310  -20.3280 O.2    70  SER70      -0.2717
     70  CB         7.0460   14.3840  -17.0570 C.3    70  SER70       0.2103
     71  OG         6.4620   13.7170  -15.9610 O.3    70  SER70      -0.2182
     72  N          9.0720   14.6770  -19.4680 N.am   71  PHE71      -0.1975
     73  CA         9.2810   15.3190  -20.7590 C.3    71  PHE71       0.1639
     74  C          9.6470   14.2840  -21.8050 C.2    71  PHE71       0.2290
     75  O          9.3800   14.4860  -22.9970 O.2    71  PHE71      -0.2864
     76  CB        10.3310   16.4470  -20.7320 C.3    71  PHE71       0.0560
     77  CG        11.7770   16.0250  -20.4660 C.ar   71  PHE71      -0.0200
     78  CD1       12.5240   15.4180  -21.4670 C.ar   71  PHE71      -0.0042
     79  CD2       12.4500   16.4850  -19.3500 C.ar   71  PHE71      -0.0042
     80  CE1       13.8520   15.1090  -21.2830 C.ar   71  PHE71      -0.0003
     81  CE2       13.7990   16.1930  -19.1490 C.ar   71  PHE71      -0.0003
     82  CZ        14.5060   15.5030  -20.1330 C.ar   71  PHE71      -0.0000
     83  N          6.3030   12.9770  -23.0030 N.3    74  ARG74      -0.1245
     84  CA         5.6230   14.0350  -23.7460 C.3    74  ARG74       0.1563
     85  C          6.1650   14.1380  -25.1620 C.2    74  ARG74       0.2260
     86  O          5.4530   14.5700  -26.0800 O.2    74  ARG74      -0.2867
     87  CB         5.8370   15.3680  -23.0280 C.3    74  ARG74       0.0307
     88  CG         5.1260   16.5950  -23.5790 C.3    74  ARG74       0.0489
     89  CD         5.8380   17.7380  -22.8960 C.3    74  ARG74       0.2205
     90  NE         5.6770   17.7160  -21.4440 N.pl3  74  ARG74      -0.0865
     91  CZ         6.5660   18.2660  -20.6200 C.cat  74  ARG74       0.5346
     92  NH1        7.6970   18.7660  -21.1200 N.pl3  74  ARG74       0.1354
     93  NH2        6.3840   18.2230  -19.3040 N.pl3  74  ARG74       0.1354
     94  N         12.9920   16.9810  -28.3810 N.3    82  ILE82      -0.1245
     95  CA        12.3850   17.0780  -27.0630 C.3    82  ILE82       0.1561
     96  C         11.3540   18.1920  -27.0800 C.2    82  ILE82       0.2260
     97  O         11.5550   19.2320  -27.7210 O.2    82  ILE82      -0.2867
     98  CB        13.4590   17.3170  -25.9840 C.3    82  ILE82       0.0252
     99  CG1       14.4070   16.1310  -25.9650 C.3    82  ILE82       0.0019
    100  CG2       12.8360   17.5400  -24.6330 C.3    82  ILE82       0.0019
    101  CD1       13.6860   14.8720  -25.6600 C.3    82  ILE82       0.0001
    102  N          9.9260   20.5760  -24.4930 N.3    84  LEU84      -0.1231
    103  CA        10.0030   21.1260  -23.1430 C.3    84  LEU84       0.1693
    104  C          8.6360   21.6280  -22.6990 C.2    84  LEU84       0.2591
    105  O          7.7290   21.8380  -23.5090 O.2    84  LEU84      -0.2718
    106  CB        11.0190   22.2670  -23.0720 C.3    84  LEU84       0.0284
    107  CG        12.4760   21.9120  -23.3310 C.3    84  LEU84       0.0019
    108  CD1       13.3270   23.1660  -23.3640 C.3    84  LEU84       0.0001
    109  CD2       12.9820   20.9240  -22.2490 C.3    84  LEU84       0.0001
    110  N          8.4820   21.8280  -21.3850 N.am   85  ALA85      -0.1980
    111  CA         7.1990   22.3620  -20.9570 C.3    85  ALA85       0.1597
    112  C          7.0210   23.8340  -21.3390 C.2    85  ALA85       0.2287
    113  O          5.9040   24.3330  -21.2380 O.2    85  ALA85      -0.2864
    114  CB         7.0220   22.1680  -19.4460 C.3    85  ALA85       0.0319
    115  N         13.3720   21.1940  -28.5840 N.3    90  VAL90      -0.1245
    116  CA        14.8100   21.0700  -28.7720 C.3    90  VAL90       0.1561
    117  C         15.0490   19.9710  -29.7980 C.2    90  VAL90       0.2260
    118  O         14.6610   18.8170  -29.5830 O.2    90  VAL90      -0.2867
    119  CB        15.5290   20.7500  -27.4580 C.3    90  VAL90       0.0252
    120  CG1       17.0400   20.6820  -27.7140 C.3    90  VAL90       0.0019
    121  CG2       15.1550   21.7450  -26.3880 C.3    90  VAL90       0.0019
    122  N         20.5730   21.3060  -29.8300 N.3    95  ALA95      -0.1245
    123  CA        21.0700   20.7160  -28.5950 C.3    95  ALA95       0.1562
    124  C         22.5880   20.6000  -28.6140 C.2    95  ALA95       0.2260
    125  O         23.2610   20.9180  -27.6220 O.2    95  ALA95      -0.2867
    126  CB        20.4160   19.3500  -28.3530 C.3    95  ALA95       0.0290
    127  N         24.5700   20.3910  -24.9680 N.3   100  VAL100     -0.1245
    128  CA        23.8900   19.2300  -24.3680 C.3   100  VAL100      0.1561
    129  C         23.6180   18.1830  -25.4440 C.2   100  VAL100      0.2260
    130  O         22.6120   17.4600  -25.4150 O.2   100  VAL100     -0.2867
    131  CB        22.5950   19.6280  -23.6260 C.3   100  VAL100      0.0252
    132  CG1       22.9070   20.4760  -22.3930 C.3   100  VAL100      0.0019
    133  CG2       21.6680   20.4060  -24.5410 C.3   100  VAL100      0.0019
    134  N         23.6650   14.1690  -24.1890 N.3   103  ILE103     -0.1231
    135  CA        22.5200   13.7220  -23.4040 C.3   103  ILE103      0.1692
    136  C         21.2590   13.7820  -24.2450 C.2   103  ILE103      0.2592
    137  O         20.3580   12.9380  -24.1020 O.2   103  ILE103     -0.2718
    138  CB        22.4200   14.5470  -22.1100 C.3   103  ILE103      0.0266
    139  CG1       21.4640   13.8700  -21.1270 C.3   103  ILE103      0.0019
    140  CG2       22.0020   15.9670  -22.4100 C.3   103  ILE103      0.0020
    141  CD1       21.9520   12.5160  -20.6990 C.3   103  ILE103      0.0001
    142  N         21.1850   14.7380  -25.1740 N.am  104  PHE104     -0.1976
    143  CA        20.0940   14.7250  -26.1330 C.3   104  PHE104      0.1639
    144  C         20.0130   13.3690  -26.8130 C.2   104  PHE104      0.2290
    145  O         18.9430   12.7660  -26.8980 O.2   104  PHE104     -0.2864
    146  CB        20.3080   15.8230  -27.1800 C.3   104  PHE104      0.0560
    147  CG        19.2700   15.8330  -28.2730 C.ar  104  PHE104     -0.0200
    148  CD1       18.1160   16.5900  -28.1540 C.ar  104  PHE104     -0.0042
    149  CD2       19.4240   15.0400  -29.3900 C.ar  104  PHE104     -0.0042
    150  CE1       17.1620   16.5950  -29.1660 C.ar  104  PHE104     -0.0003
    151  CE2       18.4460   15.0250  -30.3980 C.ar  104  PHE104     -0.0003
    152  CZ        17.3300   15.7880  -30.2770 C.ar  104  PHE104     -0.0000
    153  N         18.8180   10.5840  -24.4130 N.3   107  VAL107     -0.1245
    154  CA        17.4150   10.6790  -24.0420 C.3   107  VAL107      0.1561
    155  C         16.5290   10.1240  -25.1460 C.2   107  VAL107      0.2260
    156  O         15.5540    9.4150  -24.8780 O.2   107  VAL107     -0.2867
    157  CB        17.0480   12.1330  -23.6990 C.3   107  VAL107      0.0252
    158  CG1       15.5370   12.2520  -23.6280 C.3   107  VAL107      0.0019
    159  CG2       17.6910   12.5080  -22.3420 C.3   107  VAL107      0.0019
    160  N         21.9680   14.8980  -16.5960 N.3   190  CYS190     -0.1235
    161  CA        21.2270   16.1550  -16.6080 C.3   190  CYS190      0.1677
    162  C         21.5600   17.0080  -15.3900 C.2   190  CYS190      0.2270
    163  O         21.7780   18.2200  -15.5070 O.2   190  CYS190     -0.2867
    164  CB        19.7230   15.8800  -16.6700 C.3   190  CYS190      0.0956
    165  SG        19.1400   15.2400  -18.2730 S.3   190  CYS190     -0.0801
    166  N         24.8060   18.7220  -15.8260 N.3   193  HIS193     -0.1226
    167  CA        24.6330   19.9270  -16.6370 C.3   193  HIS193      0.1752
    168  C         24.1050   21.0880  -15.8150 C.2   193  HIS193      0.2595
    169  O         24.6420   22.2000  -15.8990 O.2   193  HIS193     -0.2718
    170  CB        23.7110   19.6790  -17.8370 C.3   193  HIS193      0.0759
    171  CG        24.3410   18.9050  -18.9550 C.ar  193  HIS193      0.0818
    172  ND1       25.3590   19.4240  -19.7320 N.ar  193  HIS193     -0.2268
    173  CD2       24.0290   17.7030  -19.5010 C.ar  193  HIS193      0.1154
    174  CE1       25.6790   18.5520  -20.6750 C.ar  193  HIS193      0.1986
    175  NE2       24.8860   17.5010  -20.5580 N.ar  193  HIS193     -0.2212
    176  N         23.0330   20.8680  -15.0350 N.am  194  LEU194     -0.1980
    177  CA        22.5250   21.9520  -14.1940 C.3   194  LEU194      0.1596
    178  C         23.5930   22.5660  -13.3270 C.2   194  LEU194      0.2287
    179  O         23.6660   23.7980  -13.2010 O.2   194  LEU194     -0.2864
    180  CB        21.3690   21.5220  -13.2950 C.3   194  LEU194      0.0297
    181  CG        19.9970   21.5400  -13.8920 C.3   194  LEU194      0.0022
    182  CD1       19.0360   21.0000  -12.8310 C.3   194  LEU194      0.0001
    183  CD2       19.6860   23.0270  -14.2180 C.3   194  LEU194      0.0001
    184  N         25.5620   24.7500  -15.4700 N.3   197  PHE197     -0.1241
    185  CA        24.7700   25.9550  -15.7440 C.3   197  PHE197      0.1605
    186  C         24.7960   26.9180  -14.5570 C.2   197  PHE197      0.2264
    187  O         24.9120   28.1420  -14.7290 O.2   197  PHE197     -0.2867
    188  CB        23.3250   25.5820  -16.0530 C.3   197  PHE197      0.0534
    189  CG        23.1520   24.6780  -17.2610 C.ar  197  PHE197     -0.0203
    190  CD1       24.1740   24.5300  -18.1700 C.ar  197  PHE197     -0.0042
    191  CD2       21.9610   23.9920  -17.4640 C.ar  197  PHE197     -0.0042
    192  CE1       24.0280   23.7110  -19.2760 C.ar  197  PHE197     -0.0003
    193  CE2       21.8010   23.1540  -18.5850 C.ar  197  PHE197     -0.0003
    194  CZ        22.8410   23.0140  -19.4800 C.ar  197  PHE197     -0.0000
@<TRIPOS>BOND
     1   151   152   ar
     2   151   149   ar
     3   152   150   ar
     4   122   123    1
     5   117   118    2
     6   117   116    1
     7   149   147   ar
     8   150   148   ar
     9   116   115    1
    10   116   119    1
    11   124   123    1
    12   124   125    2
    13   123   126    1
    14    94    95    1
    15   147   148   ar
    16   147   146    1
    17    97    96    2
    18   120   119    1
    19   119   121    1
    20   146   143    1
    21    96    95    1
    22    95    98    1
    23   145   144    2
    24   144   143    1
    25   143   142    1
    26    86    85    2
    27    98    99    1
    28    98   100    1
    29    99   101    1
    30   129   130    2
    31   129   128    1
    32   142   136   am
    33    85    84    1
    34   155   156    2
    35   155   154    1
    36   127   128    1
    37   133   131    1
    38   102   103    1
    39   153   154    1
    40   128   131    1
    41   136   137    2
    42   136   135    1
    43   134   135    1
    44   154   157    1
    45    84    87    1
    46    84    83    1
    47   157   158    1
    48   157   159    1
    49   131   132    1
    50    88    87    1
    51    88    89    1
    52   105   104    2
    53   135   138    1
    54   108   107    1
    55   107   106    1
    56   107   109    1
    57   103   106    1
    58   103   104    1
    59    75    74    2
    60    89    90    1
    61   104   110   am
    62   140   138    1
    63   138   139    1
    64     8     6    1
    65    74    73    1
    66     6     5    1
    67    78    80   ar
    68    78    77   ar
    69    90    91    2
    70   110   111    1
    71   112   113    2
    72   112   111    1
    73    80    82   ar
    74   139   141    1
    75    92    91    1
    76   111   114    1
    77     1     2    1
    78    73    76    1
    79    73    72    1
    80    76    77    1
    81   174   175   ar
    82   174   172   ar
    83    91    93    1
    84   175   173   ar
    85    77    79   ar
    86    69    68    2
    87     5     2    1
    88     5     7    1
    89    82    81   ar
    90     2     3    1
    91   172   171   ar
    92   173   171   ar
    93   194   192   ar
    94   194   193   ar
    95    72    68   am
    96    68    67    1
    97    79    81   ar
    98   192   190   ar
    99    13    10    1
   100   171   170    1
   101    61    60    2
   102   193   191   ar
   103     3     4    2
   104   165   164    1
   105   190   189   ar
   106    64    62    1
   107    67    66    1
   108    67    70    1
   109     9    10    1
   110    10    11    1
   111   170   167    1
   112    60    59    1
   113   191   189   ar
   114   189   188    1
   115    59    62    1
   116    59    58    1
   117    70    71    1
   118    53    52    2
   119    62    63    1
   120   164   161    1
   121    11    14   am
   122    11    12    2
   123   167   166    1
   124   167   168    1
   125   161   160    1
   126   161   162    1
   127    63    65    1
   128    26    25    2
   129    14    15    1
   130    25    27   am
   131    25    24    1
   132    24    23    1
   133   188   185    1
   134    52    58   am
   135    52    51    1
   136   169   168    2
   137   168   176   am
   138   185   184    1
   139   185   186    1
   140   163   162    2
   141    15    18    1
   142    15    16    1
   143   176   177    1
   144   187   186    2
   145    51    54    1
   146    51    50    1
   147    23    20    1
   148    54    55    1
   149   183   181    1
   150   177   178    1
   151   177   180    1
   152    19    20    1
   153   181   180    1
   154   181   182    1
   155    16    17    2
   156    20    21    1
   157    45    44    2
   158    48    47    2
   159   178   179    2
   160    55    57    1
   161    55    56    1
   162    49    47   am
   163    47    46    1
   164    44    43    1
   165    21    22    2
   166    43    46    1
   167    43    42    1
   168    40    41   ar
   169    40    38   ar
   170    31    30    2
   171    41    39   ar
   172    38    35   ar
   173    42    30   am
   174    30    29    1
   175    39    37   ar
   176    35    37   ar
   177    35    33   ar
   178    29    32    1
   179    29    28    1
   180    37    36   ar
   181    32    33    1
   182    33    34   ar
   183    36    34   ar
