@<TRIPOS>MOLECULE
tmp/5mk9A00.pdb
 224 215 0 0 0
SMALL
GASTEIGER

@<TRIPOS>ATOM
      1  N        -18.4620   -5.0340   -0.7840 N.3    16  ASP16      -0.1225
      2  CA       -18.3820   -6.4820   -0.7970 C.3    16  ASP16       0.1805
      3  C        -19.6680   -7.1160   -1.3180 C.2    16  ASP16       0.2598
      4  O        -20.7490   -6.5360   -1.2910 O.2    16  ASP16      -0.2718
      5  CB       -18.0820   -7.0120    0.6110 C.3    16  ASP16       0.1424
      6  CG       -16.6210   -6.8210    1.0180 C.2    16  ASP16       0.3668
      7  OD1      -15.9280   -5.9340    0.4820 O.co2  16  ASP16      -0.2456
      8  OD2      -16.1240   -7.5800    1.8720 O.co2  16  ASP16      -0.2456
      9  N        -19.5260   -8.3470   -1.7930 N.am   17  THR17      -0.1953
     10  CA       -20.6700   -9.1060   -2.2410 C.3    17  THR17       0.1897
     11  C        -21.7150   -9.1820   -1.1300 C.2    17  THR17       0.2313
     12  O        -21.3970   -9.3880    0.0450 O.2    17  THR17      -0.2863
     13  CB       -20.1860  -10.4800   -2.6950 C.3    17  THR17       0.1794
     14  OG1      -19.1520  -10.2630   -3.6710 O.3    17  THR17      -0.2208
     15  CG2      -21.3120  -11.2780   -3.3070 C.3    17  THR17       0.0378
     16  N        -23.5080   -6.6150   -0.2610 N.3    19  GLN19      -0.1245
     17  CA       -23.7060   -5.2980    0.3280 C.3    19  GLN19       0.1566
     18  C        -24.2900   -4.2810   -0.6410 C.2    19  GLN19       0.2260
     19  O        -24.7430   -3.2210   -0.1940 O.2    19  GLN19      -0.2867
     20  CB       -22.3740   -4.7550    0.8900 C.3    19  GLN19       0.0367
     21  CG       -21.7460   -5.7230    1.8880 C.3    19  GLN19       0.0905
     22  CD       -20.5030   -5.2320    2.5530 C.2    19  GLN19       0.2608
     23  OE1      -19.9690   -5.8940    3.4720 O.2    19  GLN19      -0.2717
     24  NE2      -19.9680   -4.1440    2.0630 N.am   19  GLN19      -0.0878
     25  N        -16.7780   -5.2350   -5.5510 N.3    44  SER44      -0.1203
     26  CA       -15.3980   -5.3080   -5.9660 C.3    44  SER44       0.2005
     27  C        -15.0880   -6.7000   -6.5080 C.2    44  SER44       0.2461
     28  O        -15.8120   -7.6670   -6.2360 O.2    44  SER44      -0.2732
     29  CB       -14.4840   -5.0700   -4.7770 C.3    44  SER44       0.2103
     30  OG       -14.7620   -6.0420   -3.7790 O.3    44  SER44      -0.2182
     31  N        -13.9900   -6.8290   -7.2590 N.am   45  PRO45      -0.2717
     32  CA       -13.6490   -8.1520   -7.7970 C.3    45  PRO45       0.1535
     33  C        -13.5080   -9.2210   -6.7320 C.2    45  PRO45       0.2599
     34  O        -13.9880  -10.3470   -6.9430 O.2    45  PRO45      -0.2715
     35  CB       -12.3600   -7.8810   -8.5800 C.3    45  PRO45       0.0310
     36  CG       -12.5440   -6.4610   -9.0540 C.3    45  PRO45       0.0237
     37  CD       -13.1910   -5.7600   -7.8940 C.3    45  PRO45       0.0939
     38  N        -12.8550   -8.9220   -5.6100 N.am   46  ASN46      -0.1959
     39  CA       -12.5320   -9.9620   -4.6360 C.3    46  ASN46       0.1819
     40  C        -12.7620   -9.5600   -3.1860 C.2    46  ASN46       0.2622
     41  O        -12.3460  -10.2930   -2.2850 O.2    46  ASN46      -0.2715
     42  CB       -11.1010  -10.4670   -4.8110 C.3    46  ASN46       0.1195
     43  CG       -10.9020  -11.1640   -6.1290 C.2    46  ASN46       0.2630
     44  OD1      -11.3090  -12.3140   -6.3010 O.2    46  ASN46      -0.2716
     45  ND2      -10.3130  -10.4640   -7.0810 N.am   46  ASN46      -0.0877
     46  N        -13.4140   -8.4300   -2.9360 N.am   47  GLY47      -0.1940
     47  CA       -13.7960   -8.0510   -1.5980 C.3    47  GLY47       0.2014
     48  C        -12.7670   -7.1940   -0.8810 C.2    47  GLY47       0.2640
     49  O        -11.6040   -7.0870   -1.2690 O.2    47  GLY47      -0.2714
     50  N        -13.2330   -6.6130    0.2240 N.am   48  SER48      -0.1935
     51  CA       -12.4300   -5.7560    1.0790 C.3    48  SER48       0.2055
     52  C        -11.1990   -6.4500    1.6360 C.2    48  SER48       0.2643
     53  O        -10.2050   -5.7760    1.9230 O.2    48  SER48      -0.2714
     54  CB       -13.3190   -5.2390    2.2060 C.3    48  SER48       0.2130
     55  OG       -13.8970   -6.2990    2.9410 O.3    48  SER48      -0.2179
     56  N        -11.2430   -7.7820    1.8050 N.am   49  ALA49      -0.1963
     57  CA       -10.0820   -8.5400    2.2760 C.3    49  ALA49       0.1728
     58  C         -9.0040   -8.6850    1.2010 C.2    49  ALA49       0.2616
     59  O         -7.9240   -9.2070    1.4820 O.2    49  ALA49      -0.2715
     60  CB       -10.5270   -9.9110    2.7660 C.3    49  ALA49       0.0334
     61  N         -9.2790   -8.1980   -0.0010 N.am   50  ASN50      -0.1972
     62  CA        -8.3830   -8.2870   -1.1480 C.3    50  ASN50       0.1688
     63  C         -8.2160   -6.9410   -1.8370 C.2    50  ASN50       0.2292
     64  O         -7.7940   -6.8910   -3.0050 O.2    50  ASN50      -0.2864
     65  CB        -8.9140   -9.3030   -2.1530 C.3    50  ASN50       0.1181
     66  CG        -8.7890  -10.6960   -1.6520 C.2    50  ASN50       0.2629
     67  OD1       -7.7080  -11.2650   -1.6980 O.2    50  ASN50      -0.2716
     68  ND2       -9.8780  -11.2630   -1.1680 N.am   50  ASN50      -0.0877
     69  N         -6.1410   -4.3720   -1.5980 N.3    52  LYS52      -0.1231
     70  CA        -4.8760   -3.8660   -2.0860 C.3    52  LYS52       0.1693
     71  C         -4.4920   -4.5430   -3.3940 C.2    52  LYS52       0.2592
     72  O         -3.8510   -3.9110   -4.2320 O.2    52  LYS52      -0.2718
     73  CB        -3.7970   -4.0050   -1.0410 C.3    52  LYS52       0.0285
     74  CG        -3.5000   -5.3830   -0.7330 C.3    52  LYS52       0.0035
     75  CD        -2.4690   -5.4940    0.3590 C.3    52  LYS52       0.0206
     76  CE        -1.9700   -6.9130    0.5130 C.3    52  LYS52       0.1093
     77  NZ        -2.9710   -7.8670    0.9650 N.3    52  LYS52      -0.1314
     78  N         -4.8710   -5.8130   -3.5710 N.am   53  THR53      -0.1953
     79  CA        -4.6390   -6.5280   -4.8250 C.3    53  THR53       0.1897
     80  C         -5.5610   -6.0270   -5.9310 C.2    53  THR53       0.2313
     81  O         -5.1230   -5.7520   -7.0510 O.2    53  THR53      -0.2863
     82  CB        -4.8690   -8.0250   -4.6100 C.3    53  THR53       0.1794
     83  OG1       -4.0090   -8.4860   -3.5670 O.3    53  THR53      -0.2208
     84  CG2       -4.6630   -8.8090   -5.8880 C.3    53  THR53       0.0378
     85  N        -14.0840   -0.4200   -0.4270 N.3    67  GLU67      -0.1245
     86  CA       -14.0590   -1.0040    0.9000 C.3    67  GLU67       0.1567
     87  C        -12.7190   -1.7160    1.1100 C.2    67  GLU67       0.2260
     88  O        -12.2330   -2.4260    0.2230 O.2    67  GLU67      -0.2867
     89  CB       -15.2390   -1.9680    1.0470 C.3    67  GLU67       0.0388
     90  CG       -15.5750   -2.2960    2.5010 C.3    67  GLU67       0.1160
     91  CD       -16.8080   -3.1280    2.6780 C.2    67  GLU67       0.3649
     92  OE1      -17.7110   -2.9400    1.8320 O.co2  67  GLU67      -0.2457
     93  OE2      -16.9220   -3.9190    3.6300 O.co2  67  GLU67      -0.2457
     94  N        -10.1600   -3.5430    4.4080 N.3    69  ALA69      -0.1245
     95  CA        -9.8500   -3.8690    5.7910 C.3    69  ALA69       0.1562
     96  C         -8.6160   -3.1030    6.2660 C.2    69  ALA69       0.2260
     97  O         -7.6620   -2.8830    5.5170 O.2    69  ALA69      -0.2867
     98  CB        -9.6060   -5.3710    5.9130 C.3    69  ALA69       0.0290
     99  N         -5.9490   -3.6370    7.9770 N.3    71  ASP71      -0.1225
    100  CA        -4.5870   -4.1560    7.9360 C.3    71  ASP71       0.1805
    101  C         -3.8520   -3.7950    6.6590 C.2    71  ASP71       0.2597
    102  O         -2.6130   -3.8070    6.6470 O.2    71  ASP71      -0.2718
    103  CB        -4.5500   -5.6890    8.0850 C.3    71  ASP71       0.1424
    104  CG        -5.2910   -6.4130    6.9760 C.2    71  ASP71       0.3668
    105  OD1       -6.5020   -6.1500    6.8170 O.co2  71  ASP71      -0.2456
    106  OD2       -4.6580   -7.2560    6.2740 O.co2  71  ASP71      -0.2456
    107  N         -4.5840   -3.5040    5.5780 N.am   72  GLN72      -0.1979
    108  CA        -3.9850   -3.2460    4.2740 C.3    72  GLN72       0.1601
    109  C         -3.5140   -1.8020    4.1200 C.2    72  GLN72       0.2287
    110  O         -2.8660   -1.4670    3.1180 O.2    72  GLN72      -0.2864
    111  CB        -5.0030   -3.5970    3.1840 C.3    72  GLN72       0.0394
    112  CG        -5.4180   -5.0440    3.2940 C.3    72  GLN72       0.0908
    113  CD        -6.0800   -5.5700    2.0750 C.2    72  GLN72       0.2608
    114  OE1       -6.3740   -4.8260    1.1360 O.2    72  GLN72      -0.2717
    115  NE2       -6.3080   -6.8750    2.0620 N.am   72  GLN72      -0.0878
    116  N        -15.0880   -5.2090   13.6450 N.3   119  GLN119     -0.1245
    117  CA       -15.2160   -6.6410   13.3940 C.3   119  GLN119      0.1566
    118  C        -14.3610   -7.4240   14.3740 C.2   119  GLN119      0.2260
    119  O        -13.1350   -7.3320   14.3450 O.2   119  GLN119     -0.2867
    120  CB       -14.7720   -6.9670   11.9710 C.3   119  GLN119      0.0367
    121  CG       -15.6570   -6.3150   10.9190 C.3   119  GLN119      0.0905
    122  CD       -15.2060   -6.5730    9.5170 C.2   119  GLN119      0.2608
    123  OE1      -14.0490   -6.9450    9.2730 O.2   119  GLN119     -0.2717
    124  NE2      -16.0980   -6.3270    8.5620 N.am  119  GLN119     -0.0878
    125  N         -6.9270  -20.6700    7.7500 N.3   153  ASN153     -0.1225
    126  CA        -7.2010  -19.2430    7.7670 C.3   153  ASN153      0.1785
    127  C         -6.5140  -18.6360    8.9870 C.2   153  ASN153      0.2597
    128  O         -6.9310  -18.8490   10.1280 O.2   153  ASN153     -0.2718
    129  CB        -8.7070  -19.0150    7.7830 C.3   153  ASN153      0.1169
    130  CG        -9.0510  -17.5530    7.6610 C.2   153  ASN153      0.2627
    131  OD1       -8.3330  -16.7180    8.1440 O.2   153  ASN153     -0.2716
    132  ND2      -10.1410  -17.2310    7.0310 N.am  153  ASN153     -0.0877
    133  N         -5.4290  -17.8980    8.7380 N.am  154  ALA154     -0.1966
    134  CA        -4.6540  -17.3210    9.8290 C.3   154  ALA154      0.1728
    135  C         -5.4150  -16.2390   10.5900 C.2   154  ALA154      0.2616
    136  O         -5.0880  -15.9480   11.7480 O.2   154  ALA154     -0.2715
    137  CB        -3.3370  -16.7520    9.3000 C.3   154  ALA154      0.0334
    138  N         -6.3960  -15.6030    9.9540 N.am  155  TYR155     -0.1974
    139  CA        -7.2450  -14.6560   10.6640 C.3   155  TYR155      0.1639
    140  C         -8.0200  -15.3450   11.7830 C.2   155  TYR155      0.2290
    141  O         -8.2780  -14.7390   12.8260 O.2   155  TYR155     -0.2864
    142  CB        -8.1580  -13.9600    9.6650 C.3   155  TYR155      0.0560
    143  CG        -9.1250  -12.9640   10.2470 C.ar  155  TYR155     -0.0198
    144  CD1       -8.7780  -11.6320   10.3910 C.ar  155  TYR155     -0.0009
    145  CD2      -10.4220  -13.3410   10.5700 C.ar  155  TYR155     -0.0009
    146  CE1       -9.7000  -10.6850   10.8470 C.ar  155  TYR155      0.0417
    147  CE2      -11.3460  -12.4090   11.0130 C.ar  155  TYR155      0.0417
    148  CZ       -10.9880  -11.0810   11.1300 C.ar  155  TYR155      0.1957
    149  OH       -11.9530  -10.1940   11.5540 O.3   155  TYR155     -0.2866
    150  N        -20.1340   -9.9710    9.6420 N.3   225  TRP225     -0.1227
    151  CA       -20.5300   -9.9250    8.2480 C.3   225  TRP225      0.1737
    152  C        -21.4460  -11.0980    7.8710 C.2   225  TRP225      0.2595
    153  O        -22.2460  -10.9510    6.9470 O.2   225  TRP225     -0.2718
    154  CB       -19.2850   -9.8640    7.3410 C.3   225  TRP225      0.0564
    155  CG       -18.3460  -11.0110    7.5970 C.ar  225  TRP225      0.0003
    156  CD1      -18.4190  -12.2680    7.0680 C.ar  225  TRP225      0.0946
    157  CD2      -17.2230  -11.0190    8.4840 C.ar  225  TRP225      0.0152
    158  NE1      -17.4110  -13.0560    7.5680 N.ar  225  TRP225     -0.2442
    159  CE2      -16.6690  -12.3180    8.4500 C.ar  225  TRP225      0.0810
    160  CE3      -16.5960  -10.0470    9.2740 C.ar  225  TRP225      0.0012
    161  CZ2      -15.5500  -12.6720    9.1960 C.ar  225  TRP225      0.0191
    162  CZ3      -15.4690  -10.3940    9.9920 C.ar  225  TRP225      0.0001
    163  CH2      -14.9590  -11.6900    9.9580 C.ar  225  TRP225      0.0015
    164  N        -21.3530  -12.2550    8.5530 N.am  226  ASN226     -0.1974
    165  CA       -22.1720  -13.4400    8.2340 C.3   226  ASN226      0.1688
    166  C        -23.3370  -13.6260    9.1990 C.2   226  ASN226      0.2292
    167  O        -24.0510  -14.6310    9.1280 O.2   226  ASN226     -0.2864
    168  CB       -21.3360  -14.7270    8.2010 C.3   226  ASN226      0.1181
    169  CG       -20.6450  -14.9580    6.9100 C.2   226  ASN226      0.2629
    170  OD1      -21.0380  -14.4410    5.8530 O.2   226  ASN226     -0.2716
    171  ND2      -19.5870  -15.7340    6.9720 N.am  226  ASN226     -0.0877
    172  N        -13.3720   -2.0930    9.4650 N.3   262  GLU262     -0.1245
    173  CA       -13.7650   -2.0320    8.0630 C.3   262  GLU262      0.1567
    174  C        -13.8800   -0.5690    7.6690 C.2   262  GLU262      0.2260
    175  O        -14.4060    0.2420    8.4380 O.2   262  GLU262     -0.2867
    176  CB       -15.0850   -2.7750    7.8460 C.3   262  GLU262      0.0388
    177  CG       -15.3640   -3.1170    6.4000 C.3   262  GLU262      0.1160
    178  CD       -14.3400   -4.0390    5.8470 C.2   262  GLU262      0.3649
    179  OE1      -14.4100   -5.2420    6.1440 O.co2 262  GLU262     -0.2457
    180  OE2      -13.4320   -3.5380    5.1560 O.co2 262  GLU262     -0.2457
    181  N        -23.7130   -5.6850   11.0310 N.3   300  GLN300     -0.1245
    182  CA       -22.3760   -5.2220   11.3550 C.3   300  GLN300      0.1566
    183  C        -22.4380   -4.0610   12.3500 C.2   300  GLN300      0.2260
    184  O        -23.4200   -3.3140   12.4260 O.2   300  GLN300     -0.2867
    185  CB       -21.5800   -4.8690   10.0990 C.3   300  GLN300      0.0367
    186  CG       -21.1770   -6.1110    9.2860 C.3   300  GLN300      0.0905
    187  CD       -19.8190   -5.9840    8.6410 C.2   300  GLN300      0.2608
    188  OE1      -18.8200   -5.7570    9.3270 O.2   300  GLN300     -0.2717
    189  NE2      -19.7760   -6.1030    7.3170 N.am  300  GLN300     -0.0878
    190  N         -5.7790   -5.4790   14.2990 N.3   334  MET334     -0.1245
    191  CA        -4.8910   -5.9610   13.2420 C.3   334  MET334      0.1570
    192  C         -3.8490   -4.8940   12.9370 C.2   334  MET334      0.2261
    193  O         -4.2340   -3.7510   12.5950 O.2   334  MET334     -0.2867
    194  CB        -5.6060   -6.2410   11.9270 C.3   334  MET334      0.0387
    195  CG        -6.5320   -7.4420   11.9590 C.3   334  MET334      0.0595
    196  SD        -7.0270   -8.0060   10.3110 S.3   334  MET334     -0.1393
    197  CE        -8.1420   -6.6960    9.8070 C.3   334  MET334      0.0692
    198  N          1.1550   -8.3720    4.1760 N.3   341  ALA341     -0.1245
    199  CA         0.8530   -9.3900    3.1650 C.3   341  ALA341      0.1562
    200  C          1.7440  -10.6180    3.3540 C.2   341  ALA341      0.2260
    201  O          1.2930  -11.7650    3.2180 O.2   341  ALA341     -0.2867
    202  CB         1.0190   -8.8320    1.7570 C.3   341  ALA341      0.0290
    203  N          0.5130  -12.6000    6.4070 N.3   344  TRP344     -0.1227
    204  CA        -0.6130  -13.4930    6.1810 C.3   344  TRP344      0.1737
    205  C         -0.1870  -14.7160    5.3800 C.2   344  TRP344      0.2595
    206  O         -0.6230  -15.8450    5.6550 O.2   344  TRP344     -0.2718
    207  CB        -1.7520  -12.7820    5.4570 C.3   344  TRP344      0.0564
    208  CG        -2.4260  -11.7070    6.2290 C.ar  344  TRP344      0.0003
    209  CD1       -2.4980  -10.3850    5.8890 C.ar  344  TRP344      0.0946
    210  CD2       -3.1650  -11.8350    7.4540 C.ar  344  TRP344      0.0152
    211  NE1       -3.2240   -9.6840    6.8180 N.ar  344  TRP344     -0.2442
    212  CE2       -3.6540  -10.5540    7.7860 C.ar  344  TRP344      0.0810
    213  CE3       -3.4760  -12.9130    8.2970 C.ar  344  TRP344      0.0012
    214  CZ2       -4.4270  -10.3310    8.9180 C.ar  344  TRP344      0.0191
    215  CZ3       -4.2460  -12.6910    9.4080 C.ar  344  TRP344      0.0001
    216  CH2       -4.6940  -11.3980    9.7250 C.ar  344  TRP344      0.0015
    217  N          0.6780  -14.5160    4.3900 N.am  345  ASN345     -0.1974
    218  CA         1.0660  -15.6200    3.5260 C.3   345  ASN345      0.1688
    219  C          1.8990  -16.6500    4.2780 C.2   345  ASN345      0.2292
    220  O          1.8750  -17.8360    3.9310 O.2   345  ASN345     -0.2864
    221  CB         1.8390  -15.0880    2.3190 C.3   345  ASN345      0.1181
    222  CG         1.8900  -16.0800    1.1820 C.2   345  ASN345      0.2629
    223  OD1        0.8550  -16.5020    0.6610 O.2   345  ASN345     -0.2716
    224  ND2        3.0950  -16.4390    0.7690 N.am  345  ASN345     -0.0877
@<TRIPOS>BOND
     1    36    35    1
     2    36    37    1
     3    35    32    1
     4    37    31    1
     5    32    31    1
     6    32    33    1
     7    31    27   am
     8    45    43   am
     9    81    80    2
    10    34    33    2
    11    33    38   am
    12    27    28    2
    13    27    26    1
    14    44    43    2
    15    43    42    1
    16    26    25    1
    17    26    29    1
    18    80    79    1
    19    84    82    1
    20    38    39    1
    21    79    82    1
    22    79    78    1
    23    42    39    1
    24    29    30    1
    25    39    40    1
    26    82    83    1
    27    72    71    2
    28    14    13    1
    29    78    71   am
    30    71    70    1
    31    15    13    1
    32    40    46   am
    33    40    41    2
    34    64    63    2
    35    46    47    1
    36    13    10    1
    37    10     9    1
    38    10    11    1
    39    65    66    1
    40    65    62    1
    41    70    69    1
    42    70    73    1
    43    63    62    1
    44     9     3   am
    45    67    66    2
    46    66    68   am
    47    47    48    1
    48     3     4    2
    49     3     2    1
    50    49    48    2
    51    62    61    1
    52    11    12    2
    53    73    74    1
    54    48    50   am
    55     2     1    1
    56     2     5    1
    57    74    75    1
    58    18    19    2
    59    18    17    1
    60    85    86    1
    61    16    17    1
    62    61    58   am
    63    88    87    2
    64    50    51    1
    65    17    20    1
    66    75    76    1
    67     7     6   ar
    68    76    77    1
    69     5     6    1
    70   223   222    2
    71   224   222   am
    72    20    21    1
    73    86    89    1
    74    86    87    1
    75     6     8   ar
    76    89    90    1
    77    51    52    1
    78    51    54    1
    79   114   113    2
    80   222   221    1
    81    58    59    2
    82    58    57    1
    83    52    56   am
    84    52    53    2
    85   202   199    1
    86    56    57    1
    87    92    91   ar
    88    21    22    1
    89   115   113   am
    90    24    22   am
    91   113   112    1
    92    54    55    1
    93    57    60    1
    94   221   218    1
    95    90    91    1
    96    22    23    2
    97    91    93   ar
    98   110   109    2
    99   199   200    1
   100   199   198    1
   101   111   112    1
   102   111   108    1
   103   201   200    2
   104   218   219    1
   105   218   217    1
   106   220   219    2
   107   109   108    1
   108   108   107    1
   109   217   205   am
   110    94    95    1
   111   180   178   ar
   112   205   206    2
   113   205   204    1
   114   207   204    1
   115   207   208    1
   116    97    96    2
   117   107   101   am
   118    95    98    1
   119    95    96    1
   120   178   179   ar
   121   178   177    1
   122   170   169    2
   123   209   208   ar
   124   209   211   ar
   125   204   203    1
   126   208   210   ar
   127   106   104   ar
   128   177   176    1
   129   102   101    2
   130   101   100    1
   131   105   104   ar
   132   211   212   ar
   133   169   171   am
   134   169   168    1
   135   153   152    2
   136   104   103    1
   137   132   130   am
   138   156   158   ar
   139   156   155   ar
   140   189   187   am
   141   154   155    1
   142   154   151    1
   143   210   212   ar
   144   210   213   ar
   145   158   159   ar
   146   155   157   ar
   147   130   129    1
   148   130   131    2
   149   174   173    1
   150   174   175    2
   151   125   126    1
   152   126   129    1
   153   126   127    1
   154   212   214   ar
   155   176   173    1
   156   152   151    1
   157   152   164   am
   158   100    99    1
   159   100   103    1
   160   173   172    1
   161   168   165    1
   162   165   164    1
   163   165   166    1
   164   151   150    1
   165   213   215   ar
   166   159   157   ar
   167   159   161   ar
   168   157   160   ar
   169   124   122   am
   170   187   186    1
   171   187   188    2
   172   133   127   am
   173   133   134    1
   174   214   216   ar
   175   127   128    2
   176   167   166    2
   177   161   163   ar
   178   123   122    2
   179   160   162   ar
   180   186   185    1
   181   137   134    1
   182   215   216   ar
   183   122   121    1
   184   142   143    1
   185   142   139    1
   186   197   196    1
   187   134   135    1
   188   138   135   am
   189   138   139    1
   190   163   162   ar
   191   185   182    1
   192   143   144   ar
   193   143   145   ar
   194   196   195    1
   195   144   146   ar
   196   145   147   ar
   197   135   136    2
   198   139   140    1
   199   146   148   ar
   200   121   120    1
   201   147   148   ar
   202   181   182    1
   203   148   149    1
   204   182   183    1
   205   140   141    2
   206   194   195    1
   207   194   191    1
   208   120   117    1
   209   183   184    2
   210   193   192    2
   211   192   191    1
   212   191   190    1
   213   117   116    1
   214   117   118    1
   215   119   118    2
