@<TRIPOS>MOLECULE
tmp/5mkaA00.pdb
 224 214 0 0 0
SMALL
GASTEIGER

@<TRIPOS>ATOM
      1  N        -20.8400    6.8730    0.3890 N.3    11  ASP11      -0.1225
      2  CA       -20.9020    8.3210    0.3240 C.3    11  ASP11       0.1805
      3  C        -22.2900    8.7950    0.7680 C.2    11  ASP11       0.2598
      4  O        -23.2950    8.1130    0.6030 O.2    11  ASP11      -0.2718
      5  CB       -20.5480    8.8030   -1.0990 C.3    11  ASP11       0.1424
      6  CG       -19.0750    8.7050   -1.4190 C.2    11  ASP11       0.3668
      7  OD1      -18.3340    7.9470   -0.7850 O.co2  11  ASP11      -0.2456
      8  OD2      -18.5970    9.4090   -2.3270 O.co2  11  ASP11      -0.2456
      9  N        -22.3460   10.0050    1.3150 N.am   12  THR12      -0.1953
     10  CA       -23.5350   10.4860    2.0520 C.3    12  THR12       0.1897
     11  C        -24.9090   10.2210    1.3850 C.2    12  THR12       0.2313
     12  O        -25.7900    9.5580    1.9390 O.2    12  THR12      -0.2863
     13  CB       -23.3340   11.9670    2.3650 C.3    12  THR12       0.1794
     14  OG1      -22.1380   12.0840    3.1450 O.3    12  THR12      -0.2208
     15  CG2      -24.5300   12.5550    3.1390 C.3    12  THR12       0.0378
     16  N        -25.7440    8.2910   -0.8840 N.3    14  GLN14      -0.1245
     17  CA       -25.9170    6.9330   -1.3680 C.3    14  GLN14       0.1566
     18  C        -26.5490    5.9930   -0.3510 C.2    14  GLN14       0.2260
     19  O        -26.9640    4.8930   -0.7210 O.2    14  GLN14      -0.2867
     20  CB       -24.5780    6.3630   -1.7950 C.3    14  GLN14       0.0367
     21  CG       -23.8800    7.2210   -2.7960 C.3    14  GLN14       0.0905
     22  CD       -22.5370    6.6780   -3.1470 C.2    14  GLN14       0.2608
     23  OE1      -22.0270    5.7710   -2.4880 O.2    14  GLN14      -0.2717
     24  NE2      -21.8980    7.3050   -4.0900 N.am   14  GLN14      -0.0878
     25  N        -19.6470    7.4480    5.2050 N.3    39  SER39      -0.1203
     26  CA       -18.2730    7.5390    5.6720 C.3    39  SER39       0.2005
     27  C        -17.9960    8.9070    6.2970 C.2    39  SER39       0.2461
     28  O        -18.6890    9.8870    6.0210 O.2    39  SER39      -0.2732
     29  CB       -17.2930    7.3300    4.5260 C.3    39  SER39       0.2103
     30  OG       -17.5180    8.3020    3.5190 O.3    39  SER39      -0.2182
     31  N        -16.9250    9.0030    7.0930 N.am   40  PRO40      -0.2717
     32  CA       -16.5820   10.3080    7.6890 C.3    40  PRO40       0.1535
     33  C        -16.3780   11.4030    6.6640 C.2    40  PRO40       0.2599
     34  O        -16.9050   12.4960    6.8430 O.2    40  PRO40      -0.2715
     35  CB       -15.3360    9.9890    8.5310 C.3    40  PRO40       0.0310
     36  CG       -15.5000    8.5590    8.8880 C.3    40  PRO40       0.0237
     37  CD       -16.1090    7.9120    7.6770 C.3    40  PRO40       0.0939
     38  N        -15.6390   11.1330    5.5830 N.am   41  ASN41      -0.1959
     39  CA       -15.2800   12.1790    4.6310 C.3    41  ASN41       0.1819
     40  C        -15.4090   11.7890    3.1630 C.2    41  ASN41       0.2622
     41  O        -14.9250   12.5340    2.3000 O.2    41  ASN41      -0.2715
     42  CB       -13.8650   12.6790    4.9420 C.3    41  ASN41       0.1195
     43  CG       -13.7650   13.2880    6.3310 C.2    41  ASN41       0.2630
     44  OD1      -13.2030   12.6660    7.2620 O.2    41  ASN41      -0.2716
     45  ND2      -14.3910   14.4230    6.5140 N.am   41  ASN41      -0.0877
     46  N        -16.0830   10.7000    2.8510 N.am   42  GLY42      -0.1940
     47  CA       -16.3650   10.3390    1.4760 C.3    42  GLY42       0.2014
     48  C        -15.2840    9.4910    0.8340 C.2    42  GLY42       0.2640
     49  O        -14.1400    9.4310    1.2780 O.2    42  GLY42      -0.2714
     50  N        -15.6750    8.8490   -0.2720 N.am   43  SER43      -0.1935
     51  CA       -14.7970    7.9660   -1.0450 C.3    43  SER43       0.2055
     52  C        -13.5360    8.6690   -1.5320 C.2    43  SER43       0.2643
     53  O        -12.5010    8.0180   -1.6760 O.2    43  SER43      -0.2714
     54  CB       -15.5710    7.3810   -2.2280 C.3    43  SER43       0.2130
     55  OG       -16.0850    8.4140   -3.0410 O.3    43  SER43      -0.2179
     56  N        -13.5960    9.9760   -1.7930 N.am   44  ALA44      -0.1963
     57  CA       -12.3990   10.6980   -2.2270 C.3    44  ALA44       0.1728
     58  C        -11.3740   10.8500   -1.1170 C.2    44  ALA44       0.2616
     59  O        -10.2460   11.2730   -1.3870 O.2    44  ALA44      -0.2715
     60  CB       -12.7690   12.0660   -2.8040 C.3    44  ALA44       0.0334
     61  N        -11.7440   10.4930    0.1220 N.am   45  ASN45      -0.1972
     62  CA       -10.8830   10.5680    1.2980 C.3    45  ASN45       0.1688
     63  C        -10.7760    9.2270    2.0140 C.2    45  ASN45       0.2292
     64  O        -10.3980    9.1900    3.1880 O.2    45  ASN45      -0.2864
     65  CB       -11.3790   11.6480    2.2660 C.3    45  ASN45       0.1181
     66  CG       -11.2840   13.0250    1.6530 C.2    45  ASN45       0.2629
     67  OD1      -10.1900   13.4810    1.3200 O.2    45  ASN45      -0.2716
     68  ND2      -12.4130   13.6760    1.4600 N.am   45  ASN45      -0.0877
     69  N         -8.6670    6.7800    1.9210 N.3    47  LYS47      -0.1231
     70  CA        -7.3700    6.3250    2.4050 C.3    47  LYS47       0.1693
     71  C         -7.0280    6.9180    3.7610 C.2    47  LYS47       0.2592
     72  O         -6.4130    6.2350    4.5910 O.2    47  LYS47      -0.2718
     73  CB        -6.2810    6.6000    1.3890 C.3    47  LYS47       0.0285
     74  CG        -6.1450    8.0330    0.9880 C.3    47  LYS47       0.0035
     75  CD        -4.9480    8.2940    0.0570 C.3    47  LYS47       0.0206
     76  CE        -3.6310    7.9780    0.7380 C.3    47  LYS47       0.1093
     77  NZ        -2.5090    8.5610    0.0320 N.3    47  LYS47      -0.1314
     78  N         -7.4260    8.1670    4.0150 N.am   48  THR48      -0.1953
     79  CA        -7.1750    8.7670    5.3210 C.3    48  THR48       0.1897
     80  C         -8.2590    8.4300    6.3330 C.2    48  THR48       0.2313
     81  O         -7.9650    8.2620    7.5220 O.2    48  THR48      -0.2863
     82  CB        -7.0260   10.2900    5.1940 C.3    48  THR48       0.1794
     83  OG1       -8.1410   10.8210    4.4770 O.3    48  THR48      -0.2208
     84  CG2       -5.7360   10.6700    4.4800 C.3    48  THR48       0.0378
     85  N        -16.2060    2.4710    0.3840 N.3    62  GLU62      -0.1245
     86  CA       -16.1180    2.9870   -0.9640 C.3    62  GLU62       0.1567
     87  C        -14.8180    3.7530   -1.1430 C.2    62  GLU62       0.2260
     88  O        -14.4340    4.5470   -0.2750 O.2    62  GLU62      -0.2867
     89  CB       -17.3240    3.9030   -1.1910 C.3    62  GLU62       0.0388
     90  CG       -17.5700    4.2260   -2.6630 C.3    62  GLU62       0.1160
     91  CD       -18.8860    4.9100   -2.9050 C.2    62  GLU62       0.3649
     92  OE1      -19.7760    4.7600   -2.0500 O.co2  62  GLU62      -0.2457
     93  OE2      -19.0390    5.5810   -3.9370 O.co2  62  GLU62      -0.2457
     94  N        -12.0390    5.3780   -4.4050 N.3    64  ALA64      -0.1245
     95  CA       -11.6490    5.6100   -5.7880 C.3    64  ALA64       0.1562
     96  C        -10.3370    4.8820   -6.1140 C.2    64  ALA64       0.2260
     97  O         -9.4580    4.7170   -5.2670 O.2    64  ALA64      -0.2867
     98  CB       -11.4830    7.1150   -6.0290 C.3    64  ALA64       0.0290
     99  N         -7.5520    5.4130   -7.6180 N.3    66  ASP66      -0.1225
    100  CA        -6.2070    5.9720   -7.4910 C.3    66  ASP66       0.1805
    101  C         -5.5950    5.7610   -6.1100 C.2    66  ASP66       0.2597
    102  O         -4.3720    5.8230   -5.9800 O.2    66  ASP66      -0.2718
    103  CB        -6.2110    7.4740   -7.7670 C.3    66  ASP66       0.1424
    104  CG        -7.0820    8.2470   -6.7930 C.2    66  ASP66       0.3668
    105  OD1       -8.3090    7.9790   -6.7730 O.co2  66  ASP66      -0.2456
    106  OD2       -6.5190    9.1170   -6.0680 O.co2  66  ASP66      -0.2456
    107  N         -6.4200    5.5600   -5.0920 N.am   67  GLN67      -0.1979
    108  CA        -5.9370    5.3850   -3.7320 C.3    67  GLN67       0.1601
    109  C         -5.4240    3.9800   -3.4560 C.2    67  GLN67       0.2287
    110  O         -4.8470    3.7390   -2.3850 O.2    67  GLN67      -0.2864
    111  CB        -7.0650    5.7250   -2.7640 C.3    67  GLN67       0.0394
    112  CG        -7.4660    7.1900   -2.8220 C.3    67  GLN67       0.0908
    113  CD        -8.7310    7.4540   -2.0480 C.2    67  GLN67       0.2608
    114  OE1       -8.9020    6.9790   -0.9210 O.2    67  GLN67      -0.2717
    115  NE2       -9.6780    8.1600   -2.6890 N.am   67  GLN67      -0.0878
    116  N        -16.2810    6.3840  -13.9940 N.3   114  GLN114     -0.1245
    117  CA       -16.4420    7.8280  -13.7800 C.3   114  GLN114      0.1566
    118  C        -15.5670    8.6120  -14.7450 C.2   114  GLN114      0.2260
    119  O        -14.3400    8.5260  -14.6880 O.2   114  GLN114     -0.2867
    120  CB       -16.1040    8.2060  -12.3400 C.3   114  GLN114      0.0367
    121  CG       -17.0190    7.5720  -11.3260 C.3   114  GLN114      0.0905
    122  CD       -16.6880    7.9520   -9.9010 C.2   114  GLN114      0.2608
    123  OE1      -15.5930    8.4540   -9.6030 O.2   114  GLN114     -0.2717
    124  NE2      -17.6370    7.7080   -9.0010 N.am  114  GLN114     -0.0878
    125  N         -8.9980   22.4850   -7.9390 N.3   148  ASN148     -0.1225
    126  CA        -9.2220   21.0430   -7.8990 C.3   148  ASN148      0.1785
    127  C         -8.4300   20.4090   -9.0390 C.2   148  ASN148      0.2597
    128  O         -8.7180   20.6360  -10.2230 O.2   148  ASN148     -0.2718
    129  CB       -10.7180   20.7570   -7.9950 C.3   148  ASN148      0.1169
    130  CG       -11.0210   19.2830   -7.9370 C.2   148  ASN148      0.2627
    131  OD1      -10.5000   18.5210   -8.7400 O.2   148  ASN148     -0.2716
    132  ND2      -11.8510   18.8610   -6.9940 N.am  148  ASN148     -0.0877
    133  N         -7.3860   19.6620   -8.6820 N.am  149  ALA149     -0.1966
    134  CA        -6.5060   19.0690   -9.6760 C.3   149  ALA149      0.1728
    135  C         -7.1600   17.9330  -10.4500 C.2   149  ALA149      0.2616
    136  O         -6.7120   17.6150  -11.5620 O.2   149  ALA149     -0.2715
    137  CB        -5.2320   18.5890   -9.0210 C.3   149  ALA149      0.0334
    138  N         -8.1850   17.2930   -9.8790 N.am  150  TYR150     -0.1974
    139  CA        -8.9310   16.2960  -10.6370 C.3   150  TYR150      0.1639
    140  C         -9.6440   16.9390  -11.8200 C.2   150  TYR150      0.2290
    141  O         -9.7900   16.3090  -12.8660 O.2   150  TYR150     -0.2864
    142  CB        -9.8980   15.5840   -9.6940 C.3   150  TYR150      0.0560
    143  CG       -10.8060   14.5570  -10.3200 C.ar  150  TYR150     -0.0198
    144  CD1      -10.4180   13.2370  -10.4550 C.ar  150  TYR150     -0.0009
    145  CD2      -12.0780   14.9170  -10.7290 C.ar  150  TYR150     -0.0009
    146  CE1      -11.2980   12.2930  -10.9800 C.ar  150  TYR150      0.0417
    147  CE2      -12.9500   13.9760  -11.2350 C.ar  150  TYR150      0.0417
    148  CZ       -12.5710   12.6620  -11.3460 C.ar  150  TYR150      0.1957
    149  OH       -13.4460   11.7130  -11.8540 O.3   150  TYR150     -0.2866
    150  N        -18.7020   18.1570  -14.6230 N.3   217  ASP217     -0.1239
    151  CA       -19.0460   17.3690  -13.4380 C.3   217  ASP217      0.1674
    152  C        -19.0620   15.9040  -13.8430 C.2   217  ASP217      0.2266
    153  O        -18.9200   15.5800  -15.0130 O.2   217  ASP217     -0.2867
    154  CB       -20.3910   17.8090  -12.8550 C.3   217  ASP217      0.1410
    155  CG       -20.4850   17.6080  -11.3450 C.2   217  ASP217      0.3668
    156  OD1      -19.7160   16.8110  -10.7550 O.co2 217  ASP217     -0.2456
    157  OD2      -21.3380   18.2650  -10.7410 O.co2 217  ASP217     -0.2456
    158  N        -21.6570   10.8930  -10.6260 N.3   220  TRP220     -0.1241
    159  CA       -22.2240   10.9310   -9.2790 C.3   220  TRP220      0.1605
    160  C        -23.3020   12.0000   -9.1800 C.2   220  TRP220      0.2264
    161  O        -24.1540   11.9260   -8.2930 O.2   220  TRP220     -0.2867
    162  CB       -21.1230   11.1650   -8.2360 C.3   220  TRP220      0.0550
    163  CG       -20.2460   12.3470   -8.5540 C.ar  220  TRP220      0.0003
    164  CD1      -20.4880   13.6280   -8.2480 C.ar  220  TRP220      0.0946
    165  CD2      -19.0230   12.3440   -9.3180 C.ar  220  TRP220      0.0152
    166  NE1      -19.4930   14.4360   -8.7400 N.ar  220  TRP220     -0.2442
    167  CE2      -18.5820   13.6670   -9.4110 C.ar  220  TRP220      0.0810
    168  CE3      -18.2500   11.3370   -9.9020 C.ar  220  TRP220      0.0012
    169  CZ2      -17.4020   14.0080  -10.0740 C.ar  220  TRP220      0.0191
    170  CZ3      -17.0870   11.6800  -10.5450 C.ar  220  TRP220      0.0001
    171  CH2      -16.6810   12.9960  -10.6410 C.ar  220  TRP220      0.0015
    172  N        -14.7880    3.6580   -9.5410 N.3   257  GLU257     -0.1245
    173  CA       -15.2510    3.6500   -8.1630 C.3   257  GLU257      0.1567
    174  C        -15.3750    2.2050   -7.7070 C.2   257  GLU257      0.2260
    175  O        -15.8310    1.3570   -8.4750 O.2   257  GLU257     -0.2867
    176  CB       -16.5880    4.3750   -8.0260 C.3   257  GLU257      0.0388
    177  CG       -16.9330    4.7330   -6.5970 C.3   257  GLU257      0.1160
    178  CD       -15.9890    5.7290   -6.0320 C.2   257  GLU257      0.3649
    179  OE1      -15.9840    6.8480   -6.5530 O.co2 257  GLU257     -0.2457
    180  OE2      -15.2370    5.3890   -5.1020 O.co2 257  GLU257     -0.2457
    181  N        -25.0350    6.8340  -11.9180 N.3   295  GLN295     -0.1245
    182  CA       -23.6730    6.3770  -12.1370 C.3   295  GLN295      0.1566
    183  C        -23.6380    5.2050  -13.1080 C.2   295  GLN295      0.2260
    184  O        -24.5790    4.3980  -13.1910 O.2   295  GLN295     -0.2867
    185  CB       -22.9710    6.0380  -10.8250 C.3   295  GLN295      0.0367
    186  CG       -22.6350    7.2650   -9.9750 C.3   295  GLN295      0.0905
    187  CD       -21.3030    7.1760   -9.2650 C.2   295  GLN295      0.2608
    188  OE1      -20.2660    6.9260   -9.9020 O.2   295  GLN295     -0.2717
    189  NE2      -21.3050    7.3920   -7.9560 N.am  295  GLN295     -0.0878
    190  N         -6.8820    7.1550  -13.9980 N.3   329  MET329     -0.1245
    191  CA        -6.0870    7.6660  -12.8850 C.3   329  MET329      0.1570
    192  C         -5.0590    6.6280  -12.4670 C.2   329  MET329      0.2261
    193  O         -5.4450    5.4940  -12.1280 O.2   329  MET329     -0.2867
    194  CB        -6.9390    7.9400  -11.6580 C.3   329  MET329      0.0387
    195  CG        -7.8600    9.1490  -11.7950 C.3   329  MET329      0.0595
    196  SD        -8.5460    9.7270  -10.2120 S.3   329  MET329     -0.1393
    197  CE        -9.7050    8.4220   -9.7980 C.3   329  MET329      0.0692
    198  N         -0.4100   10.3630   -3.7260 N.3   336  ALA336     -0.1245
    199  CA        -0.6820   11.2530   -2.6150 C.3   336  ALA336      0.1562
    200  C          0.0490   12.5820   -2.7950 C.2   336  ALA336      0.2260
    201  O         -0.5320   13.6710   -2.6540 O.2   336  ALA336     -0.2867
    202  CB        -0.2080   10.5590   -1.3430 C.3   336  ALA336      0.0290
    203  N         -1.3040   14.6290   -5.9500 N.3   339  TRP339     -0.1227
    204  CA        -2.5250   15.4110   -5.8020 C.3   339  TRP339      0.1737
    205  C         -2.2530   16.6590   -4.9950 C.2   339  TRP339      0.2595
    206  O         -2.7430   17.7470   -5.3210 O.2   339  TRP339     -0.2718
    207  CB        -3.6230   14.6060   -5.1170 C.3   339  TRP339      0.0564
    208  CG        -4.2330   13.5100   -5.9220 C.ar  339  TRP339      0.0003
    209  CD1       -4.2160   12.1790   -5.6220 C.ar  339  TRP339      0.0946
    210  CD2       -4.9670   13.6410   -7.1480 C.ar  339  TRP339      0.0152
    211  NE1       -4.9080   11.4750   -6.5710 N.ar  339  TRP339     -0.2442
    212  CE2       -5.3790   12.3500   -7.5160 C.ar  339  TRP339      0.0810
    213  CE3       -5.3250   14.7180   -7.9600 C.ar  339  TRP339      0.0012
    214  CZ2       -6.1090   12.1040   -8.6650 C.ar  339  TRP339      0.0191
    215  CZ3       -6.0550   14.4680   -9.0990 C.ar  339  TRP339      0.0001
    216  CH2       -6.4350   13.1690   -9.4460 C.ar  339  TRP339      0.0015
    217  N         -1.4620   16.5270   -3.9320 N.am  340  ASN340     -0.1974
    218  CA        -1.1800   17.6680   -3.0730 C.3   340  ASN340      0.1688
    219  C         -0.4570   18.7710   -3.8240 C.2   340  ASN340      0.2292
    220  O         -0.7650   19.9580   -3.6420 O.2   340  ASN340     -0.2864
    221  CB        -0.3360   17.1980   -1.8990 C.3   340  ASN340      0.1181
    222  CG        -0.0700   18.3040   -0.9400 C.2   340  ASN340      0.2629
    223  OD1       -0.9090   18.6170   -0.1030 O.2   340  ASN340     -0.2716
    224  ND2        1.0710   18.9500   -1.0870 N.am  340  ASN340     -0.0877
@<TRIPOS>BOND
     1   153   152    2
     2   118   119    2
     3   118   117    1
     4   150   151    1
     5   190   191    1
     6   116   117    1
     7   152   151    1
     8   117   120    1
     9   151   154    1
    10   184   183    2
    11   183   182    1
    12   191   192    1
    13   191   194    1
    14   141   140    2
    15   154   155    1
    16   192   193    2
    17   120   121    1
    18   182   181    1
    19   182   185    1
    20   149   148    1
    21   140   139    1
    22   195   194    1
    23   195   196    1
    24   136   135    2
    25   148   147   ar
    26   148   146   ar
    27   155   156   ar
    28   155   157   ar
    29   121   122    1
    30   147   145   ar
    31   146   144   ar
    32   185   186    1
    33   145   143   ar
    34   171   170   ar
    35   171   169   ar
    36   139   138    1
    37   139   142    1
    38   158   159    1
    39   170   168   ar
    40   144   143   ar
    41   135   138   am
    42   135   134    1
    43   143   142    1
    44   128   127    2
    45   196   197    1
    46   169   167   ar
    47   186   187    1
    48   168   165   ar
    49   188   187    2
    50   122   123    2
    51   122   124   am
    52   134   137    1
    53   134   133    1
    54   172   173    1
    55   216   215   ar
    56   216   214   ar
    57   167   165   ar
    58   167   166   ar
    59   165   163   ar
    60   159   160    1
    61   159   162    1
    62   187   189   am
    63   160   161    2
    64   215   213   ar
    65   127   133   am
    66   127   126    1
    67   166   164   ar
    68   131   130    2
    69   214   212   ar
    70   163   164   ar
    71   163   162    1
    72   175   174    2
    73   173   176    1
    74   173   174    1
    75   176   177    1
    76   129   130    1
    77   129   126    1
    78   213   210   ar
    79   125   126    1
    80   130   132   am
    81   103   100    1
    82   103   104    1
    83    99   100    1
    84   212   210   ar
    85   212   211   ar
    86   100   101    1
    87   210   208   ar
    88   104   105   ar
    89   104   106   ar
    90   177   178    1
    91   211   209   ar
    92   179   178   ar
    93    96    95    1
    94    96    97    2
    95   101   102    2
    96   101   107   am
    97   178   180   ar
    98    98    95    1
    99   203   204    1
   100   208   209   ar
   101   208   207    1
   102   204   207    1
   103   204   205    1
   104    95    94    1
   105   206   205    2
   106   107   108    1
   107   205   217   am
   108    24    22   am
   109    93    91   ar
   110   217   218    1
   111   219   220    2
   112   219   218    1
   113   108   109    1
   114   108   111    1
   115   198   199    1
   116   109   110    2
   117    22    21    1
   118    22    23    2
   119   218   221    1
   120    55    54    1
   121    91    90    1
   122    91    92   ar
   123   112   111    1
   124   112   113    1
   125    60    57    1
   126    21    20    1
   127   200   201    2
   128   200   199    1
   129   115   113   am
   130    90    89    1
   131   199   202    1
   132     8     6   ar
   133    54    51    1
   134    57    56    1
   135    57    58    1
   136   113   114    2
   137   221   222    1
   138    20    17    1
   139    56    52   am
   140    53    52    2
   141    52    51    1
   142     6     5    1
   143     6     7   ar
   144    59    58    2
   145    17    16    1
   146    17    18    1
   147    89    86    1
   148    87    86    1
   149    87    88    2
   150    58    61   am
   151     5     2    1
   152   224   222   am
   153    51    50    1
   154    86    85    1
   155   222   223    2
   156    19    18    2
   157    50    48   am
   158    77    76    1
   159    75    76    1
   160    75    74    1
   161    61    62    1
   162     2     1    1
   163     2     3    1
   164     4     3    2
   165     3     9   am
   166    48    49    2
   167    48    47    1
   168    74    73    1
   169    62    63    1
   170    62    65    1
   171     9    10    1
   172    67    66    2
   173    11    12    2
   174    11    10    1
   175    73    70    1
   176    68    66   am
   177    47    46    1
   178    66    65    1
   179    69    70    1
   180    63    64    2
   181    10    13    1
   182    41    40    2
   183    13    15    1
   184    13    14    1
   185    70    71    1
   186    46    40   am
   187    40    39    1
   188    30    29    1
   189    71    78   am
   190    71    72    2
   191    78    79    1
   192    83    82    1
   193    84    82    1
   194    29    26    1
   195    39    42    1
   196    39    38    1
   197    42    43    1
   198    82    79    1
   199    25    26    1
   200    79    80    1
   201    38    33   am
   202    26    27    1
   203    28    27    2
   204    27    31   am
   205    43    45   am
   206    43    44    2
   207    80    81    2
   208    33    34    2
   209    33    32    1
   210    31    37    1
   211    31    32    1
   212    37    36    1
   213    32    35    1
   214    35    36    1
