@<TRIPOS>MOLECULE
tmp/5mkfD13.pdb
 101 99 0 0 0
SMALL
GASTEIGER

@<TRIPOS>ATOM
      1  N        122.9250   87.0380   71.1520 N.3   292  PHE292     -0.1227
      2  CA       122.4620   87.2140   72.5230 C.3   292  PHE292      0.1736
      3  C        122.3060   85.8710   73.2210 C.2   292  PHE292      0.2595
      4  O        122.7670   85.7030   74.3540 O.2   292  PHE292     -0.2718
      5  CB       121.1520   88.0030   72.5540 C.3   292  PHE292      0.0547
      6  CG       121.2970   89.4450   72.1280 C.ar  292  PHE292     -0.0202
      7  CD1      121.7470   90.4020   73.0230 C.ar  292  PHE292     -0.0042
      8  CD2      120.9690   89.8470   70.8400 C.ar  292  PHE292     -0.0042
      9  CE1      121.8790   91.7250   72.6390 C.ar  292  PHE292     -0.0003
     10  CE2      121.0980   91.1750   70.4530 C.ar  292  PHE292     -0.0003
     11  CZ       121.5520   92.1100   71.3540 C.ar  292  PHE292     -0.0000
     12  N        121.6760   84.9010   72.5560 N.am  293  TRP293     -0.1976
     13  CA       121.6070   83.5570   73.1150 C.3   293  TRP293      0.1640
     14  C        122.9910   83.0550   73.4870 C.2   293  TRP293      0.2290
     15  O        123.1880   82.4690   74.5550 O.2   293  TRP293     -0.2864
     16  CB       120.9470   82.5980   72.1280 C.3   293  TRP293      0.0576
     17  CG       119.4760   82.7690   71.9920 C.ar  293  TRP293      0.0006
     18  CD1      118.5140   82.2060   72.7710 C.ar  293  TRP293      0.0946
     19  CD2      118.7920   83.5380   71.0000 C.ar  293  TRP293      0.0152
     20  NE1      117.2700   82.5850   72.3330 N.ar  293  TRP293     -0.2442
     21  CE2      117.4150   83.4030   71.2460 C.ar  293  TRP293      0.0810
     22  CE3      119.2110   84.3320   69.9300 C.ar  293  TRP293      0.0012
     23  CZ2      116.4560   84.0310   70.4630 C.ar  293  TRP293      0.0191
     24  CZ3      118.2570   84.9550   69.1550 C.ar  293  TRP293      0.0001
     25  CH2      116.8960   84.8010   69.4240 C.ar  293  TRP293      0.0015
     26  N        124.8450   85.1310   76.3170 N.3   296  LEU296     -0.1245
     27  CA       124.4420   84.6930   77.6430 C.3   296  LEU296      0.1561
     28  C        125.0040   83.3280   77.9990 C.2   296  LEU296      0.2260
     29  O        125.0680   82.9870   79.1830 O.2   296  LEU296     -0.2867
     30  CB       122.9180   84.6700   77.7300 C.3   296  LEU296      0.0270
     31  CG       122.2660   86.0420   77.5180 C.3   296  LEU296      0.0019
     32  CD1      120.7430   85.9640   77.4640 C.3   296  LEU296      0.0001
     33  CD2      122.7150   87.0150   78.5930 C.3   296  LEU296      0.0001
     34  N        121.2480   82.3780   91.5460 N.3   350  VAL350     -0.1245
     35  CA       121.1300   83.1810   90.3360 C.3   350  VAL350      0.1561
     36  C        121.5150   82.3660   89.1170 C.2   350  VAL350      0.2260
     37  O        120.8600   82.4340   88.0720 O.2   350  VAL350     -0.2867
     38  CB       121.9900   84.4450   90.4570 C.3   350  VAL350      0.0252
     39  CG1      121.8470   85.2730   89.2070 C.3   350  VAL350      0.0019
     40  CG2      121.5890   85.2170   91.6750 C.3   350  VAL350      0.0019
     41  N        118.7330   79.9380   88.0380 N.3   353  PHE353     -0.1227
     42  CA       117.8020   80.6680   87.2010 C.3   353  PHE353      0.1736
     43  C        118.1570   80.5070   85.7360 C.2   353  PHE353      0.2595
     44  O        117.4350   79.8470   84.9810 O.2   353  PHE353     -0.2718
     45  CB       117.8130   82.1370   87.5830 C.3   353  PHE353      0.0547
     46  CG       117.0420   83.0000   86.6610 C.ar  353  PHE353     -0.0202
     47  CD1      115.6790   83.0900   86.7640 C.ar  353  PHE353     -0.0042
     48  CD2      117.6830   83.7340   85.6930 C.ar  353  PHE353     -0.0042
     49  CE1      114.9710   83.8930   85.9150 C.ar  353  PHE353     -0.0003
     50  CE2      116.9770   84.5360   84.8400 C.ar  353  PHE353     -0.0003
     51  CZ       115.6190   84.6170   84.9510 C.ar  353  PHE353     -0.0000
     52  N        119.2950   81.0700   85.3410 N.am  354  PHE354     -0.1976
     53  CA       119.6790   81.0490   83.9390 C.3   354  PHE354      0.1639
     54  C        119.7170   79.6450   83.3780 C.2   354  PHE354      0.2290
     55  O        119.5630   79.4680   82.1680 O.2   354  PHE354     -0.2864
     56  CB       121.0370   81.7140   83.7640 C.3   354  PHE354      0.0560
     57  CG       121.0300   83.1750   84.0720 C.ar  354  PHE354     -0.0200
     58  CD1      120.7410   84.0970   83.0910 C.ar  354  PHE354     -0.0042
     59  CD2      121.2820   83.6230   85.3530 C.ar  354  PHE354     -0.0042
     60  CE1      120.7310   85.4380   83.3750 C.ar  354  PHE354     -0.0003
     61  CE2      121.2690   84.9640   85.6440 C.ar  354  PHE354     -0.0003
     62  CZ       120.9960   85.8730   84.6540 C.ar  354  PHE354     -0.0000
     63  N        116.5750   79.0260   81.2180 N.3   357  ILE357     -0.1245
     64  CA       116.4890   79.7470   79.9620 C.3   357  ILE357      0.1561
     65  C        117.5490   79.2660   78.9910 C.2   357  ILE357      0.2260
     66  O        117.4970   79.5920   77.8020 O.2   357  ILE357     -0.2867
     67  CB       116.5900   81.2570   80.2050 C.3   357  ILE357      0.0252
     68  CG1      117.9080   81.5810   80.8910 C.3   357  ILE357      0.0019
     69  CG2      115.4230   81.7210   81.0370 C.3   357  ILE357      0.0019
     70  CD1      118.1840   83.0490   81.0270 C.3   357  ILE357      0.0001
     71  N        115.6530   76.9560   76.9650 N.3   360  PHE360     -0.1241
     72  CA       114.6380   77.7030   76.2460 C.3   360  PHE360      0.1605
     73  C        114.7770   77.5820   74.7370 C.2   360  PHE360      0.2264
     74  O        113.7620   77.5100   74.0400 O.2   360  PHE360     -0.2867
     75  CB       114.7240   79.1570   76.6750 C.3   360  PHE360      0.0534
     76  CG       113.7250   80.0400   76.0310 C.ar  360  PHE360     -0.0203
     77  CD1      112.4490   80.1250   76.5300 C.ar  360  PHE360     -0.0042
     78  CD2      114.0660   80.8070   74.9380 C.ar  360  PHE360     -0.0042
     79  CE1      111.5340   80.9500   75.9480 C.ar  360  PHE360     -0.0003
     80  CE2      113.1490   81.6340   74.3480 C.ar  360  PHE360     -0.0003
     81  CZ       111.8820   81.7090   74.8540 C.ar  360  PHE360     -0.0000
     82  N        109.0510   81.7770   68.3120 N.3   373  SER373     -0.1217
     83  CA       109.9880   82.3470   69.2650 C.3   373  SER373      0.1889
     84  C        110.8040   83.4700   68.6420 C.2   373  SER373      0.2288
     85  O        111.2300   84.3890   69.3480 O.2   373  SER373     -0.2866
     86  CB       110.9110   81.2590   69.8060 C.3   373  SER373      0.2089
     87  OG       110.1730   80.2920   70.5320 O.3   373  SER373     -0.2183
     88  N        108.8070   87.1130   69.2430 N.3   376  MET376     -0.1230
     89  CA       109.2450   87.8260   70.4370 C.3   376  MET376      0.1702
     90  C        110.7170   88.2040   70.3620 C.2   376  MET376      0.2593
     91  O        111.1220   89.2380   70.9030 O.2   376  MET376     -0.2718
     92  CB       108.9900   86.9760   71.6750 C.3   376  MET376      0.0401
     93  CG       109.5530   87.5910   72.9220 C.3   376  MET376      0.0596
     94  SD       108.7660   89.1640   73.2530 S.3   376  MET376     -0.1393
     95  CE       109.7170   89.7160   74.6600 C.3   376  MET376      0.0692
     96  N        111.5330   87.3900   69.6910 N.am  377  SER377     -0.1952
     97  CA       112.9290   87.7580   69.5020 C.3   377  SER377      0.1924
     98  C        113.0640   89.0480   68.7130 C.2   377  SER377      0.2314
     99  O        114.0220   89.8010   68.9100 O.2   377  SER377     -0.2863
    100  CB       113.6820   86.6370   68.7930 C.3   377  SER377      0.2116
    101  OG       115.0070   87.0390   68.5010 O.3   377  SER377     -0.2180
@<TRIPOS>BOND
     1    82    83    1
     2   101   100    1
     3    84    83    1
     4    84    85    2
     5    98    99    2
     6    98    97    1
     7   100    97    1
     8    24    25   ar
     9    24    22   ar
    10    88    89    1
    11    83    86    1
    12    25    23   ar
    13    97    96    1
    14    96    90   am
    15    86    87    1
    16    22    19   ar
    17    90    89    1
    18    90    91    2
    19    89    92    1
    20    10     8   ar
    21    10    11   ar
    22    23    21   ar
    23     8     6   ar
    24    19    21   ar
    25    19    17   ar
    26     1     2    1
    27    21    20   ar
    28    11     9   ar
    29    92    93    1
    30    17    16    1
    31    17    18   ar
    32     6     5    1
    33     6     7   ar
    34    16    13    1
    35    20    18   ar
    36     2     5    1
    37     2     3    1
    38    12    13    1
    39    12     3   am
    40     9     7   ar
    41    93    94    1
    42    13    14    1
    43     3     4    2
    44    94    95    1
    45    14    15    2
    46    74    73    2
    47    80    81   ar
    48    80    78   ar
    49    73    72    1
    50    81    79   ar
    51    78    76   ar
    52    79    77   ar
    53    76    77   ar
    54    76    75    1
    55    72    75    1
    56    72    71    1
    57    26    27    1
    58    32    31    1
    59    31    30    1
    60    31    33    1
    61    27    30    1
    62    27    28    1
    63    66    65    2
    64    28    29    2
    65    65    64    1
    66    64    67    1
    67    64    63    1
    68    67    68    1
    69    67    69    1
    70    68    70    1
    71    55    54    2
    72    58    60   ar
    73    58    57   ar
    74    60    62   ar
    75    54    53    1
    76    56    53    1
    77    56    57    1
    78    53    52    1
    79    57    59   ar
    80    62    61   ar
    81    50    51   ar
    82    50    48   ar
    83    51    49   ar
    84    44    43    2
    85    52    43   am
    86    59    61   ar
    87    48    46   ar
    88    43    42    1
    89    49    47   ar
    90    46    47   ar
    91    46    45    1
    92    42    45    1
    93    42    41    1
    94    37    36    2
    95    36    35    1
    96    39    38    1
    97    35    38    1
    98    35    34    1
    99    38    40    1
