@<TRIPOS>MOLECULE
tmp/5mkfD12.pdb
 111 107 0 0 0
SMALL
GASTEIGER

@<TRIPOS>ATOM
      1  N        130.2350   96.0940  107.9560 N.3   165  HIS165     -0.1226
      2  CA       128.8550   95.6800  107.7700 C.3   165  HIS165      0.1752
      3  C        128.0790   96.7320  106.9970 C.2   165  HIS165      0.2596
      4  O        128.4110   97.9190  107.0190 O.2   165  HIS165     -0.2718
      5  CB       128.1670   95.3920  109.1010 C.3   165  HIS165      0.0759
      6  CG       126.7580   94.9330  108.9410 C.ar  165  HIS165      0.0818
      7  ND1      125.7010   95.8110  108.8700 N.ar  165  HIS165     -0.2268
      8  CD2      126.2380   93.7010  108.7410 C.ar  165  HIS165      0.1154
      9  CE1      124.5820   95.1340  108.6920 C.ar  165  HIS165      0.1986
     10  NE2      124.8800   93.8500  108.6100 N.ar  165  HIS165     -0.2212
     11  N        127.0240   96.2760  106.3240 N.am  166  TRP166     -0.1976
     12  CA       126.2800   97.1420  105.4140 C.3   166  TRP166      0.1640
     13  C        125.3790   98.1030  106.1760 C.2   166  TRP166      0.2290
     14  O        125.6420   99.3050  106.2300 O.2   166  TRP166     -0.2864
     15  CB       125.4660   96.2890  104.4440 C.3   166  TRP166      0.0576
     16  CG       124.6490   97.0730  103.4820 C.ar  166  TRP166      0.0006
     17  CD1      123.3210   97.3180  103.5600 C.ar  166  TRP166      0.0946
     18  CD2      125.0950   97.6730  102.2680 C.ar  166  TRP166      0.0152
     19  NE1      122.9070   98.0540  102.4840 N.ar  166  TRP166     -0.2442
     20  CE2      123.9820   98.2820  101.6720 C.ar  166  TRP166      0.0810
     21  CE3      126.3310   97.7630  101.6310 C.ar  166  TRP166      0.0012
     22  CZ2      124.0620   98.9680  100.4760 C.ar  166  TRP166      0.0191
     23  CZ3      126.4120   98.4490  100.4420 C.ar  166  TRP166      0.0001
     24  CH2      125.2850   99.0420   99.8760 C.ar  166  TRP166      0.0015
     25  N        119.1960   90.7620  111.6840 N.3   242  GLN242     -0.1245
     26  CA       119.6160   89.8300  110.6480 C.3   242  GLN242      0.1566
     27  C        119.6980   88.4270  111.2230 C.2   242  GLN242      0.2260
     28  O        120.4510   88.1890  112.1700 O.2   242  GLN242     -0.2867
     29  CB       120.9600   90.2330  110.0580 C.3   242  GLN242      0.0367
     30  CG       121.4520   89.2570  109.0220 C.3   242  GLN242      0.0905
     31  CD       120.4960   89.1230  107.8600 C.2   242  GLN242      0.2608
     32  OE1      119.7130   88.1790  107.7970 O.2   242  GLN242     -0.2717
     33  NE2      120.5550   90.0650  106.9300 N.am  242  GLN242     -0.0878
     34  N        127.7650   83.4680   80.6880 N.3   299  VAL299     -0.1245
     35  CA       127.5430   83.9950   82.0310 C.3   299  VAL299      0.1561
     36  C        127.3860   82.8630   83.0290 C.2   299  VAL299      0.2260
     37  O        127.9590   82.8910   84.1240 O.2   299  VAL299     -0.2867
     38  CB       126.3120   84.9140   82.0450 C.3   299  VAL299      0.0252
     39  CG1      126.0410   85.3900   83.4460 C.3   299  VAL299      0.0019
     40  CG2      126.5070   86.0820   81.1040 C.3   299  VAL299      0.0019
     41  N        129.6940   82.8160   86.4860 N.3   303  LEU303     -0.1245
     42  CA       129.2780   82.8340   87.8780 C.3   303  LEU303      0.1561
     43  C        129.6340   81.5340   88.5680 C.2   303  LEU303      0.2260
     44  O        130.1890   81.5380   89.6710 O.2   303  LEU303     -0.2867
     45  CB       127.7770   83.0610   87.9470 C.3   303  LEU303      0.0270
     46  CG       127.3250   84.3100   87.2070 C.3   303  LEU303      0.0019
     47  CD1      125.8220   84.3750   87.1990 C.3   303  LEU303      0.0001
     48  CD2      127.9200   85.5450   87.8380 C.3   303  LEU303      0.0001
     49  N        129.7440   85.0650  106.3200 N.3   339  TYR339     -0.1241
     50  CA       129.5440   86.1870  105.4180 C.3   339  TYR339      0.1605
     51  C        129.4160   85.7080  103.9880 C.2   339  TYR339      0.2264
     52  O        128.5360   86.1540  103.2460 O.2   339  TYR339     -0.2867
     53  CB       130.7040   87.1690  105.5400 C.3   339  TYR339      0.0534
     54  CG       130.6860   88.2730  104.5140 C.ar  339  TYR339     -0.0201
     55  CD1      129.8780   89.3840  104.6750 C.ar  339  TYR339     -0.0009
     56  CD2      131.4800   88.2030  103.3840 C.ar  339  TYR339     -0.0009
     57  CE1      129.8670   90.3900  103.7450 C.ar  339  TYR339      0.0417
     58  CE2      131.4700   89.2040  102.4490 C.ar  339  TYR339      0.0417
     59  CZ       130.6630   90.2930  102.6340 C.ar  339  TYR339      0.1957
     60  OH       130.6530   91.2930  101.6990 O.3   339  TYR339     -0.2866
     61  N        125.7170   83.8880  102.5960 N.3   342  ILE342     -0.1231
     62  CA       124.7700   84.7530  101.9110 C.3   342  ILE342      0.1692
     63  C        125.3370   85.1760  100.5720 C.2   342  ILE342      0.2591
     64  O        124.6770   85.0610   99.5350 O.2   342  ILE342     -0.2718
     65  CB       124.4270   85.9700  102.7800 C.3   342  ILE342      0.0266
     66  CG1      123.6370   85.5240  104.0050 C.3   342  ILE342      0.0019
     67  CG2      123.6460   86.9680  101.9770 C.3   342  ILE342      0.0020
     68  CD1      123.4160   86.6050  105.0260 C.3   342  ILE342      0.0001
     69  N        126.5780   85.6640  100.5800 N.am  343  GLN343     -0.1979
     70  CA       127.2750   85.9430   99.3340 C.3   343  GLN343      0.1601
     71  C        127.1580   84.7650   98.3850 C.2   343  GLN343      0.2287
     72  O        126.9860   84.9390   97.1760 O.2   343  GLN343     -0.2864
     73  CB       128.7470   86.2240   99.6200 C.3   343  GLN343      0.0394
     74  CG       129.0510   87.4410  100.4600 C.3   343  GLN343      0.0908
     75  CD       128.7270   88.7210   99.7530 C.2   343  GLN343      0.2608
     76  OE1      128.8700   88.8180   98.5370 O.2   343  GLN343     -0.2717
     77  NE2      128.3290   89.7310  100.5090 N.am  343  GLN343     -0.0878
     78  N        122.7460   83.3030   97.2940 N.3   346  ASN346     -0.1225
     79  CA       122.1210   83.9240   96.1410 C.3   346  ASN346      0.1785
     80  C        122.8400   83.5510   94.8580 C.2   346  ASN346      0.2597
     81  O        122.2300   83.0330   93.9170 O.2   346  ASN346     -0.2718
     82  CB       122.1170   85.4240   96.3450 C.3   346  ASN346      0.1169
     83  CG       123.4740   85.9400   96.6350 C.2   346  ASN346      0.2627
     84  OD1      124.3840   85.1590   96.8930 O.2   346  ASN346     -0.2716
     85  ND2      123.6360   87.2490   96.6070 N.am  346  ASN346     -0.0877
     86  N        124.1490   83.7930   94.8060 N.am  347  ILE347     -0.1980
     87  CA       124.8630   83.5950   93.5590 C.3   347  ILE347      0.1595
     88  C        124.8680   82.1320   93.1870 C.2   347  ILE347      0.2287
     89  O        125.0360   81.7880   92.0150 O.2   347  ILE347     -0.2864
     90  CB       126.2850   84.1580   93.6560 C.3   347  ILE347      0.0276
     91  CG1      126.9180   84.2000   92.2740 C.3   347  ILE347      0.0022
     92  CG2      127.1210   83.3100   94.5630 C.3   347  ILE347      0.0022
     93  CD1      128.1700   85.0190   92.2250 C.3   347  ILE347      0.0001
     94  N        121.2480   82.3780   91.5460 N.3   350  VAL350     -0.1245
     95  CA       121.1300   83.1810   90.3360 C.3   350  VAL350      0.1561
     96  C        121.5150   82.3660   89.1170 C.2   350  VAL350      0.2260
     97  O        120.8600   82.4340   88.0720 O.2   350  VAL350     -0.2867
     98  CB       121.9900   84.4450   90.4570 C.3   350  VAL350      0.0252
     99  CG1      121.8470   85.2730   89.2070 C.3   350  VAL350      0.0019
    100  CG2      121.5890   85.2170   91.6750 C.3   350  VAL350      0.0019
    101  N        119.2950   81.0700   85.3410 N.3   354  PHE354     -0.1241
    102  CA       119.6790   81.0490   83.9390 C.3   354  PHE354      0.1605
    103  C        119.7170   79.6450   83.3780 C.2   354  PHE354      0.2264
    104  O        119.5630   79.4680   82.1680 O.2   354  PHE354     -0.2867
    105  CB       121.0370   81.7140   83.7640 C.3   354  PHE354      0.0534
    106  CG       121.0300   83.1750   84.0720 C.ar  354  PHE354     -0.0203
    107  CD1      120.7410   84.0970   83.0910 C.ar  354  PHE354     -0.0042
    108  CD2      121.2820   83.6230   85.3530 C.ar  354  PHE354     -0.0042
    109  CE1      120.7310   85.4380   83.3750 C.ar  354  PHE354     -0.0003
    110  CE2      121.2690   84.9640   85.6440 C.ar  354  PHE354     -0.0003
    111  CZ       120.9960   85.8730   84.6540 C.ar  354  PHE354     -0.0000
@<TRIPOS>BOND
     1    34    35    1
     2    40    38    1
     3    35    38    1
     4    35    36    1
     5    38    39    1
     6   104   103    2
     7    36    37    2
     8   107   109   ar
     9   107   106   ar
    10   109   111   ar
    11   103   102    1
    12   105   102    1
    13   105   106    1
    14   102   101    1
    15   106   108   ar
    16   111   110   ar
    17   108   110   ar
    18    41    42    1
    19    47    46    1
    20    46    48    1
    21    46    45    1
    22    42    45    1
    23    42    43    1
    24    97    96    2
    25    43    44    2
    26    96    95    1
    27    99    98    1
    28    95    98    1
    29    95    94    1
    30    98   100    1
    31    89    88    2
    32    93    91    1
    33    91    90    1
    34    88    87    1
    35    87    90    1
    36    87    86    1
    37    90    92    1
    38    81    80    2
    39    86    80   am
    40    80    79    1
    41    79    82    1
    42    79    78    1
    43    82    83    1
    44    85    83   am
    45    83    84    2
    46    72    71    2
    47    71    70    1
    48    76    75    2
    49    70    73    1
    50    70    69    1
    51    64    63    2
    52    73    74    1
    53    75    74    1
    54    75    77   am
    55    24    23   ar
    56    24    22   ar
    57    23    21   ar
    58    22    20   ar
    59    63    69   am
    60    63    62    1
    61    21    18   ar
    62    20    18   ar
    63    20    19   ar
    64    60    59    1
    65    62    61    1
    66    62    65    1
    67    67    65    1
    68    18    16   ar
    69    58    59   ar
    70    58    56   ar
    71    19    17   ar
    72    59    57   ar
    73    65    66    1
    74    52    51    2
    75    56    54   ar
    76    16    17   ar
    77    16    15    1
    78    57    55   ar
    79    51    50    1
    80    66    68    1
    81    15    12    1
    82    54    55   ar
    83    54    53    1
    84    12    13    1
    85    12    11    1
    86    50    53    1
    87    50    49    1
    88    13    14    2
    89    11     3   am
    90    33    31   am
    91     3     4    2
    92     3     2    1
    93     2     1    1
    94     2     5    1
    95    32    31    2
    96    31    30    1
    97    10     9   ar
    98    10     8   ar
    99     9     7   ar
   100     8     6   ar
   101     7     6   ar
   102     6     5    1
   103    30    29    1
   104    29    26    1
   105    26    27    1
   106    26    25    1
   107    27    28    2
