@<TRIPOS>MOLECULE
tmp/5mkjA01.pdb
 196 186 0 0 0
SMALL
GASTEIGER

@<TRIPOS>ATOM
      1  N          4.2800  -24.6750   -4.5600 N.3    21  ILE21      -0.1231
      2  CA         4.2890  -23.3270   -4.0030 C.3    21  ILE21       0.1692
      3  C          4.0770  -23.3740   -2.4970 C.2    21  ILE21       0.2592
      4  O          4.7240  -22.6400   -1.7400 O.2    21  ILE21      -0.2718
      5  CB         3.2280  -22.4570   -4.7010 C.3    21  ILE21       0.0266
      6  CG1        3.6630  -22.1410   -6.1340 C.3    21  ILE21       0.0019
      7  CG2        2.9750  -21.1830   -3.9100 C.3    21  ILE21       0.0020
      8  CD1        2.6820  -21.2800   -6.8980 C.3    21  ILE21       0.0001
      9  N          3.1730  -24.2400   -2.0370 N.am   22  CYS22      -0.1970
     10  CA         2.9220  -24.3540   -0.6060 C.3    22  CYS22       0.1712
     11  C          4.1290  -24.9330    0.1210 C.2    22  CYS22       0.2296
     12  O          4.4640  -24.4920    1.2270 O.2    22  CYS22      -0.2864
     13  CB         1.6800  -25.2080   -0.3600 C.3    22  CYS22       0.0983
     14  SG         0.1550  -24.4700   -0.9810 S.3    22  CYS22      -0.0798
     15  N          7.3010  -24.5760   -0.7030 N.3    24  ALA24      -0.1231
     16  CA         8.2880  -23.5100   -0.5770 C.3    24  ALA24       0.1694
     17  C          7.8690  -22.4930    0.4770 C.2    24  ALA24       0.2591
     18  O          8.7030  -22.0160    1.2570 O.2    24  ALA24      -0.2718
     19  CB         8.5040  -22.8300   -1.9290 C.3    24  ALA24       0.0304
     20  N          6.5810  -22.1470    0.5170 N.am   25  ALA25      -0.1980
     21  CA         6.1060  -21.1830    1.5050 C.3    25  ALA25       0.1597
     22  C          6.3380  -21.6950    2.9210 C.2    25  ALA25       0.2287
     23  O          6.8320  -20.9630    3.7870 O.2    25  ALA25      -0.2864
     24  CB         4.6250  -20.8790    1.2760 C.3    25  ALA25       0.0319
     25  N         10.0090  -21.4940    3.8280 N.3    28  GLN28      -0.1245
     26  CA        10.5390  -20.1570    4.0600 C.3    28  GLN28       0.1566
     27  C         10.0250  -19.5300    5.3480 C.2    28  GLN28       0.2260
     28  O         10.6570  -18.5980    5.8580 O.2    28  GLN28      -0.2867
     29  CB        10.2160  -19.2490    2.8730 C.3    28  GLN28       0.0367
     30  CG        10.9570  -19.6310    1.6070 C.3    28  GLN28       0.0905
     31  CD        12.4480  -19.7820    1.8390 C.2    28  GLN28       0.2608
     32  OE1       12.9720  -20.8960    1.8780 O.2    28  GLN28      -0.2717
     33  NE2       13.1410  -18.6600    1.9960 N.am   28  GLN28      -0.0878
     34  N          3.9330  -12.2210    7.4080 N.3    58  TRP58      -0.1227
     35  CA         4.6700  -13.3530    6.8540 C.3    58  TRP58       0.1737
     36  C          4.4000  -13.5090    5.3620 C.2    58  TRP58       0.2595
     37  O          5.3160  -13.7950    4.5820 O.2    58  TRP58      -0.2718
     38  CB         4.3110  -14.6380    7.6030 C.3    58  TRP58       0.0564
     39  CG         2.9230  -15.1320    7.3270 C.ar   58  TRP58       0.0003
     40  CD1        1.7980  -14.8630    8.0500 C.ar   58  TRP58       0.0946
     41  CD2        2.5120  -15.9810    6.2470 C.ar   58  TRP58       0.0152
     42  NE1        0.7130  -15.4910    7.4890 N.ar   58  TRP58      -0.2442
     43  CE2        1.1240  -16.1830    6.3800 C.ar   58  TRP58       0.0810
     44  CE3        3.1830  -16.5870    5.1800 C.ar   58  TRP58       0.0012
     45  CZ2        0.3950  -16.9670    5.4880 C.ar   58  TRP58       0.0191
     46  CZ3        2.4570  -17.3660    4.2950 C.ar   58  TRP58       0.0001
     47  CH2        1.0780  -17.5490    4.4550 C.ar   58  TRP58       0.0015
     48  N          3.1510  -13.3070    4.9430 N.am   59  ASN59      -0.1974
     49  CA         2.7950  -13.5450    3.5500 C.3    59  ASN59       0.1688
     50  C          3.4330  -12.5080    2.6340 C.2    59  ASN59       0.2292
     51  O          4.1290  -12.8590    1.6740 O.2    59  ASN59      -0.2864
     52  CB         1.2750  -13.5530    3.3950 C.3    59  ASN59       0.1181
     53  CG         0.8370  -14.0400    2.0350 C.2    59  ASN59       0.2629
     54  OD1        0.0130  -13.4120    1.3700 O.2    59  ASN59      -0.2716
     55  ND2        1.4010  -15.1620    1.6020 N.am   59  ASN59      -0.0877
     56  N          7.2030  -13.0950    2.3940 N.3    62  LEU62      -0.1231
     57  CA         7.6500  -14.1530    1.4950 C.3    62  LEU62       0.1693
     58  C          7.4350  -13.7650    0.0380 C.2    62  LEU62       0.2591
     59  O          8.2910  -14.0310   -0.8140 O.2    62  LEU62      -0.2718
     60  CB         6.9220  -15.4570    1.8120 C.3    62  LEU62       0.0284
     61  CG         7.1700  -16.0550    3.1950 C.3    62  LEU62       0.0019
     62  CD1        6.4810  -17.4030    3.3140 C.3    62  LEU62       0.0001
     63  CD2        8.6610  -16.1840    3.4580 C.3    62  LEU62       0.0001
     64  N          6.2970  -13.1390   -0.2680 N.am   63  ILE63      -0.1980
     65  CA         6.0200  -12.7410   -1.6450 C.3    63  ILE63       0.1595
     66  C          7.0810  -11.7670   -2.1400 C.2    63  ILE63       0.2287
     67  O          7.5730  -11.8820   -3.2700 O.2    63  ILE63      -0.2864
     68  CB         4.6030  -12.1490   -1.7560 C.3    63  ILE63       0.0276
     69  CG1        3.5590  -13.2110   -1.4060 C.3    63  ILE63       0.0022
     70  CG2        4.3610  -11.6030   -3.1530 C.3    63  ILE63       0.0022
     71  CD1        2.1390  -12.6880   -1.3660 C.3    63  ILE63       0.0001
     72  N         10.0800  -11.6680   -1.2170 N.3    65  SER65      -0.1202
     73  CA        11.3390  -12.3870   -1.3780 C.3    65  SER65       0.2020
     74  C         11.4050  -13.0950   -2.7270 C.2    65  SER65       0.2618
     75  O         12.3340  -12.8730   -3.5110 O.2    65  SER65      -0.2717
     76  CB        11.5290  -13.3840   -0.2330 C.3    65  SER65       0.2103
     77  OG        11.8630  -12.7160    0.9690 O.3    65  SER65      -0.2182
     78  N         10.4290  -13.9610   -3.0180 N.am   66  PHE66      -0.1975
     79  CA        10.5120  -14.7320   -4.2530 C.3    66  PHE66       0.1639
     80  C         10.2960  -13.8680   -5.4870 C.2    66  PHE66       0.2290
     81  O         10.7420  -14.2450   -6.5760 O.2    66  PHE66      -0.2864
     82  CB         9.5270  -15.9100   -4.2310 C.3    66  PHE66       0.0560
     83  CG         8.0860  -15.5310   -4.4710 C.ar   66  PHE66      -0.0200
     84  CD1        7.6250  -15.2520   -5.7510 C.ar   66  PHE66      -0.0042
     85  CD2        7.1810  -15.5100   -3.4230 C.ar   66  PHE66      -0.0042
     86  CE1        6.3010  -14.9210   -5.9730 C.ar   66  PHE66      -0.0003
     87  CE2        5.8530  -15.1850   -3.6410 C.ar   66  PHE66      -0.0003
     88  CZ         5.4140  -14.8900   -4.9170 C.ar   66  PHE66      -0.0000
     89  N         13.6940  -12.3680   -6.0930 N.3    69  ARG69      -0.1245
     90  CA        14.5170  -13.5010   -6.4940 C.3    69  ARG69       0.1563
     91  C         14.2860  -13.9010   -7.9450 C.2    69  ARG69       0.2260
     92  O         15.1350  -14.5810   -8.5320 O.2    69  ARG69      -0.2867
     93  CB        14.2300  -14.6890   -5.5770 C.3    69  ARG69       0.0307
     94  CG        15.0230  -15.9440   -5.8850 C.3    69  ARG69       0.0489
     95  CD        14.3900  -17.1360   -5.1920 C.3    69  ARG69       0.2205
     96  NE        14.1720  -16.8810   -3.7710 N.pl3  69  ARG69      -0.0865
     97  CZ        13.1380  -17.3510   -3.0820 C.cat  69  ARG69       0.5346
     98  NH1       12.2190  -18.0890   -3.6880 N.pl3  69  ARG69       0.1354
     99  NH2       13.0150  -17.0740   -1.7900 N.pl3  69  ARG69       0.1354
    100  N          8.5100  -17.6770  -11.8610 N.3    77  ILE77      -0.1245
    101  CA         8.8590  -17.4810  -10.4610 C.3    77  ILE77       0.1561
    102  C          9.8910  -18.5270  -10.0710 C.2    77  ILE77       0.2260
    103  O          9.8240  -19.6760  -10.5220 O.2    77  ILE77      -0.2867
    104  CB         7.6170  -17.5700   -9.5490 C.3    77  ILE77       0.0252
    105  CG1        6.7090  -16.3610   -9.7730 C.3    77  ILE77       0.0019
    106  CG2        8.0290  -17.6770   -8.0900 C.3    77  ILE77       0.0019
    107  CD1        7.4030  -15.0340   -9.5630 C.3    77  ILE77       0.0001
    108  N         11.0350  -20.4910   -6.9940 N.3    79  LEU79      -0.1231
    109  CA        10.6690  -20.8450   -5.6320 C.3    79  LEU79       0.1693
    110  C         11.9140  -21.1020   -4.7900 C.2    79  LEU79       0.2591
    111  O         12.9830  -21.4440   -5.3030 O.2    79  LEU79      -0.2718
    112  CB         9.7670  -22.0780   -5.6220 C.3    79  LEU79       0.0284
    113  CG         8.4210  -21.9250   -6.3350 C.3    79  LEU79       0.0019
    114  CD1        7.6070  -23.2050   -6.2230 C.3    79  LEU79       0.0001
    115  CD2        7.6470  -20.7400   -5.7790 C.3    79  LEU79       0.0001
    116  N         11.7640  -20.9310   -3.4740 N.am   80  ALA80      -0.1980
    117  CA        12.8810  -21.1550   -2.5650 C.3    80  ALA80       0.1597
    118  C         13.3680  -22.5960   -2.6000 C.2    80  ALA80       0.2287
    119  O         14.4920  -22.8710   -2.1660 O.2    80  ALA80      -0.2864
    120  CB        12.4820  -20.7700   -1.1400 C.3    80  ALA80       0.0319
    121  N         -4.2500  -20.7730  -11.2060 N.3    95  VAL95      -0.1245
    122  CA        -3.8510  -19.6110  -10.4190 C.3    95  VAL95       0.1561
    123  C         -3.1190  -18.6200  -11.3140 C.2    95  VAL95       0.2260
    124  O         -2.1710  -17.9570  -10.8800 O.2    95  VAL95      -0.2867
    125  CB        -2.9760  -20.0230   -9.2210 C.3    95  VAL95       0.0252
    126  CG1       -3.7520  -20.9380   -8.2860 C.3    95  VAL95       0.0019
    127  CG2       -1.7030  -20.7000   -9.7030 C.3    95  VAL95       0.0019
    128  N         -3.5540  -14.3670  -10.2800 N.3    98  ILE98      -0.1231
    129  CA        -2.6910  -13.8270   -9.2350 C.3    98  ILE98       0.1692
    130  C         -1.2250  -13.9790   -9.6210 C.2    98  ILE98       0.2592
    131  O         -0.3980  -13.1070   -9.3290 O.2    98  ILE98      -0.2718
    132  CB        -2.9990  -14.5000   -7.8850 C.3    98  ILE98       0.0266
    133  CG1       -2.1560  -13.8740   -6.7710 C.3    98  ILE98       0.0019
    134  CG2       -2.7580  -16.0020   -7.9670 C.3    98  ILE98       0.0020
    135  CD1       -2.3850  -12.3870   -6.5940 C.3    98  ILE98       0.0001
    136  N         -0.8790  -15.0860  -10.2830 N.am   99  PHE99      -0.1976
    137  CA         0.4900  -15.2660  -10.7530 C.3    99  PHE99       0.1639
    138  C          0.8870  -14.1550  -11.7170 C.2    99  PHE99       0.2290
    139  O          2.0080  -13.6360  -11.6510 O.2    99  PHE99      -0.2864
    140  CB         0.6380  -16.6370  -11.4150 C.3    99  PHE99       0.0560
    141  CG         2.0540  -16.9910  -11.7810 C.ar   99  PHE99      -0.0200
    142  CD1        2.6220  -16.5150  -12.9500 C.ar   99  PHE99      -0.0042
    143  CD2        2.8090  -17.8140  -10.9630 C.ar   99  PHE99      -0.0042
    144  CE1        3.9210  -16.8430  -13.2920 C.ar   99  PHE99      -0.0003
    145  CE2        4.1090  -18.1490  -11.3010 C.ar   99  PHE99      -0.0003
    146  CZ         4.6650  -17.6620  -12.4680 C.ar   99  PHE99      -0.0000
    147  N          1.6240  -10.9390   -9.8440 N.3   102  VAL102     -0.1245
    148  CA         2.9500  -10.9280   -9.2340 C.3   102  VAL102      0.1561
    149  C          4.0020  -10.5250  -10.2590 C.2   102  VAL102      0.2260
    150  O          4.9200   -9.7520   -9.9590 O.2   102  VAL102     -0.2867
    151  CB         3.2620  -12.3010   -8.6090 C.3   102  VAL102      0.0252
    152  CG1        4.7410  -12.4130   -8.2870 C.3   102  VAL102      0.0019
    153  CG2        2.4280  -12.5120   -7.3550 C.3   102  VAL102      0.0019
    154  N         -3.3380  -13.9020   -2.4410 N.3   185  CYS185     -0.1235
    155  CA        -2.6310  -15.1620   -2.2380 C.3   185  CYS185      0.1677
    156  C         -3.1470  -15.8860   -1.0030 C.2   185  CYS185      0.2270
    157  O         -3.2590  -17.1180   -0.9950 O.2   185  CYS185     -0.2867
    158  CB        -1.1280  -14.9140   -2.1180 C.3   185  CYS185      0.0956
    159  SG        -0.3020  -14.5270   -3.6720 S.3   185  CYS185     -0.0801
    160  N         -6.3460  -17.7690   -1.7490 N.3   188  HIS188     -0.1226
    161  CA        -6.0230  -19.0370   -2.3940 C.3   188  HIS188      0.1752
    162  C         -5.5840  -20.0720   -1.3680 C.2   188  HIS188      0.2595
    163  O         -5.9830  -21.2400   -1.4390 O.2   188  HIS188     -0.2718
    164  CB        -4.9310  -18.8400   -3.4490 C.3   188  HIS188      0.0759
    165  CG        -5.4100  -18.1890   -4.7120 C.ar  188  HIS188      0.0818
    166  ND1       -5.4010  -16.8240   -4.8970 N.ar  188  HIS188     -0.2268
    167  CD2       -5.9020  -18.7200   -5.8570 C.ar  188  HIS188      0.1154
    168  CE1       -5.8710  -16.5400   -6.0980 C.ar  188  HIS188      0.1986
    169  NE2       -6.1830  -17.6740   -6.7020 N.ar  188  HIS188     -0.2212
    170  N         -4.7660  -19.6570   -0.3980 N.am  189  LEU189     -0.1980
    171  CA        -4.3190  -20.5790    0.6390 C.3   189  LEU189      0.1596
    172  C         -5.5000  -21.1660    1.4020 C.2   189  LEU189      0.2287
    173  O         -5.5180  -22.3640    1.7080 O.2   189  LEU189     -0.2864
    174  CB        -3.3650  -19.8660    1.5960 C.3   189  LEU189      0.0297
    175  CG        -2.1360  -20.6620    2.0350 C.3   189  LEU189      0.0022
    176  CD1       -1.5090  -20.0380    3.2740 C.3   189  LEU189      0.0001
    177  CD2       -2.4880  -22.1220    2.2730 C.3   189  LEU189      0.0001
    178  N         -7.2790  -23.6310   -0.8520 N.3   192  PHE192     -0.1241
    179  CA        -6.5060  -24.8690   -0.8930 C.3   192  PHE192      0.1605
    180  C         -6.7710  -25.7120    0.3480 C.2   192  PHE192      0.2264
    181  O         -7.0050  -26.9220    0.2550 O.2   192  PHE192     -0.2867
    182  CB        -5.0150  -24.5560   -1.0180 C.3   192  PHE192      0.0534
    183  CG        -4.6640  -23.7280   -2.2210 C.ar  192  PHE192     -0.0203
    184  CD1       -5.4440  -23.7720   -3.3650 C.ar  192  PHE192     -0.0042
    185  CD2       -3.5520  -22.9010   -2.2050 C.ar  192  PHE192     -0.0042
    186  CE1       -5.1200  -23.0070   -4.4700 C.ar  192  PHE192     -0.0003
    187  CE2       -3.2220  -22.1350   -3.3070 C.ar  192  PHE192     -0.0003
    188  CZ        -4.0070  -22.1880   -4.4420 C.ar  192  PHE192     -0.0000
    189  N          2.9160  -23.5970    7.8140 N.3   204  LEU204     -0.1245
    190  CA         1.9560  -22.8850    6.9780 C.3   204  LEU204      0.1561
    191  C          0.5400  -23.0460    7.5150 C.2   204  LEU204      0.2260
    192  O         -0.2540  -22.0980    7.4890 O.2   204  LEU204     -0.2867
    193  CB         2.0470  -23.3780    5.5340 C.3   204  LEU204      0.0270
    194  CG         1.1840  -22.6400    4.5100 C.3   204  LEU204      0.0019
    195  CD1        1.5720  -21.1690    4.4340 C.3   204  LEU204      0.0001
    196  CD2        1.2940  -23.2990    3.1460 C.3   204  LEU204      0.0001
@<TRIPOS>BOND
     1   144   142   ar
     2   144   146   ar
     3   142   141   ar
     4   146   145   ar
     5   100   101    1
     6   141   140    1
     7   141   143   ar
     8   138   139    2
     9   138   137    1
    10   140   137    1
    11   123   124    2
    12   123   122    1
    13   145   143   ar
    14   121   122    1
    15   137   136    1
    16   103   102    2
    17   101   102    1
    18   101   104    1
    19   122   125    1
    20   136   130   am
    21   128   129    1
    22   149   150    2
    23   149   148    1
    24   147   148    1
    25   105   107    1
    26   105   104    1
    27   127   125    1
    28   130   131    2
    29   130   129    1
    30   104   106    1
    31   129   132    1
    32   148   151    1
    33   125   126    1
    34   151   152    1
    35   151   153    1
    36    92    91    2
    37   134   132    1
    38    91    90    1
    39   132   133    1
    40   108   109    1
    41     8     6    1
    42   133   135    1
    43   169   168   ar
    44   169   167   ar
    45    81    80    2
    46    90    89    1
    47    90    93    1
    48   113   114    1
    49   113   115    1
    50   113   112    1
    51     6     5    1
    52   168   166   ar
    53    86    84   ar
    54    86    88   ar
    55    94    93    1
    56    94    95    1
    57   167   165   ar
    58    84    83   ar
    59   109   112    1
    60   109   110    1
    61    80    79    1
    62   111   110    2
    63    95    96    1
    64    88    87   ar
    65   166   165   ar
    66   110   116   am
    67   165   164    1
    68     5     2    1
    69     5     7    1
    70     1     2    1
    71    83    82    1
    72    83    85   ar
    73   186   188   ar
    74   186   184   ar
    75   188   187   ar
    76    79    82    1
    77    79    78    1
    78     2     3    1
    79    96    97    2
    80    98    97    1
    81   159   158    1
    82    87    85   ar
    83    75    74    2
    84   116   117    1
    85   164   161    1
    86   184   183   ar
    87   187   185   ar
    88    67    66    2
    89    70    68    1
    90    97    99    1
    91    78    74   am
    92    74    73    1
    93   118   117    1
    94   118   119    2
    95   117   120    1
    96     3     9   am
    97     3     4    2
    98   154   155    1
    99   161   160    1
   100   161   162    1
   101   155   158    1
   102   155   156    1
   103   183   185   ar
   104   183   182    1
   105    66    65    1
   106     9    10    1
   107    19    16    1
   108    68    65    1
   109    68    69    1
   110    65    64    1
   111   163   162    2
   112    69    71    1
   113    73    72    1
   114    73    76    1
   115   162   170   am
   116   182   179    1
   117   156   157    2
   118    14    13    1
   119   179   178    1
   120   179   180    1
   121    59    58    2
   122    15    16    1
   123    10    13    1
   124    10    11    1
   125    16    17    1
   126   170   171    1
   127    64    58   am
   128    76    77    1
   129    58    57    1
   130    11    12    2
   131   181   180    2
   132    17    20   am
   133    17    18    2
   134    20    21    1
   135   171   172    1
   136   171   174    1
   137    24    21    1
   138    54    53    2
   139   172   173    2
   140    57    60    1
   141    57    56    1
   142    21    22    1
   143   174   175    1
   144    55    53   am
   145    30    31    1
   146    30    29    1
   147    51    50    2
   148    60    61    1
   149    31    32    2
   150    31    33   am
   151    53    52    1
   152   175   177    1
   153   175   176    1
   154    50    49    1
   155    29    26    1
   156    22    23    2
   157   196   194    1
   158    61    62    1
   159    61    63    1
   160    52    49    1
   161    49    48    1
   162    25    26    1
   163    26    27    1
   164    46    47   ar
   165    46    44   ar
   166   195   194    1
   167    47    45   ar
   168   194   193    1
   169    37    36    2
   170    48    36   am
   171    44    41   ar
   172    27    28    2
   173    36    35    1
   174    45    43   ar
   175   193   190    1
   176    41    43   ar
   177    41    39   ar
   178    43    42   ar
   179    35    34    1
   180    35    38    1
   181   190   191    1
   182   190   189    1
   183    39    38    1
   184    39    40   ar
   185    42    40   ar
   186   192   191    2
