@<TRIPOS>MOLECULE
tmp/5mkoA00.pdb
 116 109 0 0 0
SMALL
GASTEIGER

@<TRIPOS>ATOM
      1  N         -0.4610   28.9510  -12.0620 N.3    54  ALA54      -0.1231
      2  CA         0.8260   29.4420  -11.6010 C.3    54  ALA54       0.1694
      3  C          1.6850   28.1950  -11.3560 C.2    54  ALA54       0.2592
      4  O          1.4260   27.4440  -10.4130 O.2    54  ALA54      -0.2718
      5  CB         0.6350   30.2390  -10.3250 C.3    54  ALA54       0.0304
      6  N          2.6250   27.9160  -12.2730 N.am   55  VAL55      -0.1966
      7  CA         3.4750   26.7250  -12.2180 C.3    55  VAL55       0.1727
      8  C          4.8680   27.0700  -11.6760 C.2    55  VAL55       0.2616
      9  O          5.5720   27.9080  -12.2340 O.2    55  VAL55      -0.2715
     10  CB         3.5080   25.9160  -13.5510 C.3    55  VAL55       0.0290
     11  CG1        2.1210   25.3960  -13.9150 C.3    55  VAL55       0.0023
     12  CG2        4.0940   26.7290  -14.7000 C.3    55  VAL55       0.0023
     13  N          5.2400   26.4330  -10.5720 N.am   56  SER56      -0.1950
     14  CA         6.5040   26.6550   -9.8620 C.3    56  SER56       0.1924
     15  C          7.6710   25.8030  -10.3410 C.2    56  SER56       0.2314
     16  O          8.8300   26.1880  -10.1410 O.2    56  SER56      -0.2863
     17  CB         6.3090   26.3990   -8.3720 C.3    56  SER56       0.2116
     18  OG         5.6770   25.1530   -8.1360 O.3    56  SER56      -0.2180
     19  N          2.9300   19.9400   -7.2870 N.3    60  ASP60      -0.1225
     20  CA         1.6070   20.4690   -6.9910 C.3    60  ASP60       0.1805
     21  C          0.9890   21.2700   -8.1340 C.2    60  ASP60       0.2598
     22  O         -0.0760   20.8910   -8.6180 O.2    60  ASP60      -0.2718
     23  CB         1.6550   21.2660   -5.6810 C.3    60  ASP60       0.1424
     24  CG         2.2530   20.4740   -4.5300 C.2    60  ASP60       0.3668
     25  OD1        1.5540   19.5860   -3.9990 O.co2  60  ASP60      -0.2456
     26  OD2        3.4520   20.6900   -4.2140 O.co2  60  ASP60      -0.2456
     27  N          1.6570   22.3310   -8.5870 N.am   61  SER61      -0.1952
     28  CA         1.1840   23.1610   -9.6990 C.3    61  SER61       0.1924
     29  C          1.2020   22.4200  -11.0460 C.2    61  SER61       0.2314
     30  O          0.3760   22.7170  -11.9160 O.2    61  SER61      -0.2863
     31  CB         2.0040   24.4390   -9.7890 C.3    61  SER61       0.2116
     32  OG         3.4020   24.2050   -9.6980 O.3    61  SER61      -0.2180
     33  N          1.7400   30.0920  -16.0310 N.3    78  LEU78      -0.1231
     34  CA         2.7230   31.1220  -15.7340 C.3    78  LEU78       0.1693
     35  C          3.8090   30.6070  -14.8120 C.2    78  LEU78       0.2592
     36  O          3.5120   30.0620  -13.7580 O.2    78  LEU78      -0.2718
     37  CB         2.0920   32.4230  -15.1780 C.3    78  LEU78       0.0284
     38  CG         3.0820   33.5080  -14.6690 C.3    78  LEU78       0.0019
     39  CD1        3.8470   34.1600  -15.7940 C.3    78  LEU78       0.0001
     40  CD2        2.3830   34.5560  -13.8490 C.3    78  LEU78       0.0001
     41  N          5.0650   30.7900  -15.2110 N.am   79  HIS79      -0.1962
     42  CA         6.2030   30.4560  -14.3780 C.3    79  HIS79       0.1787
     43  C          6.9600   31.7380  -14.0910 C.2    79  HIS79       0.2620
     44  O          7.2660   32.4970  -15.0110 O.2    79  HIS79      -0.2715
     45  CB         7.1210   29.3970  -15.0140 C.3    79  HIS79       0.0785
     46  CG         8.3570   29.1500  -14.2010 C.ar   79  HIS79       0.0821
     47  ND1        8.3040   28.4680  -12.9990 N.ar   79  HIS79      -0.2267
     48  CD2        9.6260   29.5780  -14.4060 C.ar   79  HIS79       0.1154
     49  CE1        9.5390   28.4880  -12.5170 C.ar   79  HIS79       0.1986
     50  NE2       10.3700   29.1440  -13.3290 N.ar   79  HIS79      -0.2212
     51  N          7.2440   31.9860  -12.8080 N.am   80  ILE80      -0.1977
     52  CA         7.9990   33.1660  -12.3920 C.3    80  ILE80       0.1596
     53  C          9.4050   32.7260  -11.9850 C.2    80  ILE80       0.2287
     54  O          9.5550   31.9480  -11.0480 O.2    80  ILE80      -0.2864
     55  CB         7.2780   34.0240  -11.3030 C.3    80  ILE80       0.0276
     56  CG1        5.7630   34.1900  -11.6030 C.3    80  ILE80       0.0022
     57  CG2        7.9820   35.3880  -11.1350 C.3    80  ILE80       0.0022
     58  CD1        4.9030   34.5180  -10.4080 C.3    80  ILE80       0.0001
     59  N         12.5750   33.5760  -10.2530 N.3    82  LEU82      -0.1245
     60  CA        13.0130   34.4930   -9.2000 C.3    82  LEU82       0.1561
     61  C         14.5210   34.8340   -9.2500 C.2    82  LEU82       0.2260
     62  O         15.0370   35.4520   -8.3190 O.2    82  LEU82      -0.2867
     63  CB        12.6070   34.0000   -7.7910 C.3    82  LEU82       0.0270
     64  CG        11.1370   33.6010   -7.4990 C.3    82  LEU82       0.0019
     65  CD1       10.1020   34.6290   -7.9800 C.3    82  LEU82       0.0001
     66  CD2       10.8500   32.1950   -7.9150 C.3    82  LEU82       0.0001
     67  N          7.1610   35.7060   -1.5120 N.3   133  GLY133     -0.1225
     68  CA         5.7120   35.5430   -1.5740 C.3   133  GLY133      0.1811
     69  C          4.9940   36.7800   -2.0600 C.2   133  GLY133      0.2280
     70  O          4.0510   36.6700   -2.8380 O.2   133  GLY133     -0.2866
     71  N          5.8280   36.9350   -5.9260 N.3   136  LYS136     -0.1245
     72  CA         5.0790   35.9230   -6.6790 C.3   136  LYS136      0.1561
     73  C          3.5890   36.2370   -6.7760 C.2   136  LYS136      0.2260
     74  O          3.0480   36.2470   -7.8780 O.2   136  LYS136     -0.2867
     75  CB         5.3020   34.5090   -6.1210 C.3   136  LYS136      0.0271
     76  CG         6.7030   33.9680   -6.3800 C.3   136  LYS136      0.0035
     77  CD         6.8800   32.5180   -5.9370 C.3   136  LYS136      0.0206
     78  CE         6.7360   32.2720   -4.4540 C.3   136  LYS136      0.1093
     79  NZ         7.1000   30.8800   -4.0990 N.3   136  LYS136     -0.1314
     80  N          1.7690   37.1600  -10.3220 N.3   140  MET140     -0.1245
     81  CA         0.7380   36.2590  -10.8370 C.3   140  MET140      0.1570
     82  C         -0.6200   36.9470  -10.9020 C.2   140  MET140      0.2261
     83  O         -1.3700   36.6430  -11.8220 O.2   140  MET140     -0.2867
     84  CB         0.6820   34.8770  -10.1480 C.3   140  MET140      0.0387
     85  CG         0.1660   34.8740   -8.7290 C.3   140  MET140      0.0595
     86  SD         0.1890   33.2170   -7.9790 S.3   140  MET140     -0.1393
     87  CE         1.9290   33.0930   -7.4930 C.3   140  MET140      0.0692
     88  N         -3.7290   27.6030   -8.1050 N.3   154  THR154     -0.1203
     89  CA        -2.4670   27.2630   -7.4580 C.3   154  THR154      0.1994
     90  C         -2.4500   25.7810   -7.0880 C.2   154  THR154      0.2618
     91  O         -3.4890   25.1220   -7.1480 O.2   154  THR154     -0.2717
     92  CB        -2.1400   28.2180   -6.2990 C.3   154  THR154      0.1784
     93  OG1       -3.1950   28.2050   -5.3330 O.3   154  THR154     -0.2211
     94  CG2       -1.8340   29.6330   -6.7670 C.3   154  THR154      0.0376
     95  N         -1.2670   25.2770   -6.7390 N.am  155  GLY155     -0.1942
     96  CA        -1.0450   23.8730   -6.4050 C.3   155  GLY155      0.2014
     97  C         -1.3090   23.4290   -4.9780 C.2   155  GLY155      0.2638
     98  O         -1.0870   22.2550   -4.6720 O.2   155  GLY155     -0.2714
     99  N         -1.8060   24.3300   -4.0990 N.am  156  HIS156     -0.1973
    100  CA        -2.0930   24.0210   -2.6850 C.3   156  HIS156      0.1656
    101  C         -2.9860   22.7900   -2.4770 C.2   156  HIS156      0.2291
    102  O         -4.1360   22.7620   -2.9260 O.2   156  HIS156     -0.2864
    103  CB        -2.6970   25.2130   -1.9540 C.3   156  HIS156      0.0771
    104  CG        -1.8510   26.4380   -1.9670 C.ar  156  HIS156      0.0820
    105  ND1       -1.8730   27.3110   -3.0330 N.ar  156  HIS156     -0.2267
    106  CD2       -1.0470   26.9400   -1.0060 C.ar  156  HIS156      0.1154
    107  CE1       -1.0760   28.3090   -2.6930 C.ar  156  HIS156      0.1986
    108  NE2       -0.5510   28.1260   -1.4840 N.ar  156  HIS156     -0.2212
    109  N         -1.1370   21.2420    2.7400 N.3   160  ASP160     -0.1239
    110  CA        -0.7970   22.6710    2.7870 C.3   160  ASP160      0.1674
    111  C         -1.8170   23.4470    3.6120 C.2   160  ASP160      0.2266
    112  O         -1.4350   24.2770    4.4310 O.2   160  ASP160     -0.2867
    113  CB        -0.6810   23.2720    1.3700 C.3   160  ASP160      0.1410
    114  CG         0.4600   22.7220    0.5280 C.2   160  ASP160      0.3668
    115  OD1        1.5870   22.5810    1.0680 O.co2 160  ASP160     -0.2456
    116  OD2        0.2410   22.4780   -0.6860 O.co2 160  ASP160     -0.2456
@<TRIPOS>BOND
     1    33    34    1
     2    39    38    1
     3    34    37    1
     4    34    35    1
     5    41    35   am
     6    41    42    1
     7    37    38    1
     8    45    42    1
     9    45    46    1
    10    44    43    2
    11    35    36    2
    12    12    10    1
    13    38    40    1
    14    48    46   ar
    15    48    50   ar
    16    42    43    1
    17    46    47   ar
    18    43    51   am
    19    11    10    1
    20    10     7    1
    21    50    49   ar
    22    47    49   ar
    23    51    52    1
    24    52    53    1
    25    52    55    1
    26     6     7    1
    27     6     3   am
    28     9     8    2
    29     7     8    1
    30     1     2    1
    31    53    54    2
    32    30    29    2
    33    83    82    2
    34     8    13   am
    35    56    55    1
    36    56    58    1
    37     2     3    1
    38     2     5    1
    39     3     4    2
    40    55    57    1
    41    29    28    1
    42    82    81    1
    43    81    80    1
    44    81    84    1
    45    13    14    1
    46    15    16    2
    47    15    14    1
    48    59    60    1
    49    84    85    1
    50    14    17    1
    51    31    28    1
    52    31    32    1
    53    28    27    1
    54    61    60    1
    55    61    62    2
    56    60    63    1
    57    85    86    1
    58    22    21    2
    59    27    21   am
    60    17    18    1
    61    21    20    1
    62    88    89    1
    63    65    64    1
    64    86    87    1
    65    66    64    1
    66    74    73    2
    67    63    64    1
    68    89    90    1
    69    89    92    1
    70    19    20    1
    71    91    90    2
    72    90    95   am
    73    20    23    1
    74    73    72    1
    75    94    92    1
    76    95    96    1
    77    72    75    1
    78    72    71    1
    79    96    97    1
    80    76    75    1
    81    76    77    1
    82    92    93    1
    83    77    78    1
    84    23    24    1
    85    97    98    2
    86    97    99   am
    87    24    26   ar
    88    24    25   ar
    89    78    79    1
    90    99   100    1
    91   105   107   ar
    92   105   104   ar
    93   102   101    2
    94    70    69    2
    95   107   108   ar
    96   100   101    1
    97   100   103    1
    98    69    68    1
    99   104   103    1
   100   104   106   ar
   101    68    67    1
   102   108   106   ar
   103   116   114   ar
   104   114   115   ar
   105   114   113    1
   106   113   110    1
   107   109   110    1
   108   110   111    1
   109   111   112    2
