@<TRIPOS>MOLECULE
tmp/5mksA00.pdb
 143 132 0 0 0
SMALL
GASTEIGER

@<TRIPOS>ATOM
      1  N         -8.4510   -4.0260    2.8920 N.3    12  THR12      -0.1203
      2  CA        -8.3630   -5.4600    3.2090 C.3    12  THR12       0.1994
      3  C         -9.1510   -6.3210    2.2300 C.2    12  THR12       0.2617
      4  O         -8.8000   -7.4820    2.0260 O.2    12  THR12      -0.2717
      5  CB        -8.8260   -5.7200    4.6720 C.3    12  THR12       0.1784
      6  OG1      -10.2000   -5.3440    4.8180 O.3    12  THR12      -0.2211
      7  CG2       -7.9810   -4.9910    5.7030 C.3    12  THR12       0.0376
      8  N        -10.2810   -5.7930    1.7440 N.am   13  TYR13      -0.1975
      9  CA       -11.1790   -6.4500    0.7870 C.3    13  TYR13       0.1639
     10  C        -11.7230   -5.4840   -0.2270 C.2    13  TYR13       0.2290
     11  O        -11.8640   -4.2720    0.0380 O.2    13  TYR13      -0.2864
     12  CB       -12.3770   -7.1580    1.4850 C.3    13  TYR13       0.0560
     13  CG       -13.4940   -6.2380    1.9380 C.ar   13  TYR13      -0.0198
     14  CD1      -14.5030   -5.8380    1.0560 C.ar   13  TYR13      -0.0009
     15  CD2      -13.6090   -5.8580    3.2690 C.ar   13  TYR13      -0.0009
     16  CE1      -15.5520   -5.0170    1.4800 C.ar   13  TYR13       0.0417
     17  CE2      -14.6740   -5.0770    3.7090 C.ar   13  TYR13       0.0417
     18  CZ       -15.6410   -4.6570    2.8140 C.ar   13  TYR13       0.1957
     19  OH       -16.6460   -3.8320    3.2600 O.3    13  TYR13      -0.2866
     20  N        -17.3470  -10.3740   -1.1530 N.3    35  THR35      -0.1218
     21  CA       -16.1500   -9.5470   -0.9310 C.3    35  THR35       0.1862
     22  C        -14.9760  -10.4250   -1.3240 C.2    35  THR35       0.2287
     23  O        -15.0970  -11.6480   -1.2260 O.2    35  THR35      -0.2866
     24  CB       -16.0610   -8.9710    0.4920 C.3    35  THR35       0.1770
     25  OG1      -15.8820  -10.0310    1.4390 O.3    35  THR35      -0.2211
     26  CG2      -17.3020   -8.1400    0.8670 C.3    35  THR35       0.0375
     27  N        -10.6780  -10.5560   -0.7600 N.3    37  PRO37      -0.2116
     28  CA        -9.5120   -9.9140   -0.0950 C.3    37  PRO37       0.1372
     29  C         -8.5660   -9.2070   -1.0670 C.2    37  PRO37       0.2244
     30  O         -8.3290   -9.7150   -2.1530 O.2    37  PRO37      -0.2868
     31  CB        -8.8420  -11.0700    0.6400 C.3    37  PRO37       0.0268
     32  CG        -9.9710  -12.0710    0.8500 C.3    37  PRO37       0.0207
     33  CD       -10.7270  -12.0060   -0.4590 C.3    37  PRO37       0.0892
     34  N         -4.8680  -14.5720    0.6700 N.3    54  LYS54      -0.1245
     35  CA        -4.9870  -14.3860    2.1230 C.3    54  LYS54       0.1561
     36  C         -4.7570  -15.7130    2.8530 C.2    54  LYS54       0.2260
     37  O         -4.0330  -15.7290    3.8530 O.2    54  LYS54      -0.2867
     38  CB        -6.3530  -13.7880    2.5050 C.3    54  LYS54       0.0271
     39  CG        -6.4940  -13.4570    4.0080 C.3    54  LYS54       0.0035
     40  CD        -7.5490  -12.4150    4.2870 C.3    54  LYS54       0.0206
     41  CE        -7.5820  -11.9750    5.7270 C.3    54  LYS54       0.1093
     42  NZ        -8.5720  -10.8690    5.9430 N.3    54  LYS54      -0.1314
     43  N        -14.1230   -0.6470    9.7270 N.3   199  GLY199     -0.1210
     44  CA       -13.6840   -1.8050    8.9570 C.3   199  GLY199      0.1956
     45  C        -12.8890   -2.8390    9.7290 C.2   199  GLY199      0.2612
     46  O        -12.8690   -2.8260   10.9660 O.2   199  GLY199     -0.2717
     47  N        -12.2640   -3.7660    8.9890 N.am  200  GLY200     -0.1956
     48  CA       -11.4380   -4.8160    9.5800 C.3   200  GLY200      0.1869
     49  C        -10.1780   -4.2540   10.1980 C.2   200  GLY200      0.2309
     50  O         -9.7220   -4.7320   11.2440 O.2   200  GLY200     -0.2863
     51  N        -11.9500   -4.2920   13.3340 N.3   228  GLY228     -0.1210
     52  CA       -12.3680   -5.6460   13.6790 C.3   228  GLY228      0.1956
     53  C        -11.2600   -6.5300   14.2130 C.2   228  GLY228      0.2611
     54  O        -11.4380   -7.1820   15.2440 O.2   228  GLY228     -0.2717
     55  N        -10.0820   -6.4920   13.5620 N.am  229  GLU229     -0.1979
     56  CA        -8.9040   -7.2750   13.9520 C.3   229  GLU229      0.1602
     57  C         -8.4120   -6.9820   15.3560 C.2   229  GLU229      0.2287
     58  O         -7.8550   -7.8740   16.0000 O.2   229  GLU229     -0.2864
     59  CB        -7.7620   -7.1430   12.9380 C.3   229  GLU229      0.0415
     60  CG        -6.9620   -8.4420   12.8380 C.3   229  GLU229      0.1163
     61  CD        -5.6540   -8.4350   12.0680 C.2   229  GLU229      0.3649
     62  OE1       -4.8730   -9.3990   12.2390 O.co2 229  GLU229     -0.2457
     63  OE2       -5.4160   -7.4900   11.2810 O.co2 229  GLU229     -0.2457
     64  N        -10.6130   -8.9460   17.7950 N.3   232  ASP232     -0.1239
     65  CA       -10.1660  -10.3400   17.7110 C.3   232  ASP232      0.1674
     66  C         -8.9600  -10.5380   18.6410 C.2   232  ASP232      0.2266
     67  O         -8.9970  -11.4600   19.4490 O.2   232  ASP232     -0.2867
     68  CB        -9.7770  -10.7010   16.2740 C.3   232  ASP232      0.1410
     69  CG       -10.9300  -10.7430   15.2810 C.2   232  ASP232      0.3668
     70  OD1      -12.1040  -10.5730   15.7090 O.co2 232  ASP232     -0.2456
     71  OD2      -10.6640  -10.9200   14.0780 O.co2 232  ASP232     -0.2456
     72  N        -12.7030  -14.9240   16.0780 N.3   266  GLU266     -0.1245
     73  CA       -13.3590  -14.0930   15.0720 C.3   266  GLU266      0.1567
     74  C        -14.8130  -14.5730   14.8340 C.2   266  GLU266      0.2260
     75  O        -15.6950  -13.7450   14.6420 O.2   266  GLU266     -0.2867
     76  CB       -12.5380  -14.1150   13.7840 C.3   266  GLU266      0.0388
     77  CG       -12.9770  -13.0980   12.7480 C.3   266  GLU266      0.1160
     78  CD       -14.1610  -13.4960   11.8890 C.2   266  GLU266      0.3649
     79  OE1      -14.4760  -14.7050   11.7730 O.co2 266  GLU266     -0.2457
     80  OE2      -14.8310  -12.5680   11.3950 O.co2 266  GLU266     -0.2457
     81  N        -16.8460  -13.7270   17.9430 N.3   269  LYS269     -0.1231
     82  CA       -17.1590  -12.2960   17.8650 C.3   269  LYS269      0.1693
     83  C        -18.3770  -12.0010   16.9500 C.2   269  LYS269      0.2591
     84  O        -19.2020  -11.1740   17.3020 O.2   269  LYS269     -0.2718
     85  CB       -15.9300  -11.5020   17.4320 C.3   269  LYS269      0.0285
     86  CG       -16.1990  -10.0050   17.2560 C.3   269  LYS269      0.0035
     87  CD       -15.0850   -9.3430   16.4800 C.3   269  LYS269      0.0206
     88  CE       -15.1180   -9.6560   14.9980 C.3   269  LYS269      0.1093
     89  NZ       -13.9560   -9.0240   14.3020 N.3   269  LYS269     -0.1314
     90  N        -18.4910  -12.6920   15.8080 N.am  270  ARG270     -0.1980
     91  CA       -19.6150  -12.4760   14.8720 C.3   270  ARG270      0.1597
     92  C        -20.9320  -12.9720   15.4450 C.2   270  ARG270      0.2287
     93  O        -21.9230  -12.2550   15.4090 O.2   270  ARG270     -0.2864
     94  CB       -19.3170  -13.0750   13.4880 C.3   270  ARG270      0.0334
     95  CG       -18.1850  -12.3360   12.7950 C.3   270  ARG270      0.0492
     96  CD       -18.0630  -12.7490   11.3340 C.3   270  ARG270      0.2205
     97  NE       -17.2840  -13.9800   11.1840 N.pl3 270  ARG270     -0.0865
     98  CZ       -17.8160  -15.1870   10.9990 C.cat 270  ARG270      0.5346
     99  NH1      -17.0340  -16.2510   10.8790 N.pl3 270  ARG270      0.1354
    100  NH2      -19.1340  -15.3390   10.9320 N.pl3 270  ARG270      0.1354
    101  N        -22.8190  -10.6400   17.8610 N.3   273  SER273     -0.1217
    102  CA       -23.5570   -9.4970   17.3080 C.3   273  SER273      0.1889
    103  C        -25.0730   -9.7850   17.2850 C.2   273  SER273      0.2288
    104  O        -25.8780   -8.8560   17.3100 O.2   273  SER273     -0.2866
    105  CB       -23.0420   -9.1250   15.9240 C.3   273  SER273      0.2089
    106  OG       -21.8030   -8.4320   16.0280 O.3   273  SER273     -0.2183
    107  N        -18.2360   -4.1120    8.2670 N.3   337  GLY337     -0.1210
    108  CA       -18.7530   -5.2740    8.9970 C.3   337  GLY337      0.1956
    109  C        -18.7930   -5.1770   10.5170 C.2   337  GLY337      0.2612
    110  O        -19.7130   -5.7080   11.1430 O.2   337  GLY337     -0.2717
    111  N        -17.8090   -4.5140   11.1280 N.am  338  SER338     -0.1952
    112  CA       -17.7470   -4.3090   12.5850 C.3   338  SER338      0.1924
    113  C        -18.8730   -3.3930   13.1210 C.2   338  SER338      0.2314
    114  O        -19.1050   -3.3840   14.3160 O.2   338  SER338     -0.2863
    115  CB       -16.3910   -3.7580   13.0000 C.3   338  SER338      0.2116
    116  OG       -15.3580   -4.6830   12.7390 O.3   338  SER338     -0.2180
    117  N        -21.8900   -3.9780   12.8680 N.3   340  ARG340     -0.1231
    118  CA       -22.9500   -4.9050   13.3020 C.3   340  ARG340      0.1694
    119  C        -22.8690   -5.1380   14.8330 C.2   340  ARG340      0.2591
    120  O        -23.8110   -5.6810   15.4050 O.2   340  ARG340     -0.2718
    121  CB       -22.7960   -6.2520   12.5810 C.3   340  ARG340      0.0321
    122  CG       -23.0610   -6.1890   11.0890 C.3   340  ARG340      0.0489
    123  CD       -22.9270   -7.5480   10.4480 C.3   340  ARG340      0.2205
    124  NE       -23.2630   -7.5330    9.0180 N.pl3 340  ARG340     -0.0865
    125  CZ       -22.3620   -7.5670    8.0400 C.cat 340  ARG340      0.5346
    126  NH1      -21.0710   -7.5910    8.3210 N.pl3 340  ARG340      0.1354
    127  NH2      -22.7490   -7.5580    6.7700 N.pl3 340  ARG340      0.1354
    128  N        -21.7470   -4.7540   15.4930 N.am  341  ILE341     -0.1980
    129  CA       -21.5800   -4.9030   16.9560 C.3   341  ILE341      0.1595
    130  C        -22.6070   -4.0360   17.6810 C.2   341  ILE341      0.2287
    131  O        -22.5600   -2.8170   17.5210 O.2   341  ILE341     -0.2864
    132  CB       -20.1110   -4.6320   17.4470 C.3   341  ILE341      0.0276
    133  CG1      -19.1240   -5.6610   16.8240 C.3   341  ILE341      0.0022
    134  CG2      -20.0330   -4.6410   18.9890 C.3   341  ILE341      0.0022
    135  CD1      -17.5600   -5.2900   16.9900 C.3   341  ILE341      0.0001
    136  N        -20.7790   -4.0740    4.5580 N.3   364  ASP364     -0.1239
    137  CA       -19.5800   -4.4080    3.7870 C.3   364  ASP364      0.1674
    138  C        -19.7650   -4.0990    2.3010 C.2   364  ASP364      0.2266
    139  O        -18.7900   -4.0070    1.5740 O.2   364  ASP364     -0.2867
    140  CB       -19.2790   -5.9080    3.8980 C.3   364  ASP364      0.1410
    141  CG       -19.1560   -6.4050    5.3090 C.2   364  ASP364      0.3668
    142  OD1      -18.0620   -6.2350    5.9050 O.co2 364  ASP364     -0.2456
    143  OD2      -20.1360   -6.9860    5.8120 O.co2 364  ASP364     -0.2456
@<TRIPOS>BOND
     1    30    29    2
     2    22    23    2
     3    22    21    1
     4    20    21    1
     5    29    28    1
     6    21    24    1
     7    27    33    1
     8    27    28    1
     9    33    32    1
    10    10    11    2
    11    10     9    1
    12    28    31    1
    13    24    26    1
    14    24    25    1
    15    31    32    1
    16    34    35    1
    17     9    12    1
    18     9     8    1
    19    14    16   ar
    20    14    13   ar
    21    16    18   ar
    22    12    13    1
    23   139   138    2
    24     8     3   am
    25    13    15   ar
    26     4     3    2
    27    35    38    1
    28    35    36    1
    29     3     2    1
    30   138   137    1
    31    38    39    1
    32    18    19    1
    33    18    17   ar
    34    36    37    2
    35     1     2    1
    36     2     5    1
    37    15    17   ar
    38   137   140    1
    39   137   136    1
    40   140   141    1
    41    39    40    1
    42    40    41    1
    43     5     6    1
    44     5     7    1
    45   141   143   ar
    46   141   142   ar
    47    41    42    1
    48   127   125    1
    49   125   126    1
    50   125   124    2
    51   107   108    1
    52    44    43    1
    53    44    45    1
    54    47    48    1
    55    47    45   am
    56   108   109    1
    57   124   123    1
    58    48    49    1
    59    45    46    2
    60    49    50    2
    61   123   122    1
    62   109   111   am
    63   109   110    2
    64    99    98    1
    65   100    98    1
    66    98    97    2
    67   122   121    1
    68   111   112    1
    69    97    96    1
    70    63    61   ar
    71    96    95    1
    72    80    78   ar
    73    79    78   ar
    74    78    77    1
    75    61    62   ar
    76    61    60    1
    77   121   118    1
    78   112   115    1
    79   112   113    1
    80   116   115    1
    81    77    76    1
    82    95    94    1
    83    60    59    1
    84   117   118    1
    85    59    56    1
    86   113   114    2
    87   118   119    1
    88    51    52    1
    89    94    91    1
    90    55    56    1
    91    55    53   am
    92    52    53    1
    93    76    73    1
    94    56    57    1
    95    71    69   ar
    96    53    54    2
    97    89    88    1
    98    75    74    2
    99   119   120    2
   100   119   128   am
   101    74    73    1
   102    91    92    1
   103    91    90    1
   104    88    87    1
   105    73    72    1
   106    69    70   ar
   107    69    68    1
   108    57    58    2
   109    93    92    2
   110   128   129    1
   111    90    83   am
   112   105   106    1
   113   105   102    1
   114    68    65    1
   115    87    86    1
   116   133   135    1
   117   133   132    1
   118    83    84    2
   119    83    82    1
   120   129   132    1
   121   129   130    1
   122    86    85    1
   123   103   102    1
   124   103   104    2
   125   102   101    1
   126    85    82    1
   127   132   134    1
   128   131   130    2
   129    65    64    1
   130    65    66    1
   131    82    81    1
   132    66    67    2
