@<TRIPOS>MOLECULE
tmp/5mkxA00.pdb
 112 111 0 0 0
SMALL
GASTEIGER

@<TRIPOS>ATOM
      1  N         -7.9690   12.8280   37.5940 N.3    21  TRP21      -0.1228
      2  CA        -7.3100   11.5770   37.9890 C.3    21  TRP21       0.1722
      3  C         -5.9480   11.3350   37.3240 C.2    21  TRP21       0.2437
      4  O         -5.0450   10.8290   37.9870 O.2    21  TRP21      -0.2733
      5  CB        -8.2380   10.3800   37.8180 C.3    21  TRP21       0.0563
      6  CG        -8.5580   10.0400   36.4190 C.ar   21  TRP21       0.0003
      7  CD1       -9.6510   10.4390   35.7060 C.ar   21  TRP21       0.0946
      8  CD2       -7.7770    9.2300   35.5420 C.ar   21  TRP21       0.0152
      9  NE1       -9.5940    9.9340   34.4350 N.ar   21  TRP21      -0.2442
     10  CE2       -8.4550    9.1840   34.3070 C.ar   21  TRP21       0.0810
     11  CE3       -6.5590    8.5450   35.6760 C.ar   21  TRP21       0.0012
     12  CZ2       -7.9680    8.4710   33.2180 C.ar   21  TRP21       0.0191
     13  CZ3       -6.0780    7.8370   34.5930 C.ar   21  TRP21       0.0001
     14  CH2       -6.7820    7.8060   33.3790 C.ar   21  TRP21       0.0015
     15  N         -5.7630   11.7080   36.0340 N.am   22  PRO22      -0.2718
     16  CA        -4.4100   11.4190   35.5200 C.3    22  PRO22       0.1535
     17  C         -3.2850   12.2310   36.1650 C.2    22  PRO22       0.2598
     18  O         -2.1170   11.8600   36.0580 O.2    22  PRO22      -0.2715
     19  CB        -4.5090   11.8030   34.0260 C.3    22  PRO22       0.0310
     20  CG        -5.9700   11.7760   33.7110 C.3    22  PRO22       0.0237
     21  CD        -6.6190   12.2840   34.9770 C.3    22  PRO22       0.0939
     22  N         -3.6390   13.3410   36.8050 N.am   23  PHE23      -0.1974
     23  CA        -2.6820   14.3410   37.2550 C.3    23  PHE23       0.1639
     24  C         -2.4780   14.3620   38.7670 C.2    23  PHE23       0.2290
     25  O         -1.7850   15.2330   39.2870 O.2    23  PHE23      -0.2864
     26  CB        -3.1630   15.7160   36.7650 C.3    23  PHE23       0.0560
     27  CG        -3.5630   15.7070   35.3260 C.ar   23  PHE23      -0.0200
     28  CD1       -2.6050   15.4620   34.3430 C.ar   23  PHE23      -0.0042
     29  CD2       -4.8850   15.8640   34.9500 C.ar   23  PHE23      -0.0042
     30  CE1       -2.9650   15.4220   33.0160 C.ar   23  PHE23      -0.0003
     31  CE2       -5.2520   15.8190   33.6180 C.ar   23  PHE23      -0.0003
     32  CZ        -4.2830   15.5900   32.6540 C.ar   23  PHE23      -0.0000
     33  N         -0.8300   12.3460   40.9130 N.3    25  GLU25      -0.1245
     34  CA         0.4870   11.9880   41.4310 C.3    25  GLU25       0.1567
     35  C          1.4850   12.0870   40.2830 C.2    25  GLU25       0.2260
     36  O          1.0850   12.0910   39.1250 O.2    25  GLU25      -0.2867
     37  CB         0.4800   10.5460   41.9660 C.3    25  GLU25       0.0388
     38  CG        -0.5630   10.2510   43.0370 C.3    25  GLU25       0.1160
     39  CD        -0.6050    8.7790   43.4180 C.2    25  GLU25       0.3649
     40  OE1       -0.7870    7.9260   42.5190 O.co2  25  GLU25      -0.2457
     41  OE2       -0.4580    8.4710   44.6200 O.co2  25  GLU25      -0.2457
     42  N          3.6320   11.0990   37.2550 N.3    27  VAL27      -0.1245
     43  CA         3.5080   10.0230   36.2870 C.3    27  VAL27       0.1561
     44  C          4.4890    8.9190   36.7010 C.2    27  VAL27       0.2260
     45  O          5.6410    9.1950   37.0100 O.2    27  VAL27      -0.2867
     46  CB         3.7980   10.5230   34.8530 C.3    27  VAL27       0.0252
     47  CG1        3.7870    9.3690   33.8730 C.3    27  VAL27       0.0019
     48  CG2        2.7670   11.5720   34.4430 C.3    27  VAL27       0.0019
     49  N          3.8900    3.5330   34.1350 N.3    31  GLU31      -0.1231
     50  CA         2.7800    4.0540   33.3240 C.3    31  GLU31       0.1699
     51  C          3.2520    4.6390   32.0000 C.2    31  GLU31       0.2592
     52  O          2.4930    4.6920   31.0290 O.2    31  GLU31      -0.2718
     53  CB         2.0140    5.1430   34.0980 C.3    31  GLU31       0.0402
     54  CG         1.2160    4.5790   35.2580 C.3    31  GLU31       0.1161
     55  CD         0.7630    5.6140   36.2710 C.2    31  GLU31       0.3649
     56  OE1        1.2520    6.7740   36.2640 O.co2  31  GLU31      -0.2457
     57  OE2       -0.0740    5.2370   37.1080 O.co2  31  GLU31      -0.2457
     58  N          4.4960    5.1010   31.9730 N.am   32  ALA32      -0.1980
     59  CA         5.0590    5.7380   30.7970 C.3    32  ALA32       0.1597
     60  C          6.5800    5.5900   30.8150 C.2    32  ALA32       0.2287
     61  O          7.2960    6.5300   31.1520 O.2    32  ALA32      -0.2864
     62  CB         4.6490    7.2010   30.7700 C.3    32  ALA32       0.0319
     63  N          9.2830    8.5170   30.1950 N.3    35  TYR35      -0.1241
     64  CA         8.6530    9.8340   30.3540 C.3    35  TYR35       0.1605
     65  C          9.6480   10.8920   30.8310 C.2    35  TYR35       0.2264
     66  O          9.6540   12.0160   30.3300 O.2    35  TYR35      -0.2867
     67  CB         7.4790    9.7110   31.3400 C.3    35  TYR35       0.0534
     68  CG         6.6570   10.9690   31.5620 C.ar   35  TYR35      -0.0201
     69  CD1        5.5420   11.2310   30.7790 C.ar   35  TYR35      -0.0009
     70  CD2        6.9720   11.8680   32.5770 C.ar   35  TYR35      -0.0009
     71  CE1        4.7740   12.3740   30.9800 C.ar   35  TYR35       0.0417
     72  CE2        6.2030   13.0080   32.7920 C.ar   35  TYR35       0.0417
     73  CZ         5.0980   13.2480   31.9950 C.ar   35  TYR35       0.1957
     74  OH         4.3220   14.3780   32.1900 O.3    35  TYR35      -0.2866
     75  N          1.3520   17.1790   29.5680 N.3    74  CYS74      -0.1235
     76  CA         0.4370   16.1700   29.0680 C.3    74  CYS74       0.1677
     77  C          0.2760   16.2890   27.5530 C.2    74  CYS74       0.2270
     78  O          0.3250   15.2990   26.8360 O.2    74  CYS74      -0.2867
     79  CB        -0.9080   16.3140   29.7700 C.3    74  CYS74       0.0956
     80  SG        -2.1030   15.0660   29.3080 S.3    74  CYS74      -0.0801
     81  N          3.4550   15.2780   25.6130 N.3    77  TYR77      -0.1227
     82  CA         3.7770   13.8570   25.6170 C.3    77  TYR77       0.1736
     83  C          2.7720   12.9900   24.8560 C.2    77  TYR77       0.2595
     84  O          3.1580   12.0340   24.1730 O.2    77  TYR77      -0.2718
     85  CB         3.9020   13.3580   27.0540 C.3    77  TYR77       0.0548
     86  CG         4.5490   12.0040   27.1490 C.ar   77  TYR77      -0.0200
     87  CD1        5.9310   11.8730   27.1030 C.ar   77  TYR77      -0.0009
     88  CD2        3.7770   10.8540   27.2680 C.ar   77  TYR77      -0.0009
     89  CE1        6.5310   10.6300   27.1890 C.ar   77  TYR77       0.0417
     90  CE2        4.3670    9.6050   27.3530 C.ar   77  TYR77       0.0417
     91  CZ         5.7460    9.5030   27.3140 C.ar   77  TYR77       0.1957
     92  OH         6.3400    8.2690   27.3980 O.3    77  TYR77      -0.2866
     93  N          1.4890   13.3160   24.9920 N.am   78  ASN78      -0.1974
     94  CA         0.4060   12.4490   24.5430 C.3    78  ASN78       0.1688
     95  C         -0.2540   12.9020   23.2480 C.2    78  ASN78       0.2292
     96  O         -0.2720   14.1000   22.9550 O.2    78  ASN78      -0.2864
     97  CB        -0.6640   12.3680   25.6230 C.3    78  ASN78       0.1181
     98  CG        -0.1560   11.7260   26.8920 C.2    78  ASN78       0.2629
     99  OD1        0.0680   10.5130   26.9280 O.2    78  ASN78      -0.2716
    100  ND2        0.0320   12.5250   27.9360 N.am   78  ASN78      -0.0877
    101  N         -5.8020   11.1150   28.1400 N.3    84  TYR84      -0.1241
    102  CA        -5.0350   12.0400   28.9700 C.3    84  TYR84       0.1605
    103  C         -5.1350   13.4620   28.4360 C.2    84  TYR84       0.2264
    104  O         -5.3790   14.4000   29.1950 O.2    84  TYR84      -0.2867
    105  CB        -3.5810   11.6370   29.0560 C.3    84  TYR84       0.0534
    106  CG        -3.3500   10.3300   29.7760 C.ar   84  TYR84      -0.0201
    107  CD1       -4.0520   10.0180   30.9250 C.ar   84  TYR84      -0.0009
    108  CD2       -2.3870    9.4420   29.3340 C.ar   84  TYR84      -0.0009
    109  CE1       -3.8280    8.8350   31.5980 C.ar   84  TYR84       0.0417
    110  CE2       -2.1640    8.2470   29.9980 C.ar   84  TYR84       0.0417
    111  CZ        -2.8890    7.9610   31.1290 C.ar   84  TYR84       0.1957
    112  OH        -2.6710    6.7950   31.8280 O.3    84  TYR84      -0.2866
@<TRIPOS>BOND
     1    96    95    2
     2    95    94    1
     3    84    83    2
     4    94    93    1
     5    94    97    1
     6    83    93   am
     7    83    82    1
     8    81    82    1
     9    82    85    1
    10    97    98    1
    11    78    77    2
    12    98    99    2
    13    98   100   am
    14    85    86    1
    15    87    86   ar
    16    87    89   ar
    17    86    88   ar
    18    89    91   ar
    19    88    90   ar
    20    91    90   ar
    21    91    92    1
    22    77    76    1
    23   101   102    1
    24   103   102    1
    25   103   104    2
    26   102   105    1
    27   105   106    1
    28    76    75    1
    29    76    79    1
    30    80    79    1
    31   108   106   ar
    32   108   110   ar
    33   106   107   ar
    34   110   111   ar
    35    63    64    1
    36    66    65    2
    37    64    65    1
    38    64    67    1
    39    62    59    1
    40    69    71   ar
    41    69    68   ar
    42    59    60    1
    43    59    58    1
    44    60    61    2
    45   107   109   ar
    46    71    73   ar
    47    52    51    2
    48   111   109   ar
    49   111   112    1
    50    67    68    1
    51    68    70   ar
    52    58    51   am
    53    73    74    1
    54    73    72   ar
    55    51    50    1
    56    70    72   ar
    57    32    30   ar
    58    32    31   ar
    59    30    28   ar
    60    12    14   ar
    61    12    10   ar
    62    50    53    1
    63    50    49    1
    64    14    13   ar
    65    31    29   ar
    66    20    19    1
    67    20    21    1
    68    47    46    1
    69    19    16    1
    70    53    54    1
    71    10     9   ar
    72    10     8   ar
    73    28    27   ar
    74     9     7   ar
    75    48    46    1
    76    13    11   ar
    77    46    43    1
    78    29    27   ar
    79    21    15    1
    80    54    55    1
    81    27    26    1
    82    16    15    1
    83    16    17    1
    84     8    11   ar
    85     8     6   ar
    86     7     6   ar
    87    15     3   am
    88    18    17    2
    89    17    22   am
    90    56    55   ar
    91    55    57   ar
    92    43    44    1
    93    43    42    1
    94     6     5    1
    95    44    45    2
    96    26    23    1
    97    22    23    1
    98    23    24    1
    99     3     4    2
   100     3     2    1
   101     1     2    1
   102     5     2    1
   103    24    25    2
   104    36    35    2
   105    35    34    1
   106    33    34    1
   107    34    37    1
   108    37    38    1
   109    40    39   ar
   110    38    39    1
   111    39    41   ar
