@<TRIPOS>MOLECULE
tmp/5mkyA00.pdb
 120 120 0 0 0
SMALL
GASTEIGER

@<TRIPOS>ATOM
      1  N          2.4230   15.7540    0.8850 N.3    22  GLY22      -0.1210
      2  CA         2.7560   14.3990    1.3540 C.3    22  GLY22       0.1956
      3  C          2.4860   14.1990    2.8390 C.2    22  GLY22       0.2612
      4  O          3.1110   13.3430    3.4900 O.2    22  GLY22      -0.2717
      5  N          1.5250   14.9420    3.3840 N.am   23  PHE23      -0.1962
      6  CA         1.1310   14.7630    4.7770 C.3    23  PHE23       0.1771
      7  C          0.6850   13.2980    5.0680 C.2    23  PHE23       0.2619
      8  O          0.8590   12.8080    6.1690 O.2    23  PHE23      -0.2715
      9  CB        -0.0280   15.6770    5.1460 C.3    23  PHE23       0.0574
     10  CG         0.2620   17.1580    5.0430 C.ar   23  PHE23      -0.0200
     11  CD1        1.4770   17.7040    5.4060 C.ar   23  PHE23      -0.0042
     12  CD2       -0.7590   18.0160    4.6280 C.ar   23  PHE23      -0.0042
     13  CE1        1.6770   19.0760    5.3300 C.ar   23  PHE23      -0.0003
     14  CE2       -0.5750   19.3780    4.5570 C.ar   23  PHE23      -0.0003
     15  CZ         0.6540   19.9150    4.9000 C.ar   23  PHE23      -0.0000
     16  N          0.1030   12.6400    4.0620 N.am   24  PHE24      -0.1974
     17  CA        -0.3660   11.2690    4.1780 C.3    24  PHE24       0.1639
     18  C          0.5640   10.2430    3.5400 C.2    24  PHE24       0.2290
     19  O          0.2240    9.0560    3.4530 O.2    24  PHE24      -0.2864
     20  CB        -1.7810   11.1680    3.5700 C.3    24  PHE24       0.0560
     21  CG        -2.7920   12.0020    4.3070 C.ar   24  PHE24      -0.0200
     22  CD1       -3.1770   11.6570    5.6070 C.ar   24  PHE24      -0.0042
     23  CD2       -3.3410   13.1400    3.7250 C.ar   24  PHE24      -0.0042
     24  CE1       -4.0890   12.4280    6.3020 C.ar   24  PHE24      -0.0003
     25  CE2       -4.2480   13.9190    4.4170 C.ar   24  PHE24      -0.0003
     26  CZ        -4.6140   13.5710    5.7130 C.ar   24  PHE24      -0.0000
     27  N          3.4610    8.9680    4.5650 N.3    26  PHE26      -0.1228
     28  CA         4.2010    8.0800    5.4530 C.3    26  PHE26       0.1721
     29  C          3.5390    8.0650    6.8170 C.2    26  PHE26       0.2437
     30  O          2.7710    8.9800    7.1520 O.2    26  PHE26      -0.2733
     31  CB         5.6480    8.5510    5.5870 C.3    26  PHE26       0.0547
     32  CG         6.4010    8.6170    4.2730 C.ar   26  PHE26      -0.0202
     33  CD1        6.7890    7.4480    3.6210 C.ar   26  PHE26      -0.0042
     34  CD2        6.7090    9.8400    3.6950 C.ar   26  PHE26      -0.0042
     35  CE1        7.4690    7.5000    2.4120 C.ar   26  PHE26      -0.0003
     36  CE2        7.3890    9.8990    2.4900 C.ar   26  PHE26      -0.0003
     37  CZ         7.7610    8.7240    1.8420 C.ar   26  PHE26      -0.0000
     38  N          3.8550    7.0550    7.6330 N.am   27  PRO27      -0.2718
     39  CA         3.1760    6.9820    8.9410 C.3    27  PRO27       0.1535
     40  C          3.4070    8.1740    9.8540 C.2    27  PRO27       0.2598
     41  O          4.5190    8.7040    9.9210 O.2    27  PRO27      -0.2715
     42  CB         3.7540    5.7090    9.5820 C.3    27  PRO27       0.0310
     43  CG         4.2350    4.8820    8.4330 C.3    27  PRO27       0.0237
     44  CD         4.6760    5.8580    7.3610 C.3    27  PRO27       0.0939
     45  N          2.3650    8.5760   10.5790 N.am   28  VAL28      -0.1964
     46  CA         2.4920    9.6390   11.5910 C.3    28  VAL28       0.1727
     47  C          3.2620    9.1270   12.8180 C.2    28  VAL28       0.2616
     48  O          2.9230    8.0920   13.3840 O.2    28  VAL28      -0.2715
     49  CB         1.1080   10.2010   12.0220 C.3    28  VAL28       0.0290
     50  CG1        1.2690   11.3410   13.0310 C.3    28  VAL28       0.0023
     51  CG2        0.3170   10.6700   10.7990 C.3    28  VAL28       0.0023
     52  N          4.3050    9.8460   13.2270 N.am   29  THR29      -0.1951
     53  CA         5.0270    9.4750   14.4540 C.3    29  THR29       0.1897
     54  C          4.5110   10.2290   15.6720 C.2    29  THR29       0.2313
     55  O          4.0330   11.3540   15.5550 O.2    29  THR29      -0.2863
     56  CB         6.5300    9.7900   14.3410 C.3    29  THR29       0.1794
     57  OG1        6.6860   11.1990   14.1260 O.3    29  THR29      -0.2208
     58  CG2        7.1450    8.9940   13.1800 C.3    29  THR29       0.0378
     59  N          6.0290   13.7750   15.9750 N.3    32  ILE32      -0.1231
     60  CA         5.3790   14.8930   15.2800 C.3    32  ILE32       0.1692
     61  C          3.9740   15.1330   15.8390 C.2    32  ILE32       0.2591
     62  O          3.4580   16.2430   15.7750 O.2    32  ILE32      -0.2718
     63  CB         5.2540   14.6530   13.7560 C.3    32  ILE32       0.0266
     64  CG1        6.6110   14.3260   13.1280 C.3    32  ILE32       0.0019
     65  CG2        4.6930   15.8950   13.0650 C.3    32  ILE32       0.0020
     66  CD1        6.4980   13.7810   11.7220 C.3    32  ILE32       0.0001
     67  N          3.3650   14.0810   16.3670 N.am   33  ALA33      -0.1980
     68  CA         1.9750   14.1260   16.8420 C.3    33  ALA33       0.1597
     69  C          1.8840   13.4540   18.1970 C.2    33  ALA33       0.2287
     70  O          1.6470   12.2580   18.2900 O.2    33  ALA33      -0.2864
     71  CB         1.0550   13.4320   15.8450 C.3    33  ALA33       0.0319
     72  N         -0.1710   10.1580   19.4570 N.3    36  TYR36      -0.1241
     73  CA        -0.9110    9.6780   18.2860 C.3    36  TYR36       0.1605
     74  C         -1.2140    8.1710   18.3840 C.2    36  TYR36       0.2264
     75  O         -2.3540    7.7270   18.1680 O.2    36  TYR36      -0.2867
     76  CB        -0.1400   10.0050   17.0060 C.3    36  TYR36       0.0534
     77  CG        -0.9450    9.7740   15.7440 C.ar   36  TYR36      -0.0201
     78  CD1       -1.7550   10.7910   15.2100 C.ar   36  TYR36      -0.0009
     79  CD2       -0.8970    8.5580   15.0940 C.ar   36  TYR36      -0.0009
     80  CE1       -2.4980   10.5860   14.0470 C.ar   36  TYR36       0.0417
     81  CE2       -1.6360    8.3360   13.9420 C.ar   36  TYR36       0.0417
     82  CZ        -2.4210    9.3560   13.4150 C.ar   36  TYR36       0.1957
     83  OH        -3.1670    9.1260   12.2900 O.3    36  TYR36      -0.2866
     84  N         -7.1630   10.9120   10.6460 N.3    75  ALA75      -0.1245
     85  CA        -6.8390   12.3510   10.6450 C.3    75  ALA75       0.1562
     86  C         -7.9870   13.1700   11.2410 C.2    75  ALA75       0.2260
     87  O         -7.7640   14.1650   11.9330 O.2    75  ALA75      -0.2867
     88  CB        -6.5140   12.8460    9.2360 C.3    75  ALA75       0.0290
     89  N         -7.8090   12.4070   15.3570 N.3    78  TYR78      -0.1227
     90  CA        -6.7450   12.9760   16.1690 C.3    78  TYR78       0.1736
     91  C         -6.7330   14.4930   16.1390 C.2    78  TYR78       0.2595
     92  O         -6.5330   15.1350   17.1670 O.2    78  TYR78      -0.2718
     93  CB        -5.3790   12.4370   15.7310 C.3    78  TYR78       0.0548
     94  CG        -4.2090   13.0080   16.4960 C.ar   78  TYR78      -0.0200
     95  CD1       -3.7540   12.4080   17.6650 C.ar   78  TYR78      -0.0009
     96  CD2       -3.5590   14.1510   16.0390 C.ar   78  TYR78      -0.0009
     97  CE1       -2.6770   12.9390   18.3700 C.ar   78  TYR78       0.0417
     98  CE2       -2.4890   14.6800   16.7210 C.ar   78  TYR78       0.0417
     99  CZ        -2.0470   14.0840   17.8830 C.ar   78  TYR78       0.1957
    100  OH        -0.9730   14.6440   18.5420 O.3    78  TYR78      -0.2866
    101  N         -6.9400   15.0440   14.9530 N.am   79  ASN79      -0.1974
    102  CA        -6.9530   16.4760   14.7220 C.3    79  ASN79       0.1688
    103  C         -8.3420   17.0550   14.9280 C.2    79  ASN79       0.2292
    104  O         -9.3560   16.3650   14.7730 O.2    79  ASN79      -0.2864
    105  CB        -6.4580   16.7920   13.3140 C.3    79  ASN79       0.1181
    106  CG        -5.1000   16.1770   13.0330 C.2    79  ASN79       0.2629
    107  OD1       -4.0870   16.6250   13.5720 O.2    79  ASN79      -0.2716
    108  ND2       -5.0780   15.1380   12.2230 N.am   79  ASN79      -0.0877
    109  N         -4.8530   19.2180    8.5350 N.3    85  TYR85      -0.1241
    110  CA        -4.9410   17.7660    8.2770 C.3    85  TYR85       0.1605
    111  C         -6.3860   17.2460    8.2510 C.2    85  TYR85       0.2264
    112  O         -6.7220   16.4060    7.4300 O.2    85  TYR85      -0.2867
    113  CB        -4.1310   16.9510    9.2840 C.3    85  TYR85       0.0534
    114  CG        -2.7040   17.4140    9.4300 C.ar   85  TYR85      -0.0201
    115  CD1       -1.9440   17.7450    8.3080 C.ar   85  TYR85      -0.0009
    116  CD2       -2.1300   17.5330   10.6860 C.ar   85  TYR85      -0.0009
    117  CE1       -0.6380   18.1960    8.4330 C.ar   85  TYR85       0.0417
    118  CE2       -0.8360   17.9850   10.8300 C.ar   85  TYR85       0.0417
    119  CZ        -0.0900   18.3110    9.7060 C.ar   85  TYR85       0.1957
    120  OH         1.2180   18.7540    9.8680 O.3    85  TYR85      -0.2866
@<TRIPOS>BOND
     1     1     2    1
     2     2     3    1
     3    37    35   ar
     4    37    36   ar
     5    35    33   ar
     6    36    34   ar
     7     3     5   am
     8     3     4    2
     9     5     6    1
    10    19    18    2
    11    18    17    1
    12    20    17    1
    13    20    21    1
    14    33    32   ar
    15    34    32   ar
    16    23    21   ar
    17    23    25   ar
    18    16    17    1
    19    16     7   am
    20    32    31    1
    21    21    22   ar
    22    25    26   ar
    23    14    12   ar
    24    14    15   ar
    25    27    28    1
    26    12    10   ar
    27     6     7    1
    28     6     9    1
    29    15    13   ar
    30    10     9    1
    31    10    11   ar
    32     7     8    2
    33    13    11   ar
    34    28    31    1
    35    28    29    1
    36    22    24   ar
    37    26    24   ar
    38    29    30    2
    39    29    38   am
    40    44    38    1
    41    44    43    1
    42   112   111    2
    43    38    39    1
    44   111   110    1
    45   110   109    1
    46   110   113    1
    47   115   117   ar
    48   115   114   ar
    49    43    42    1
    50   117   119   ar
    51    39    42    1
    52    39    40    1
    53    88    85    1
    54   113   114    1
    55   114   116   ar
    56   119   120    1
    57   119   118   ar
    58    40    41    2
    59    40    45   am
    60    45    46    1
    61    85    84    1
    62    85    86    1
    63   116   118   ar
    64    51    49    1
    65    86    87    2
    66    46    49    1
    67    46    47    1
    68    66    64    1
    69    49    50    1
    70   108   106   am
    71    83    82    1
    72    47    52   am
    73    47    48    2
    74   106   105    1
    75   106   107    2
    76    65    63    1
    77    64    63    1
    78    58    56    1
    79    52    53    1
    80   105   102    1
    81    82    81   ar
    82    82    80   ar
    83    63    60    1
    84    81    79   ar
    85    80    78   ar
    86    57    56    1
    87    56    53    1
    88    53    54    1
    89   102   103    1
    90   102   101    1
    91   104   103    2
    92   101    91   am
    93    79    77   ar
    94    78    77   ar
    95    60    61    1
    96    60    59    1
    97    89    90    1
    98    55    54    2
    99    93    90    1
   100    93    94    1
   101    77    76    1
   102    62    61    2
   103    61    67   am
   104    71    68    1
   105    96    94   ar
   106    96    98   ar
   107    91    90    1
   108    91    92    2
   109    67    68    1
   110    94    95   ar
   111    98    99   ar
   112    68    69    1
   113    76    73    1
   114    95    97   ar
   115    99    97   ar
   116    99   100    1
   117    75    74    2
   118    69    70    2
   119    73    74    1
   120    73    72    1
