@<TRIPOS>MOLECULE
tmp/5mkzA00.pdb
 125 121 0 0 0
SMALL
GASTEIGER

@<TRIPOS>ATOM
      1  N         33.6940   44.5410    1.1650 N.3    40  TRP40      -0.1228
      2  CA        33.8810   45.9060    1.6890 C.3    40  TRP40       0.1722
      3  C         32.6160   46.7640    1.8980 C.2    40  TRP40       0.2437
      4  O         32.5370   47.4540    2.9030 O.2    40  TRP40      -0.2733
      5  CB        34.9750   46.6680    0.8890 C.3    40  TRP40       0.0563
      6  CG        34.7000   46.7970   -0.5770 C.ar   40  TRP40       0.0003
      7  CD1       34.9760   45.8790   -1.5690 C.ar   40  TRP40       0.0946
      8  CD2       34.0690   47.8980   -1.2250 C.ar   40  TRP40       0.0152
      9  NE1       34.5500   46.3530   -2.7790 N.ar   40  TRP40      -0.2442
     10  CE2       33.9890   47.5880   -2.5960 C.ar   40  TRP40       0.0810
     11  CE3       33.5580   49.1260   -0.7730 C.ar   40  TRP40       0.0012
     12  CZ2       33.4240   48.4600   -3.5230 C.ar   40  TRP40       0.0191
     13  CZ3       33.0070   49.9800   -1.6850 C.ar   40  TRP40       0.0001
     14  CH2       32.9380   49.6490   -3.0470 C.ar   40  TRP40       0.0015
     15  N         31.6190   46.7120    0.9890 N.am   41  PRO41      -0.2718
     16  CA        30.4310   47.5490    1.2570 C.3    41  PRO41       0.1535
     17  C         29.6290   47.1040    2.4750 C.2    41  PRO41       0.2598
     18  O         28.8210   47.8830    3.0020 O.2    41  PRO41      -0.2715
     19  CB        29.5930   47.3890   -0.0080 C.3    41  PRO41       0.0310
     20  CG        30.5470   46.9120   -1.0540 C.3    41  PRO41       0.0237
     21  CD        31.4650   45.9960   -0.2890 C.3    41  PRO41       0.0939
     22  N         29.8360   45.8540    2.8780 N.am   42  PHE42      -0.1974
     23  CA        29.1090   45.2240    3.9700 C.3    42  PHE42       0.1639
     24  C         29.8790   45.1680    5.2860 C.2    42  PHE42       0.2290
     25  O         29.3720   44.6080    6.2560 O.2    42  PHE42      -0.2864
     26  CB        28.7060   43.8050    3.5340 C.3    42  PHE42       0.0560
     27  CG        27.9050   43.7790    2.2550 C.ar   42  PHE42      -0.0200
     28  CD1       26.5310   43.9710    2.2770 C.ar   42  PHE42      -0.0042
     29  CD2       28.5220   43.5890    1.0310 C.ar   42  PHE42      -0.0042
     30  CE1       25.7850   43.9630    1.0980 C.ar   42  PHE42      -0.0003
     31  CE2       27.7820   43.5960   -0.1500 C.ar   42  PHE42      -0.0003
     32  CZ        26.4120   43.7660   -0.1130 C.ar   42  PHE42      -0.0000
     33  N         25.6480   50.9030    6.6200 N.3    46  VAL46      -0.1245
     34  CA        25.4620   51.7740    5.4670 C.3    46  VAL46       0.1561
     35  C         25.4920   53.2280    5.9190 C.2    46  VAL46       0.2260
     36  O         24.6760   53.6590    6.7400 O.2    46  VAL46      -0.2867
     37  CB        24.1540   51.4690    4.7230 C.3    46  VAL46       0.0252
     38  CG1       23.8610   52.5560    3.6880 C.3    46  VAL46       0.0019
     39  CG2       24.2490   50.1130    4.0400 C.3    46  VAL46       0.0019
     40  N         27.2620   58.1980    1.2900 N.3    51  LEU51      -0.1245
     41  CA        26.8430   57.5350    0.0690 C.3    51  LEU51       0.1561
     42  C         25.6530   58.2140   -0.6150 C.2    51  LEU51       0.2260
     43  O         25.1830   57.7260   -1.6320 O.2    51  LEU51      -0.2867
     44  CB        26.5250   56.0610    0.3660 C.3    51  LEU51       0.0270
     45  CG        27.7230   55.2310    0.8600 C.3    51  LEU51       0.0019
     46  CD1       27.2500   53.8930    1.4110 C.3    51  LEU51       0.0001
     47  CD2       28.7580   55.0450   -0.2420 C.3    51  LEU51       0.0001
     48  N         22.3890   58.4820    0.1250 N.3    53  LEU53      -0.1245
     49  CA        21.2450   57.5850    0.0670 C.3    53  LEU53       0.1561
     50  C         20.2230   58.0710    1.0870 C.2    53  LEU53       0.2260
     51  O         19.9500   57.4130    2.0790 O.2    53  LEU53      -0.2867
     52  CB        21.6790   56.1690    0.4020 C.3    53  LEU53       0.0270
     53  CG        22.8070   55.5410   -0.4400 C.3    53  LEU53       0.0019
     54  CD1       23.1660   54.1570    0.1390 C.3    53  LEU53       0.0001
     55  CD2       22.4450   55.4560   -1.8910 C.3    53  LEU53       0.0001
     56  N         17.5330   55.6960    2.3880 N.3    56  TYR56      -0.1241
     57  CA        17.9190   54.3390    2.8270 C.3    56  TYR56       0.1605
     58  C         17.2050   53.9030    4.1140 C.2    56  TYR56       0.2264
     59  O         16.5810   52.8300    4.1630 O.2    56  TYR56      -0.2867
     60  CB        19.4460   54.1850    2.9810 C.3    56  TYR56       0.0534
     61  CG        19.8260   52.7570    3.2410 C.ar   56  TYR56      -0.0201
     62  CD1       19.9710   51.8490    2.1970 C.ar   56  TYR56      -0.0009
     63  CD2       19.9800   52.2910    4.5440 C.ar   56  TYR56      -0.0009
     64  CE1       20.2840   50.5250    2.4450 C.ar   56  TYR56       0.0417
     65  CE2       20.2850   50.9700    4.8010 C.ar   56  TYR56       0.0417
     66  CZ        20.4480   50.0930    3.7460 C.ar   56  TYR56       0.1957
     67  OH        20.7300   48.7740    4.0010 O.3    56  TYR56      -0.2866
     68  N         20.8230   41.3180    6.6110 N.3    91  MET91      -0.1245
     69  CA        21.7670   42.0760    5.7850 C.3    91  MET91       0.1570
     70  C         21.5330   41.8420    4.2990 C.2    91  MET91       0.2261
     71  O         21.4580   42.7950    3.5260 O.2    91  MET91      -0.2867
     72  CB        23.1980   41.7030    6.1420 C.3    91  MET91       0.0387
     73  CG        24.2490   42.4290    5.3210 C.3    91  MET91       0.0595
     74  SD        25.9090   41.9150    5.7600 S.3    91  MET91      -0.1393
     75  CE        26.0220   40.3990    4.8080 C.3    91  MET91       0.0692
     76  N         19.6250   44.5320    1.3190 N.3    95  CYS95      -0.1235
     77  CA        20.3060   44.9050    0.0890 C.3    95  CYS95       0.1677
     78  C         19.3920   44.6640   -1.1030 C.2    95  CYS95       0.2270
     79  O         19.2670   45.5220   -1.9910 O.2    95  CYS95      -0.2867
     80  CB        21.6060   44.1210   -0.0440 C.3    95  CYS95       0.0956
     81  SG        22.6130   44.6020   -1.4500 S.3    95  CYS95      -0.0801
     82  N         16.3500   47.2500   -0.9840 N.3    98  TYR98      -0.1227
     83  CA        16.6440   48.6470   -1.3000 C.3    98  TYR98       0.1736
     84  C         17.0310   48.8360   -2.7630 C.2    98  TYR98       0.2595
     85  O         16.6500   49.8220   -3.3800 O.2    98  TYR98      -0.2718
     86  CB        17.7510   49.1970   -0.3990 C.3    98  TYR98       0.0548
     87  CG        18.0340   50.6500   -0.6930 C.ar   98  TYR98      -0.0200
     88  CD1       17.1460   51.6390   -0.2890 C.ar   98  TYR98      -0.0009
     89  CD2       19.1570   51.0320   -1.4070 C.ar   98  TYR98      -0.0009
     90  CE1       17.3810   52.9700   -0.5920 C.ar   98  TYR98       0.0417
     91  CE2       19.4080   52.3580   -1.6910 C.ar   98  TYR98       0.0417
     92  CZ        18.5270   53.3220   -1.2810 C.ar   98  TYR98       0.1957
     93  OH        18.7880   54.6440   -1.5770 O.3    98  TYR98      -0.2866
     94  N         17.7830   47.8900   -3.3080 N.am   99  ASN99      -0.1974
     95  CA        18.3970   48.0390   -4.6250 C.3    99  ASN99       0.1688
     96  C         17.5990   47.3430   -5.7180 C.2    99  ASN99       0.2292
     97  O         16.4700   46.9410   -5.4730 O.2    99  ASN99      -0.2864
     98  CB        19.8350   47.5390   -4.5200 C.3    99  ASN99       0.1181
     99  CG        20.6510   48.3890   -3.5670 C.2    99  ASN99       0.2629
    100  OD1       20.9720   49.5320   -3.8920 O.2    99  ASN99      -0.2716
    101  ND2       20.9560   47.8640   -2.3810 N.am   99  ASN99      -0.0877
    102  N         25.4270   46.4420   -9.0310 N.3   104  ASP104     -0.1225
    103  CA        26.6740   45.9030   -8.5010 C.3   104  ASP104      0.1805
    104  C         26.5280   45.4000   -7.0740 C.2   104  ASP104      0.2597
    105  O         26.9550   44.2870   -6.7630 O.2   104  ASP104     -0.2718
    106  CB        27.7900   46.9520   -8.5420 C.3   104  ASP104      0.1424
    107  CG        28.3760   47.1230   -9.9240 C.2   104  ASP104      0.3668
    108  OD1       28.2220   46.2080  -10.7740 O.co2 104  ASP104     -0.2456
    109  OD2       28.9830   48.1960  -10.1480 O.co2 104  ASP104     -0.2456
    110  N         25.9240   46.2090   -6.2130 N.am  105  ILE105     -0.1980
    111  CA        25.8020   45.8560   -4.8010 C.3   105  ILE105      0.1595
    112  C         24.9930   44.5570   -4.6170 C.2   105  ILE105      0.2287
    113  O         25.2700   43.7520   -3.7320 O.2   105  ILE105     -0.2864
    114  CB        25.2010   47.0310   -3.9890 C.3   105  ILE105      0.0276
    115  CG1       25.3990   46.8080   -2.4830 C.3   105  ILE105      0.0022
    116  CG2       23.7230   47.2360   -4.3290 C.3   105  ILE105      0.0022
    117  CD1       26.8290   46.8940   -1.9740 C.3   105  ILE105      0.0001
    118  N         27.1530   41.6460   -5.5680 N.3   108  MET108     -0.1245
    119  CA        28.0800   41.4450   -4.4570 C.3   108  MET108      0.1570
    120  C         27.4060   40.6690   -3.3430 C.2   108  MET108      0.2261
    121  O         27.9290   39.6760   -2.8680 O.2   108  MET108     -0.2867
    122  CB        28.5970   42.7960   -3.9630 C.3   108  MET108      0.0387
    123  CG        29.4520   43.4730   -5.0150 C.3   108  MET108      0.0595
    124  SD        29.8100   45.2060   -4.6690 S.3   108  MET108     -0.1393
    125  CE        31.4320   45.0480   -3.9570 C.3   108  MET108      0.0692
@<TRIPOS>BOND
     1   108   107   ar
     2   109   107   ar
     3   107   106    1
     4   102   103    1
     5   106   103    1
     6   103   104    1
     7   104   105    2
     8   104   110   am
     9   110   111    1
    10    96    97    2
    11    96    95    1
    12   118   119    1
    13   123   124    1
    14   123   122    1
    15   111   112    1
    16   111   114    1
    17   124   125    1
    18    95    98    1
    19    95    94    1
    20   112   113    2
    21    98    99    1
    22   119   122    1
    23   119   120    1
    24   116   114    1
    25   114   115    1
    26   100    99    2
    27    99   101   am
    28    12    14   ar
    29    12    10   ar
    30    85    84    2
    31   120   121    2
    32    94    84   am
    33    14    13   ar
    34     9    10   ar
    35     9     7   ar
    36    84    83    1
    37    10     8   ar
    38   115   117    1
    39    79    78    2
    40    55    53    1
    41    91    89   ar
    42    91    92   ar
    43    13    11   ar
    44    43    42    2
    45    93    92    1
    46     7     6   ar
    47    81    80    1
    48    89    87   ar
    49    83    82    1
    50    83    86    1
    51    92    90   ar
    52     8    11   ar
    53     8     6   ar
    54    78    77    1
    55    20    21    1
    56    20    19    1
    57    87    86    1
    58    87    88   ar
    59    42    41    1
    60    90    88   ar
    61     6     5    1
    62    53    54    1
    63    53    52    1
    64    21    15    1
    65    47    45    1
    66    31    32   ar
    67    31    29   ar
    68    32    30   ar
    69    80    77    1
    70    19    16    1
    71    49    48    1
    72    49    52    1
    73    49    50    1
    74    41    44    1
    75    41    40    1
    76    77    76    1
    77    44    45    1
    78    45    46    1
    79     5     2    1
    80    15    16    1
    81    15     3   am
    82    29    27   ar
    83    50    51    2
    84    30    28   ar
    85     1     2    1
    86    16    17    1
    87     2     3    1
    88     3     4    2
    89    62    64   ar
    90    62    61   ar
    91    27    28   ar
    92    27    26    1
    93    56    57    1
    94    64    66   ar
    95    17    22   am
    96    17    18    2
    97    57    60    1
    98    57    58    1
    99    22    23    1
   100    60    61    1
   101    61    63   ar
   102    71    70    2
   103    26    23    1
   104    38    37    1
   105    66    67    1
   106    66    65   ar
   107    23    24    1
   108    39    37    1
   109    58    59    2
   110    70    69    1
   111    63    65   ar
   112    37    34    1
   113    75    74    1
   114    24    25    2
   115    73    74    1
   116    73    72    1
   117    34    35    1
   118    34    33    1
   119    69    72    1
   120    69    68    1
   121    35    36    2
