@<TRIPOS>MOLECULE
tmp/5ml0A00.pdb
 128 129 0 0 0
SMALL
GASTEIGER

@<TRIPOS>ATOM
      1  N        -12.1280   22.5880    4.6590 N.3    22  TRP22      -0.1228
      2  CA       -12.7200   22.5650    6.0030 C.3    22  TRP22       0.1722
      3  C        -12.9490   21.1770    6.6170 C.2    22  TRP22       0.2437
      4  O        -12.7890   21.0230    7.8290 O.2    22  TRP22      -0.2733
      5  CB       -13.9950   23.4320    6.0710 C.3    22  TRP22       0.0563
      6  CG       -15.1540   22.9000    5.3330 C.ar   22  TRP22       0.0003
      7  CD1      -15.5390   23.2220    4.0660 C.ar   22  TRP22       0.0946
      8  CD2      -16.0990   21.9430    5.8070 C.ar   22  TRP22       0.0152
      9  NE1      -16.6530   22.5220    3.7140 N.ar   22  TRP22      -0.2442
     10  CE2      -17.0230   21.7210    4.7610 C.ar   22  TRP22       0.0810
     11  CE3      -16.2420   21.2310    6.9990 C.ar   22  TRP22       0.0012
     12  CZ2      -18.0870   20.8360    4.8830 C.ar   22  TRP22       0.0191
     13  CZ3      -17.3070   20.3520    7.1190 C.ar   22  TRP22       0.0001
     14  CH2      -18.2080   20.1560    6.0660 C.ar   22  TRP22       0.0015
     15  N        -13.2970   20.1510    5.8020 N.am   23  PRO23      -0.2718
     16  CA       -13.4540   18.8390    6.4420 C.3    23  PRO23       0.1535
     17  C        -12.1600   18.2250    6.9910 C.2    23  PRO23       0.2598
     18  O        -12.2340   17.2890    7.7790 O.2    23  PRO23      -0.2715
     19  CB       -13.9980   17.9500    5.3070 C.3    23  PRO23       0.0310
     20  CG       -14.5770   18.9040    4.3240 C.3    23  PRO23       0.0237
     21  CD       -13.6680   20.0910    4.3760 C.3    23  PRO23       0.0939
     22  N        -11.0020   18.7480    6.5820 N.am   24  PHE24      -0.1974
     23  CA        -9.7110   18.0940    6.8030 C.3    24  PHE24       0.1639
     24  C         -8.8030   18.8380    7.7700 C.2    24  PHE24       0.2290
     25  O         -7.6330   18.4820    7.9140 O.2    24  PHE24      -0.2864
     26  CB        -9.0020   17.9370    5.4540 C.3    24  PHE24       0.0560
     27  CG        -9.9060   17.4010    4.3800 C.ar   24  PHE24      -0.0200
     28  CD1      -10.3620   16.0950    4.4520 C.ar   24  PHE24      -0.0042
     29  CD2      -10.3570   18.2130    3.3420 C.ar   24  PHE24      -0.0042
     30  CE1      -11.2190   15.5930    3.4990 C.ar   24  PHE24      -0.0003
     31  CE2      -11.2240   17.7160    2.3850 C.ar   24  PHE24      -0.0003
     32  CZ       -11.6600   16.3980    2.4660 C.ar   24  PHE24      -0.0000
     33  N         -8.9710   19.1600   11.0910 N.3    26  GLU26      -0.1231
     34  CA        -8.7190   18.4570   12.3440 C.3    26  GLU26       0.1684
     35  C         -8.8950   16.9580   12.1300 C.2    26  GLU26       0.2434
     36  O         -9.5810   16.5460   11.1870 O.2    26  GLU26      -0.2733
     37  CB        -9.6880   18.9370   13.4220 C.3    26  GLU26       0.0402
     38  CG        -9.6060   20.4270   13.6980 C.3    26  GLU26       0.1161
     39  CD       -10.4350   20.8320   14.8970 C.2    26  GLU26       0.3649
     40  OE1      -11.6340   20.4850   14.9300 O.co2  26  GLU26      -0.2457
     41  OE2       -9.8880   21.4960   15.8050 O.co2  26  GLU26      -0.2457
     42  N         -8.2800   16.1340   12.9970 N.am   27  PRO27      -0.2718
     43  CA        -8.4810   14.6980   12.8370 C.3    27  PRO27       0.1535
     44  C         -9.9390   14.2740   13.0290 C.2    27  PRO27       0.2598
     45  O        -10.6800   14.8710   13.8290 O.2    27  PRO27      -0.2715
     46  CB        -7.5760   14.0660   13.9090 C.3    27  PRO27       0.0310
     47  CG        -7.0620   15.1740   14.7420 C.3    27  PRO27       0.0237
     48  CD        -7.2670   16.4590   14.0140 C.3    27  PRO27       0.0939
     49  N        -10.3310   13.2460   12.2870 N.am   28  VAL28      -0.1964
     50  CA       -11.6690   12.6770   12.3890 C.3    28  VAL28       0.1727
     51  C        -11.8710   12.2290   13.8430 C.2    28  VAL28       0.2616
     52  O        -10.9680   11.6570   14.4500 O.2    28  VAL28      -0.2715
     53  CB       -11.8510   11.4840   11.4080 C.3    28  VAL28       0.0290
     54  CG1      -13.1820   10.7760   11.6400 C.3    28  VAL28       0.0023
     55  CG2      -11.7390   11.9390    9.9520 C.3    28  VAL28       0.0023
     56  N        -13.0380   12.5420   14.4020 N.am   29  LYS29      -0.1977
     57  CA       -13.4040   12.1390   15.7560 C.3    29  LYS29       0.1596
     58  C        -14.1300   10.8030   15.7110 C.2    29  LYS29       0.2287
     59  O        -14.9680   10.5780   14.8390 O.2    29  LYS29      -0.2864
     60  CB       -14.3070   13.1950   16.3980 C.3    29  LYS29       0.0298
     61  CG       -13.5980   14.5110   16.6770 C.3    29  LYS29       0.0038
     62  CD       -14.5550   15.6400   17.0230 C.3    29  LYS29       0.0206
     63  CE       -15.5190   15.2770   18.1440 C.3    29  LYS29       0.1093
     64  NZ       -16.4180   16.4180   18.4880 N.3    29  LYS29      -0.1314
     65  N        -17.8740   11.1500   15.7290 N.3    32  GLU32      -0.1231
     66  CA       -18.5290   11.5900   14.4990 C.3    32  GLU32       0.1699
     67  C        -18.5300   10.5240   13.3960 C.2    32  GLU32       0.2592
     68  O        -19.3440   10.5890   12.4800 O.2    32  GLU32      -0.2718
     69  CB       -17.9370   12.9210   13.9980 C.3    32  GLU32       0.0402
     70  CG       -16.6920   12.8010   13.1420 C.3    32  GLU32       0.1161
     71  CD       -16.0030   14.1400   12.9510 C.2    32  GLU32       0.3649
     72  OE1      -16.6750   15.1410   12.6140 O.co2  32  GLU32      -0.2457
     73  OE2      -14.7800   14.1890   13.1480 O.co2  32  GLU32      -0.2457
     74  N        -17.6410    9.5340   13.4890 N.am   33  ALA33      -0.1980
     75  CA       -17.5750    8.4690   12.4860 C.3    33  ALA33       0.1597
     76  C        -17.2830    7.1210   13.1520 C.2    33  ALA33       0.2287
     77  O        -16.1700    6.6020   13.0490 O.2    33  ALA33      -0.2864
     78  CB       -16.5150    8.7930   11.4380 C.3    33  ALA33       0.0319
     79  N        -14.3990    4.4350   12.1810 N.3    36  TYR36      -0.1241
     80  CA       -13.4250    5.0340   11.2620 C.3    36  TYR36       0.1605
     81  C        -12.0090    4.5370   11.5160 C.2    36  TYR36       0.2264
     82  O        -11.2830    4.2200   10.5760 O.2    36  TYR36      -0.2867
     83  CB       -13.4440    6.5660   11.3750 C.3    36  TYR36       0.0534
     84  CG       -12.5860    7.2700   10.3420 C.ar   36  TYR36      -0.0201
     85  CD1      -13.0970    7.5820    9.0880 C.ar   36  TYR36      -0.0009
     86  CD2      -11.2700    7.6340   10.6190 C.ar   36  TYR36      -0.0009
     87  CE1      -12.3290    8.2220    8.1330 C.ar   36  TYR36       0.0417
     88  CE2      -10.4860    8.2760    9.6700 C.ar   36  TYR36       0.0417
     89  CZ       -11.0200    8.5700    8.4290 C.ar   36  TYR36       0.1957
     90  OH       -10.2550    9.2030    7.4830 O.3    36  TYR36      -0.2866
     91  N        -10.5840    9.8740    2.7040 N.3    75  CYS75      -0.1235
     92  CA       -11.9200   10.4490    2.6190 C.3    75  CYS75       0.1677
     93  C        -12.7370    9.7980    1.5090 C.2    75  CYS75       0.2270
     94  O        -13.9170    9.4730    1.7060 O.2    75  CYS75      -0.2867
     95  CB       -11.8220   11.9540    2.4010 C.3    75  CYS75       0.0956
     96  SG       -13.4040   12.8030    2.4630 S.3    75  CYS75      -0.0801
     97  N        -13.6270    6.0850    2.4430 N.3    78  TYR78      -0.1227
     98  CA       -14.5980    5.9280    3.5260 C.3    78  TYR78       0.1736
     99  C        -16.0090    6.4060    3.1800 C.2    78  TYR78       0.2595
    100  O        -16.9890    5.7400    3.5130 O.2    78  TYR78      -0.2718
    101  CB       -14.1160    6.6740    4.7680 C.3    78  TYR78       0.0548
    102  CG       -14.9620    6.4160    5.9830 C.ar   78  TYR78      -0.0200
    103  CD1      -16.0680    7.2150    6.2680 C.ar   78  TYR78      -0.0009
    104  CD2      -14.6730    5.3660    6.8440 C.ar   78  TYR78      -0.0009
    105  CE1      -16.8540    6.9790    7.3750 C.ar   78  TYR78       0.0417
    106  CE2      -15.4550    5.1220    7.9590 C.ar   78  TYR78       0.0417
    107  CZ       -16.5440    5.9300    8.2230 C.ar   78  TYR78       0.1957
    108  OH       -17.3250    5.6940    9.3370 O.3    78  TYR78      -0.2866
    109  N        -16.1070    7.5750    2.5550 N.am   79  ASN79      -0.1974
    110  CA       -17.3880    8.2570    2.3820 C.3    79  ASN79       0.1688
    111  C        -18.0830    7.9410    1.0640 C.2    79  ASN79       0.2292
    112  O        -17.4220    7.6530    0.0710 O.2    79  ASN79      -0.2864
    113  CB       -17.1950    9.7690    2.4650 C.3    79  ASN79       0.1181
    114  CG       -16.7370   10.2230    3.8350 C.2    79  ASN79       0.2629
    115  OD1      -17.5420   10.3440    4.7560 O.2    79  ASN79      -0.2716
    116  ND2      -15.4440   10.4950    3.9720 N.am   79  ASN79      -0.0877
    117  N        -18.2370   15.5660    2.1060 N.3    85  TYR85      -0.1241
    118  CA       -16.8290   15.2890    2.4120 C.3    85  TYR85       0.1605
    119  C        -16.0870   14.7500    1.1820 C.2    85  TYR85       0.2264
    120  O        -15.0120   15.2340    0.8360 O.2    85  TYR85      -0.2867
    121  CB       -16.6680   14.2960    3.5750 C.3    85  TYR85       0.0534
    122  CG       -17.1620   14.7570    4.9400 C.ar   85  TYR85      -0.0201
    123  CD1      -17.2630   16.1110    5.2680 C.ar   85  TYR85      -0.0009
    124  CD2      -17.5040   13.8230    5.9110 C.ar   85  TYR85      -0.0009
    125  CE1      -17.6960   16.5150    6.5230 C.ar   85  TYR85       0.0417
    126  CE2      -17.9420   14.2240    7.1700 C.ar   85  TYR85       0.0417
    127  CZ       -18.0380   15.5740    7.4600 C.ar   85  TYR85       0.1957
    128  OH       -18.4750   15.9930    8.7020 O.3    85  TYR85      -0.2866
@<TRIPOS>BOND
     1   112   111    2
     2   120   119    2
     3   111   110    1
     4   119   118    1
     5    93    94    2
     6    93    92    1
     7   117   118    1
     8   110   113    1
     9   110   109    1
    10    31    32   ar
    11    31    29   ar
    12    95    96    1
    13    95    92    1
    14   118   121    1
    15    97    98    1
    16   113   114    1
    17    32    30   ar
    18   109    99   am
    19    92    91    1
    20    99   100    2
    21    99    98    1
    22    29    27   ar
    23    30    28   ar
    24    98   101    1
    25   121   122    1
    26     9     7   ar
    27     9    10   ar
    28   114   116   am
    29   114   115    2
    30     7     6   ar
    31    20    21    1
    32    20    19    1
    33    21    15    1
    34    27    28   ar
    35    27    26    1
    36     1     2    1
    37    10    12   ar
    38    10     8   ar
    39   101   102    1
    40    12    14   ar
    41   122   123   ar
    42   122   124   ar
    43   123   125   ar
    44    19    16    1
    45     6     8   ar
    46     6     5    1
    47    26    23    1
    48    15    16    1
    49    15     3   am
    50     8    11   ar
    51   124   126   ar
    52   102   103   ar
    53   102   104   ar
    54     2     5    1
    55     2     3    1
    56    14    13   ar
    57   103   105   ar
    58    16    17    1
    59   125   127   ar
    60    22    23    1
    61    22    17   am
    62     3     4    2
    63    23    24    1
    64   104   106   ar
    65    17    18    2
    66    11    13   ar
    67   126   127   ar
    68   105   107   ar
    69   127   128    1
    70    90    89    1
    71    24    25    2
    72   106   107   ar
    73    87    89   ar
    74    87    85   ar
    75   107   108    1
    76    89    88   ar
    77    85    84   ar
    78    88    86   ar
    79    55    53    1
    80    84    86   ar
    81    84    83    1
    82    82    81    2
    83    33    34    1
    84    36    35    2
    85    80    83    1
    86    80    81    1
    87    80    79    1
    88    53    54    1
    89    53    50    1
    90    78    75    1
    91    35    34    1
    92    35    42   am
    93    49    50    1
    94    49    44   am
    95    34    37    1
    96    50    51    1
    97    68    67    2
    98    75    76    1
    99    75    74    1
   100    72    71   ar
   101    43    42    1
   102    43    44    1
   103    43    46    1
   104    71    70    1
   105    71    73   ar
   106    42    48    1
   107    44    45    2
   108    77    76    2
   109    70    69    1
   110    67    74   am
   111    67    66    1
   112    37    38    1
   113    38    39    1
   114    51    56   am
   115    51    52    2
   116    46    47    1
   117    69    66    1
   118    48    47    1
   119    56    57    1
   120    66    65    1
   121    59    58    2
   122    39    40   ar
   123    39    41   ar
   124    58    57    1
   125    57    60    1
   126    60    61    1
   127    61    62    1
   128    62    63    1
   129    63    64    1
