@<TRIPOS>MOLECULE
tmp/5ml5A00.pdb
 170 166 0 0 0
SMALL
GASTEIGER

@<TRIPOS>ATOM
      1  N         -1.7740   -2.3390   -9.3510 N.3   171  PRO171     -0.2102
      2  CA        -2.1850   -1.9220   -8.0270 C.3   171  PRO171      0.1504
      3  C         -1.7430   -2.8710   -6.9180 C.2   171  PRO171      0.2575
      4  O         -1.3990   -2.3760   -5.8550 O.2   171  PRO171     -0.2718
      5  CB        -3.7320   -1.8350   -8.1410 C.3   171  PRO171      0.0282
      6  CG        -4.0780   -2.7830   -9.2010 C.3   171  PRO171      0.0208
      7  CD        -2.9430   -2.5780  -10.2240 C.3   171  PRO171      0.0893
      8  N         -1.6990   -4.1770   -7.1700 N.am  172  GLU172     -0.1980
      9  CA        -1.2060   -5.0950   -6.1760 C.3   172  GLU172      0.1602
     10  C          0.2990   -4.9180   -5.8160 C.2   172  GLU172      0.2287
     11  O          0.6570   -5.1020   -4.6510 O.2   172  GLU172     -0.2864
     12  CB        -1.4090   -6.5280   -6.5840 C.3   172  GLU172      0.0415
     13  CG        -0.7510   -7.0070   -7.8480 C.3   172  GLU172      0.1163
     14  CD        -1.6000   -6.8640   -9.1410 C.2   172  GLU172      0.3649
     15  OE1       -1.4500   -7.6840  -10.0310 O.co2 172  GLU172     -0.2457
     16  OE2       -2.3530   -5.8940   -9.2860 O.co2 172  GLU172     -0.2457
     17  N          0.4450   -2.1780   -3.4140 N.3   175  LEU175     -0.1245
     18  CA        -0.0600   -2.5290   -2.1130 C.3   175  LEU175      0.1561
     19  C          0.8200   -3.5530   -1.4480 C.2   175  LEU175      0.2260
     20  O          0.4480   -4.0620   -0.4240 O.2   175  LEU175     -0.2867
     21  CB        -1.4780   -3.0350   -2.2520 C.3   175  LEU175      0.0270
     22  CG        -2.3640   -1.8270   -2.6300 C.3   175  LEU175      0.0019
     23  CD1       -3.7320   -2.2980   -3.0430 C.3   175  LEU175      0.0001
     24  CD2       -2.5010   -0.8420   -1.4760 C.3   175  LEU175      0.0001
     25  N          1.4000   -6.5300   -2.1590 N.3   177  TRP177     -0.1227
     26  CA         0.5380   -7.6830   -1.9870 C.3   177  TRP177      0.1737
     27  C          1.3210   -8.9670   -1.8730 C.2   177  TRP177      0.2595
     28  O          0.9100   -9.8620   -1.1510 O.2   177  TRP177     -0.2718
     29  CB        -0.4230   -7.7400   -3.1650 C.3   177  TRP177      0.0564
     30  CG        -1.6960   -8.5080   -2.9870 C.ar  177  TRP177      0.0003
     31  CD1       -1.8360   -9.8570   -2.8590 C.ar  177  TRP177      0.0946
     32  CD2       -3.0010   -7.9780   -3.0470 C.ar  177  TRP177      0.0152
     33  NE1       -3.1380  -10.1850   -2.7450 N.ar  177  TRP177     -0.2442
     34  CE2       -3.8870   -9.0550   -2.9250 C.ar  177  TRP177      0.0810
     35  CE3       -3.5140   -6.6910   -3.2090 C.ar  177  TRP177      0.0012
     36  CZ2       -5.2620   -8.8920   -2.9170 C.ar  177  TRP177      0.0191
     37  CZ3       -4.8850   -6.5260   -3.2110 C.ar  177  TRP177      0.0001
     38  CH2       -5.7420   -7.6340   -3.0590 C.ar  177  TRP177      0.0015
     39  N          2.4130   -9.0770   -2.6300 N.am  178  MET178     -0.1965
     40  CA         3.0980  -10.3580   -2.9060 C.3   178  MET178      0.1736
     41  C          2.2660  -11.3780   -3.6690 C.2   178  MET178      0.2616
     42  O          1.1150  -11.1380   -4.1680 O.2   178  MET178     -0.2715
     43  CB         3.6670  -11.0070   -1.6240 C.3   178  MET178      0.0427
     44  CG         4.3650  -10.0700   -0.6350 C.3   178  MET178      0.0599
     45  SD         5.7160   -9.1310   -1.3650 S.3   178  MET178     -0.1393
     46  CE         6.7160  -10.4210   -2.1200 C.3   178  MET178      0.0692
     47  N          2.8700  -12.5430   -3.8370 N.am  179  HIS179     -0.1959
     48  CA         2.2390  -13.5940   -4.5670 C.3   179  HIS179      0.1787
     49  C          1.8220  -13.0980   -5.9780 C.2   179  HIS179      0.2620
     50  O          0.7240  -13.4220   -6.4880 O.2   179  HIS179     -0.2715
     51  CB         1.0500  -14.0850   -3.7500 C.3   179  HIS179      0.0785
     52  CG         1.4490  -14.8480   -2.5320 C.ar  179  HIS179      0.0821
     53  ND1        1.2200  -14.3870   -1.2500 N.ar  179  HIS179     -0.2267
     54  CD2        2.0480  -16.0570   -2.4020 C.ar  179  HIS179      0.1154
     55  CE1        1.6600  -15.2850   -0.3800 C.ar  179  HIS179      0.1986
     56  NE2        2.1610  -16.3120   -1.0530 N.ar  179  HIS179     -0.2212
     57  N          2.7050  -12.3620   -6.6270 N.am  180  TYR180     -0.1960
     58  CA         2.3590  -11.6960   -7.9070 C.3   180  TYR180      0.1771
     59  C          2.0950  -12.6640   -9.0540 C.2   180  TYR180      0.2619
     60  O          2.7250  -13.7260   -9.1460 O.2   180  TYR180     -0.2715
     61  CB         3.4040  -10.6910   -8.3080 C.3   180  TYR180      0.0574
     62  CG         3.5470   -9.6450   -7.2730 C.ar  180  TYR180     -0.0198
     63  CD1        2.4640   -8.8900   -6.9040 C.ar  180  TYR180     -0.0009
     64  CD2        4.7840   -9.4690   -6.5800 C.ar  180  TYR180     -0.0009
     65  CE1        2.5660   -7.9430   -5.9220 C.ar  180  TYR180      0.0417
     66  CE2        4.9060   -8.5190   -5.6140 C.ar  180  TYR180      0.0417
     67  CZ         3.8040   -7.7670   -5.2550 C.ar  180  TYR180      0.1957
     68  OH         3.8680   -6.8110   -4.2580 O.3   180  TYR180     -0.2866
     69  N          1.0780  -12.3310   -9.8490 N.am  181  ASN181     -0.1972
     70  CA         0.8200  -13.0190  -11.1190 C.3   181  ASN181      0.1688
     71  C          1.6510  -12.3190  -12.2230 C.2   181  ASN181      0.2292
     72  O          2.0500  -11.1200  -12.1030 O.2   181  ASN181     -0.2864
     73  CB        -0.7050  -12.9950  -11.4300 C.3   181  ASN181      0.1181
     74  CG        -1.4940  -14.0050  -10.5940 C.2   181  ASN181      0.2629
     75  OD1       -2.6250  -13.7410  -10.0970 O.2   181  ASN181     -0.2716
     76  ND2       -0.9260  -15.1610  -10.4240 N.am  181  ASN181     -0.0877
     77  N         -3.8890    5.3020   -6.3000 N.3   212  LEU212     -0.1245
     78  CA        -4.8330    4.2290   -6.0430 C.3   212  LEU212      0.1561
     79  C         -6.2710    4.7110   -6.1710 C.2   212  LEU212      0.2260
     80  O         -7.1260    3.9990   -6.6410 O.2   212  LEU212     -0.2867
     81  CB        -4.5960    3.6270   -4.7040 C.3   212  LEU212      0.0270
     82  CG        -3.2900    2.8340   -4.6620 C.3   212  LEU212      0.0019
     83  CD1       -2.9210    2.6500   -3.2170 C.3   212  LEU212      0.0001
     84  CD2       -3.4650    1.4780   -5.3250 C.3   212  LEU212      0.0001
     85  N         -7.1140    5.0060   -9.8620 N.3   215  ILE215     -0.1231
     86  CA        -7.3980    3.6500  -10.3900 C.3   215  ILE215      0.1692
     87  C         -8.8230    3.1720  -10.0620 C.2   215  ILE215      0.2591
     88  O         -9.5410    2.7060  -10.9420 O.2   215  ILE215     -0.2718
     89  CB        -6.3680    2.6490   -9.8800 C.3   215  ILE215      0.0266
     90  CG1       -5.0400    2.9080  -10.5780 C.3   215  ILE215      0.0019
     91  CG2       -6.8730    1.2240  -10.0440 C.3   215  ILE215      0.0020
     92  CD1       -3.8720    2.1360   -9.9880 C.3   215  ILE215      0.0001
     93  N         -9.2280    3.3050   -8.7940 N.am  216  LEU216     -0.1980
     94  CA       -10.5570    2.8980   -8.3510 C.3   216  LEU216      0.1596
     95  C        -11.6810    3.7100   -9.0300 C.2   216  LEU216      0.2287
     96  O        -12.7330    3.1620   -9.3390 O.2   216  LEU216     -0.2864
     97  CB       -10.7340    3.0260   -6.8260 C.3   216  LEU216      0.0297
     98  CG        -9.9870    1.9340   -6.0830 C.3   216  LEU216      0.0022
     99  CD1       -9.8250    2.3390   -4.6330 C.3   216  LEU216      0.0001
    100  CD2      -10.7160    0.5870   -6.2190 C.3   216  LEU216      0.0001
    101  N        -14.0410   -2.9330   -6.0570 N.3   222  PRO222     -0.2116
    102  CA       -13.9690   -4.3560   -6.4100 C.3   222  PRO222      0.1372
    103  C        -15.3260   -5.0710   -6.3760 C.2   222  PRO222      0.2244
    104  O        -16.1190   -4.8080   -5.4980 O.2   222  PRO222     -0.2868
    105  CB       -13.0670   -4.8960   -5.3290 C.3   222  PRO222      0.0268
    106  CG       -12.0580   -3.7900   -5.1380 C.3   222  PRO222      0.0207
    107  CD       -12.8930   -2.5280   -5.2320 C.3   222  PRO222      0.0892
    108  N        -13.7720  -10.5220   -6.2340 N.3   226  LEU226     -0.1245
    109  CA       -12.5150   -9.9200   -5.7620 C.3   226  LEU226      0.1561
    110  C        -12.5230   -9.5980   -4.2400 C.2   226  LEU226      0.2260
    111  O        -11.5390   -9.8560   -3.5360 O.2   226  LEU226     -0.2867
    112  CB       -12.1840   -8.6650   -6.5760 C.3   226  LEU226      0.0270
    113  CG       -10.8320   -7.9850   -6.2400 C.3   226  LEU226      0.0019
    114  CD1       -9.6740   -8.9520   -6.2610 C.3   226  LEU226      0.0001
    115  CD2      -10.5590   -6.8370   -7.2350 C.3   226  LEU226      0.0001
    116  N        -11.3620  -12.3800   -1.9390 N.3   229  LYS229     -0.1231
    117  CA        -9.9050  -12.6020   -1.9400 C.3   229  LYS229      0.1693
    118  C         -9.1280  -11.6870   -1.0560 C.2   229  LYS229      0.2591
    119  O         -7.8910  -11.7540   -1.0530 O.2   229  LYS229     -0.2718
    120  CB        -9.3960  -12.4100   -3.3850 C.3   229  LYS229      0.0285
    121  CG       -10.0060  -13.3790   -4.3480 C.3   229  LYS229      0.0035
    122  CD        -9.6350  -13.0830   -5.8090 C.3   229  LYS229      0.0206
    123  CE        -9.8450  -14.3010   -6.6530 C.3   229  LYS229      0.1093
    124  NZ        -9.7020  -13.9470   -8.1020 N.3   229  LYS229     -0.1314
    125  N         -9.7990  -10.7480   -0.3780 N.am  230  ILE230     -0.1980
    126  CA        -9.1630   -9.8190    0.5930 C.3   230  ILE230      0.1595
    127  C         -9.5650  -10.1100    2.0400 C.2   230  ILE230      0.2287
    128  O        -10.7370   -9.9160    2.3810 O.2   230  ILE230     -0.2864
    129  CB        -9.5760   -8.3510    0.2700 C.3   230  ILE230      0.0276
    130  CG1       -9.2620   -8.0920   -1.2230 C.3   230  ILE230      0.0022
    131  CG2       -8.8660   -7.4210    1.2260 C.3   230  ILE230      0.0022
    132  CD1       -9.6230   -6.7360   -1.7420 C.3   230  ILE230      0.0001
    133  N        -11.4300    0.5420    1.3650 N.3   239  ILE239     -0.1245
    134  CA       -11.7080    0.5260   -0.0750 C.3   239  ILE239      0.1561
    135  C        -13.1230    1.0110   -0.3970 C.2   239  ILE239      0.2260
    136  O        -13.3270    1.7960   -1.3470 O.2   239  ILE239     -0.2867
    137  CB       -11.5490   -0.8780   -0.6780 C.3   239  ILE239      0.0252
    138  CG1      -10.0600   -1.3010   -0.6720 C.3   239  ILE239      0.0019
    139  CG2      -12.1610   -0.9470   -2.0900 C.3   239  ILE239      0.0019
    140  CD1       -9.8750   -2.7810   -0.9960 C.3   239  ILE239      0.0001
    141  N         -8.9840   -5.1160  -12.1600 N.3   265  LEU265     -0.1231
    142  CA        -8.3810   -5.0350  -10.8580 C.3   265  LEU265      0.1693
    143  C         -7.9010   -6.4170  -10.3920 C.2   265  LEU265      0.2592
    144  O         -6.7230   -6.6080   -9.9390 O.2   265  LEU265     -0.2718
    145  CB        -9.3800   -4.4520   -9.8900 C.3   265  LEU265      0.0284
    146  CG        -8.9940   -3.2700   -9.0810 C.3   265  LEU265      0.0019
    147  CD1       -8.2170   -2.2090   -9.8260 C.3   265  LEU265      0.0001
    148  CD2      -10.2900   -2.7660   -8.4260 C.3   265  LEU265      0.0001
    149  N         -8.7560   -7.4000  -10.5850 N.am  266  ASP266     -0.1960
    150  CA        -8.4100   -8.7700  -10.1750 C.3   266  ASP266      0.1840
    151  C         -7.3810   -9.3500  -11.1290 C.2   266  ASP266      0.2623
    152  O         -7.6880   -9.6610  -12.2810 O.2   266  ASP266     -0.2715
    153  CB        -9.6770   -9.6330  -10.1270 C.3   266  ASP266      0.1450
    154  CG        -9.4470  -11.0180   -9.5260 C.2   266  ASP266      0.3671
    155  OD1       -8.2890  -11.5060   -9.3720 O.co2 266  ASP266     -0.2456
    156  OD2      -10.5000  -11.5790   -9.1530 O.co2 266  ASP266     -0.2456
    157  N         -6.1640   -9.5670  -10.6330 N.am  267  SER267     -0.1936
    158  CA        -5.0960  -10.0760  -11.4810 C.3   267  SER267      0.2055
    159  C         -5.3910  -11.4130  -12.0500 C.2   267  SER267      0.2643
    160  O         -4.7960  -11.7500  -13.0870 O.2   267  SER267     -0.2714
    161  CB        -3.7600  -10.1130  -10.7670 C.3   267  SER267      0.2130
    162  OG        -3.5600  -11.1600   -9.8120 O.3   267  SER267     -0.2179
    163  N         -6.2080  -12.2210  -11.3460 N.am  268  ASP268     -0.1971
    164  CA        -6.5160  -13.5630  -11.8480 C.3   268  ASP268      0.1709
    165  C         -7.4410  -13.4910  -13.0500 C.2   268  ASP268      0.2293
    166  O         -7.6000  -14.4830  -13.7790 O.2   268  ASP268     -0.2864
    167  CB        -7.2150  -14.4500  -10.7990 C.3   268  ASP268      0.1436
    168  CG        -6.4290  -14.6170   -9.4830 C.2   268  ASP268      0.3671
    169  OD1       -7.0870  -14.5700   -8.4060 O.co2 268  ASP268     -0.2456
    170  OD2       -5.1980  -14.7800   -9.5110 O.co2 268  ASP268     -0.2456
@<TRIPOS>BOND
     1   166   165    2
     2   160   159    2
     3   165   164    1
     4   152   151    2
     5    71    72    2
     6    71    70    1
     7   141   142    1
     8   159   158    1
     9   159   163   am
    10   164   163    1
    11   164   167    1
    12   158   161    1
    13   158   157    1
    14    73    70    1
    15    73    74    1
    16   151   157   am
    17   151   150    1
    18    70    69    1
    19    88    87    2
    20   142   143    1
    21   142   145    1
    22   167   168    1
    23   161   162    1
    24    74    76   am
    25    74    75    2
    26   149   143   am
    27   149   150    1
    28    90    92    1
    29    90    89    1
    30   143   144    2
    31    86    87    1
    32    86    89    1
    33    86    85    1
    34     7     1    1
    35     7     6    1
    36   150   153    1
    37   153   154    1
    38    87    93   am
    39    91    89    1
    40    15    14   ar
    41   145   146    1
    42    69    59   am
    43   147   146    1
    44   154   155   ar
    45   154   156   ar
    46   170   168   ar
    47   168   169   ar
    48     1     2    1
    49    96    95    2
    50    16    14   ar
    51     6     5    1
    52    60    59    2
    53    14    13    1
    54   146   148    1
    55    59    58    1
    56    95    94    1
    57    93    94    1
    58    94    97    1
    59    61    58    1
    60    61    62    1
    61     5     2    1
    62   124   123    1
    63     2     3    1
    64    58    57    1
    65    13    12    1
    66    62    63   ar
    67    62    64   ar
    68   115   113    1
    69     8     3   am
    70     8     9    1
    71     3     4    2
    72    63    65   ar
    73    97    98    1
    74   123   122    1
    75    80    79    2
    76    57    49   am
    77    12     9    1
    78    64    66   ar
    79   112   113    1
    80   112   109    1
    81    50    49    2
    82   102   103    1
    83   102   101    1
    84   102   105    1
    85   103   104    2
    86    77    78    1
    87   114   113    1
    88   108   109    1
    89   100    98    1
    90     9    10    1
    91    79    78    1
    92    98    99    1
    93   101   107    1
    94    78    81    1
    95    49    48    1
    96    65    67   ar
    97    10    11    2
    98   122   121    1
    99   109   110    1
   100    66    67   ar
   101   105   106    1
   102    84    82    1
   103    67    68    1
   104   107   106    1
   105    81    82    1
   106    82    83    1
   107    48    47    1
   108    48    51    1
   109   121   120    1
   110   110   111    2
   111    42    41    2
   112    47    41   am
   113    51    52    1
   114    41    40    1
   115    17    18    1
   116   120   117    1
   117    37    35   ar
   118    37    38   ar
   119    35    32   ar
   120    29    30    1
   121    29    26    1
   122    38    36   ar
   123    32    30   ar
   124    32    34   ar
   125    23    22    1
   126    30    31   ar
   127    34    36   ar
   128    34    33   ar
   129    40    39    1
   130    40    43    1
   131    31    33   ar
   132    22    21    1
   133    22    24    1
   134    39    27   am
   135    52    54   ar
   136    52    53   ar
   137    54    56   ar
   138    21    18    1
   139    25    26    1
   140    46    45    1
   141    18    19    1
   142   139   137    1
   143    26    27    1
   144   117   116    1
   145   117   118    1
   146    27    28    2
   147   132   130    1
   148    43    44    1
   149    19    20    2
   150    45    44    1
   151   136   135    2
   152    53    55   ar
   153   130   129    1
   154   118   119    2
   155   118   125   am
   156    56    55   ar
   157   140   138    1
   158   137   138    1
   159   137   134    1
   160   135   134    1
   161   125   126    1
   162   134   133    1
   163   129   126    1
   164   129   131    1
   165   126   127    1
   166   127   128    2
