@<TRIPOS>MOLECULE
tmp/5ml5A01.pdb
 134 130 0 0 0
SMALL
GASTEIGER

@<TRIPOS>ATOM
      1  N          0.4450   -2.1780   -3.4140 N.3   175  LEU175     -0.1231
      2  CA        -0.0600   -2.5290   -2.1130 C.3   175  LEU175      0.1693
      3  C          0.8200   -3.5530   -1.4480 C.2   175  LEU175      0.2592
      4  O          0.4480   -4.0620   -0.4240 O.2   175  LEU175     -0.2718
      5  CB        -1.4780   -3.0350   -2.2520 C.3   175  LEU175      0.0284
      6  CG        -2.3640   -1.8270   -2.6300 C.3   175  LEU175      0.0019
      7  CD1       -3.7320   -2.2980   -3.0430 C.3   175  LEU175      0.0001
      8  CD2       -2.5010   -0.8420   -1.4760 C.3   175  LEU175      0.0001
      9  N          2.0110   -3.7990   -2.0090 N.am  176  ASN176     -0.1960
     10  CA         2.9410   -4.7990   -1.4960 C.3   176  ASN176      0.1819
     11  C          2.2100   -6.1200   -1.1940 C.2   176  ASN176      0.2621
     12  O          2.3990   -6.7910   -0.1530 O.2   176  ASN176     -0.2715
     13  CB         3.7090   -4.2130   -0.2880 C.3   176  ASN176      0.1195
     14  CG         4.7730   -5.1100    0.2000 C.2   176  ASN176      0.2630
     15  OD1        5.5740   -5.6220   -0.5740 O.2   176  ASN176     -0.2716
     16  ND2        4.7500   -5.3880    1.4910 N.am  176  ASN176     -0.0877
     17  N          1.4000   -6.5300   -2.1590 N.am  177  TRP177     -0.1960
     18  CA         0.5380   -7.6830   -1.9870 C.3   177  TRP177      0.1771
     19  C          1.3210   -8.9670   -1.8730 C.2   177  TRP177      0.2620
     20  O          0.9100   -9.8620   -1.1510 O.2   177  TRP177     -0.2715
     21  CB        -0.4230   -7.7400   -3.1650 C.3   177  TRP177      0.0590
     22  CG        -1.6960   -8.5080   -2.9870 C.ar  177  TRP177      0.0006
     23  CD1       -1.8360   -9.8570   -2.8590 C.ar  177  TRP177      0.0946
     24  CD2       -3.0010   -7.9780   -3.0470 C.ar  177  TRP177      0.0152
     25  NE1       -3.1380  -10.1850   -2.7450 N.ar  177  TRP177     -0.2442
     26  CE2       -3.8870   -9.0550   -2.9250 C.ar  177  TRP177      0.0810
     27  CE3       -3.5140   -6.6910   -3.2090 C.ar  177  TRP177      0.0012
     28  CZ2       -5.2620   -8.8920   -2.9170 C.ar  177  TRP177      0.0191
     29  CZ3       -4.8850   -6.5260   -3.2110 C.ar  177  TRP177      0.0001
     30  CH2       -5.7420   -7.6340   -3.0590 C.ar  177  TRP177      0.0015
     31  N          2.4130   -9.0770   -2.6300 N.am  178  MET178     -0.1963
     32  CA         3.0980  -10.3580   -2.9060 C.3   178  MET178      0.1736
     33  C          2.2660  -11.3780   -3.6690 C.2   178  MET178      0.2616
     34  O          1.1150  -11.1380   -4.1680 O.2   178  MET178     -0.2715
     35  CB         3.6670  -11.0070   -1.6240 C.3   178  MET178      0.0427
     36  CG         4.3650  -10.0700   -0.6350 C.3   178  MET178      0.0599
     37  SD         5.7160   -9.1310   -1.3650 S.3   178  MET178     -0.1393
     38  CE         6.7160  -10.4210   -2.1200 C.3   178  MET178      0.0692
     39  N          2.8700  -12.5430   -3.8370 N.am  179  HIS179     -0.1973
     40  CA         2.2390  -13.5940   -4.5670 C.3   179  HIS179      0.1656
     41  C          1.8220  -13.0980   -5.9780 C.2   179  HIS179      0.2291
     42  O          0.7240  -13.4220   -6.4880 O.2   179  HIS179     -0.2864
     43  CB         1.0500  -14.0850   -3.7500 C.3   179  HIS179      0.0771
     44  CG         1.4490  -14.8480   -2.5320 C.ar  179  HIS179      0.0820
     45  ND1        1.2200  -14.3870   -1.2500 N.ar  179  HIS179     -0.2267
     46  CD2        2.0480  -16.0570   -2.4020 C.ar  179  HIS179      0.1154
     47  CE1        1.6600  -15.2850   -0.3800 C.ar  179  HIS179      0.1986
     48  NE2        2.1610  -16.3120   -1.0530 N.ar  179  HIS179     -0.2212
     49  N         -1.4280    7.1570   -2.5440 N.3   209  ILE209     -0.1245
     50  CA        -2.8800    7.0860   -2.3420 C.3   209  ILE209      0.1561
     51  C         -3.6730    7.7420   -3.4620 C.2   209  ILE209      0.2260
     52  O         -4.7510    7.2760   -3.8020 O.2   209  ILE209     -0.2867
     53  CB        -3.3360    7.5870   -0.9210 C.3   209  ILE209      0.0252
     54  CG1       -4.7850    7.2670   -0.6330 C.3   209  ILE209      0.0019
     55  CG2       -3.0890    9.0940   -0.6950 C.3   209  ILE209      0.0019
     56  CD1       -5.1210    5.7950   -0.6120 C.3   209  ILE209      0.0001
     57  N         -3.8890    5.3020   -6.3000 N.3   212  LEU212     -0.1245
     58  CA        -4.8330    4.2290   -6.0430 C.3   212  LEU212      0.1561
     59  C         -6.2710    4.7110   -6.1710 C.2   212  LEU212      0.2260
     60  O         -7.1260    3.9990   -6.6410 O.2   212  LEU212     -0.2867
     61  CB        -4.5960    3.6270   -4.7040 C.3   212  LEU212      0.0270
     62  CG        -3.2900    2.8340   -4.6620 C.3   212  LEU212      0.0019
     63  CD1       -2.9210    2.6500   -3.2170 C.3   212  LEU212      0.0001
     64  CD2       -3.4650    1.4780   -5.3250 C.3   212  LEU212      0.0001
     65  N         -9.2280    3.3050   -8.7940 N.3   216  LEU216     -0.1245
     66  CA       -10.5570    2.8980   -8.3510 C.3   216  LEU216      0.1561
     67  C        -11.6810    3.7100   -9.0300 C.2   216  LEU216      0.2260
     68  O        -12.7330    3.1620   -9.3390 O.2   216  LEU216     -0.2867
     69  CB       -10.7340    3.0260   -6.8260 C.3   216  LEU216      0.0270
     70  CG        -9.9870    1.9340   -6.0830 C.3   216  LEU216      0.0019
     71  CD1       -9.8250    2.3390   -4.6330 C.3   216  LEU216      0.0001
     72  CD2      -10.7160    0.5870   -6.2190 C.3   216  LEU216      0.0001
     73  N        -11.3620  -12.3800   -1.9390 N.3   229  LYS229     -0.1231
     74  CA        -9.9050  -12.6020   -1.9400 C.3   229  LYS229      0.1693
     75  C         -9.1280  -11.6870   -1.0560 C.2   229  LYS229      0.2592
     76  O         -7.8910  -11.7540   -1.0530 O.2   229  LYS229     -0.2718
     77  CB        -9.3960  -12.4100   -3.3850 C.3   229  LYS229      0.0285
     78  CG       -10.0060  -13.3790   -4.3480 C.3   229  LYS229      0.0035
     79  CD        -9.6350  -13.0830   -5.8090 C.3   229  LYS229      0.0206
     80  CE        -9.8450  -14.3010   -6.6530 C.3   229  LYS229      0.1093
     81  NZ        -9.7020  -13.9470   -8.1020 N.3   229  LYS229     -0.1314
     82  N         -9.7990  -10.7480   -0.3780 N.am  230  ILE230     -0.1966
     83  CA        -9.1630   -9.8190    0.5930 C.3   230  ILE230      0.1727
     84  C         -9.5650  -10.1100    2.0400 C.2   230  ILE230      0.2617
     85  O        -10.7370   -9.9160    2.3810 O.2   230  ILE230     -0.2715
     86  CB        -9.5760   -8.3510    0.2700 C.3   230  ILE230      0.0290
     87  CG1       -9.2620   -8.0920   -1.2230 C.3   230  ILE230      0.0022
     88  CG2       -8.8660   -7.4210    1.2260 C.3   230  ILE230      0.0023
     89  CD1       -9.6230   -6.7360   -1.7420 C.3   230  ILE230      0.0001
     90  N         -8.6500  -10.6080    2.8700 N.am  231  SER231     -0.1936
     91  CA        -9.0350  -11.0020    4.2650 C.3   231  SER231      0.2055
     92  C         -9.3160   -9.8250    5.1490 C.2   231  SER231      0.2643
     93  O        -10.2720   -9.8810    5.9000 O.2   231  SER231     -0.2714
     94  CB        -8.0070  -11.8900    4.9570 C.3   231  SER231      0.2130
     95  OG        -6.7630  -11.2610    4.8410 O.3   231  SER231     -0.2179
     96  N         -8.5700   -8.7290    5.0380 N.am  232  SER232     -0.1949
     97  CA        -8.7510   -7.6160    5.9860 C.3   232  SER232      0.1924
     98  C        -10.1110   -6.8770    5.8530 C.2   232  SER232      0.2314
     99  O        -10.4170   -6.3310    4.8170 O.2   232  SER232     -0.2863
    100  CB        -7.6070   -6.5970    5.8880 C.3   232  SER232      0.2116
    101  OG        -7.9920   -5.4220    6.6250 O.3   232  SER232     -0.2180
    102  N         -9.2840   -3.2220    5.3870 N.3   235  ALA235     -0.1245
    103  CA        -8.9060   -2.9410    4.0000 C.3   235  ALA235      0.1562
    104  C        -10.2200   -2.7900    3.1620 C.2   235  ALA235      0.2260
    105  O        -10.4280   -1.8130    2.4830 O.2   235  ALA235     -0.2867
    106  CB        -8.0380   -4.1160    3.4410 C.3   235  ALA235      0.0290
    107  N        -12.0810    0.4120    4.1540 N.3   238  TYR238     -0.1227
    108  CA       -11.4060    1.5630    3.5680 C.3   238  TYR238      0.1736
    109  C        -11.6250    1.6670    2.0680 C.2   238  TYR238      0.2595
    110  O        -11.9740    2.7570    1.5280 O.2   238  TYR238     -0.2718
    111  CB        -9.9010    1.4940    3.8980 C.3   238  TYR238      0.0548
    112  CG        -9.1050    2.6990    3.4710 C.ar  238  TYR238     -0.0200
    113  CD1       -9.7120    3.9760    3.3540 C.ar  238  TYR238     -0.0009
    114  CD2       -7.7180    2.5900    3.2330 C.ar  238  TYR238     -0.0009
    115  CE1       -8.9760    5.0800    2.9810 C.ar  238  TYR238      0.0417
    116  CE2       -6.9720    3.7090    2.8850 C.ar  238  TYR238      0.0417
    117  CZ        -7.5920    4.9360    2.7340 C.ar  238  TYR238      0.1957
    118  OH        -6.8780    6.0700    2.3630 O.3   238  TYR238     -0.2866
    119  N        -11.4300    0.5420    1.3650 N.am  239  ILE239     -0.1980
    120  CA       -11.7080    0.5260   -0.0750 C.3   239  ILE239      0.1595
    121  C        -13.1230    1.0110   -0.3970 C.2   239  ILE239      0.2287
    122  O        -13.3270    1.7960   -1.3470 O.2   239  ILE239     -0.2864
    123  CB       -11.5490   -0.8780   -0.6780 C.3   239  ILE239      0.0276
    124  CG1      -10.0600   -1.3010   -0.6720 C.3   239  ILE239      0.0022
    125  CG2      -12.1610   -0.9470   -2.0900 C.3   239  ILE239      0.0022
    126  CD1       -9.8750   -2.7810   -0.9960 C.3   239  ILE239      0.0001
    127  N        -13.7250    4.5410   -0.2090 N.3   242  LEU242     -0.1245
    128  CA       -13.2470    5.2200   -1.4120 C.3   242  LEU242      0.1561
    129  C        -14.1610    5.1070   -2.6520 C.2   242  LEU242      0.2260
    130  O        -13.8810    5.7510   -3.6510 O.2   242  LEU242     -0.2867
    131  CB       -11.8040    4.7920   -1.7310 C.3   242  LEU242      0.0270
    132  CG       -10.7670    5.1130   -0.6470 C.3   242  LEU242      0.0019
    133  CD1       -9.4880    4.2760   -0.8110 C.3   242  LEU242      0.0001
    134  CD2      -10.4530    6.6030   -0.6130 C.3   242  LEU242      0.0001
@<TRIPOS>BOND
     1    68    67    2
     2    67    66    1
     3    65    66    1
     4    66    69    1
     5    81    80    1
     6    69    70    1
     7    80    79    1
     8    60    59    2
     9    42    41    2
    10    57    58    1
    11    72    70    1
    12    59    58    1
    13    70    71    1
    14    58    61    1
    15    41    40    1
    16    79    78    1
    17    64    62    1
    18    61    62    1
    19    62    63    1
    20    40    39    1
    21    40    43    1
    22    78    77    1
    23    34    33    2
    24    39    33   am
    25    52    51    2
    26    43    44    1
    27    33    32    1
    28   130   129    2
    29    51    50    1
    30     1     2    1
    31    77    74    1
    32    29    27   ar
    33    29    30   ar
    34    27    24   ar
    35    21    22    1
    36    21    18    1
    37    30    28   ar
    38    24    22   ar
    39    24    26   ar
    40     7     6    1
    41    22    23   ar
    42    26    28   ar
    43    26    25   ar
    44    32    31    1
    45    32    35    1
    46    23    25   ar
    47   129   128    1
    48    31    19   am
    49     6     5    1
    50     6     8    1
    51    49    50    1
    52    44    46   ar
    53    44    45   ar
    54    46    48   ar
    55    50    53    1
    56     5     2    1
    57    17    18    1
    58    17    11   am
    59    38    37    1
    60     2     3    1
    61   125   123    1
    62     9    10    1
    63     9     3   am
    64    18    19    1
    65    74    73    1
    66    74    75    1
    67    19    20    2
    68    89    87    1
    69   131   128    1
    70   131   132    1
    71    35    36    1
    72    10    11    1
    73    10    13    1
    74     3     4    2
    75   128   127    1
    76    37    36    1
    77   122   121    2
    78    45    47   ar
    79    87    86    1
    80    11    12    2
    81    75    76    2
    82    75    82   am
    83    48    47   ar
    84   126   124    1
    85    53    55    1
    86    53    54    1
    87   133   132    1
    88   123   124    1
    89   123   120    1
    90   132   134    1
    91    54    56    1
    92    15    14    2
    93   121   120    1
    94    82    83    1
    95    13    14    1
    96   120   119    1
    97    14    16   am
    98    86    83    1
    99    86    88    1
   100    83    84    1
   101   119   109   am
   102   110   109    2
   103    84    85    2
   104    84    90   am
   105   109   108    1
   106   118   117    1
   107   105   104    2
   108   117   116   ar
   109   117   115   ar
   110    90    91    1
   111   116   114   ar
   112   115   113   ar
   113   104   103    1
   114   114   112   ar
   115   113   112   ar
   116   106   103    1
   117   112   111    1
   118   108   111    1
   119   108   107    1
   120   103   102    1
   121    91    94    1
   122    91    92    1
   123    99    98    2
   124    95    94    1
   125    96    92   am
   126    96    97    1
   127    92    93    2
   128    98    97    1
   129   100    97    1
   130   100   101    1
