@<TRIPOS>MOLECULE
tmp/5ml5A02.pdb
 148 139 0 0 0
SMALL
GASTEIGER

@<TRIPOS>ATOM
      1  N         23.4840   -9.5820   -6.9610 N.3    61  ARG61      -0.1245
      2  CA        22.8800   -8.6920   -7.9630 C.3    61  ARG61       0.1563
      3  C         23.5790   -8.8040   -9.3310 C.2    61  ARG61       0.2260
      4  O         22.9500   -8.8710  -10.4000 O.2    61  ARG61      -0.2867
      5  CB        22.9890   -7.2410   -7.3950 C.3    61  ARG61       0.0307
      6  CG        21.9030   -6.2680   -7.7070 C.3    61  ARG61       0.0489
      7  CD        21.8510   -5.1200   -6.6700 C.3    61  ARG61       0.2205
      8  NE        20.8560   -5.3210   -5.5920 N.pl3  61  ARG61      -0.0865
      9  CZ        20.5570   -4.4220   -4.6290 C.cat  61  ARG61       0.5346
     10  NH1       21.2090   -3.2550   -4.5320 N.pl3  61  ARG61       0.1354
     11  NH2       19.5990   -4.6910   -3.7380 N.pl3  61  ARG61       0.1354
     12  N         22.7910  -12.1290  -10.8220 N.3    64  ARG64      -0.1245
     13  CA        21.3940  -12.0550  -11.3390 C.3    64  ARG64       0.1563
     14  C         21.3110  -11.3700  -12.6680 C.2    64  ARG64       0.2260
     15  O         20.7070  -11.8950  -13.6060 O.2    64  ARG64      -0.2867
     16  CB        20.4590  -11.3070  -10.3890 C.3    64  ARG64       0.0307
     17  CG        19.0090  -11.1240  -10.8940 C.3    64  ARG64       0.0489
     18  CD        18.1050  -10.3860   -9.8670 C.3    64  ARG64       0.2205
     19  NE        17.9810  -11.0990   -8.5710 N.pl3  64  ARG64      -0.0865
     20  CZ        18.4300  -10.6910   -7.3770 C.cat  64  ARG64       0.5346
     21  NH1       19.0250   -9.5070   -7.1910 N.pl3  64  ARG64       0.1354
     22  NH2       18.2660  -11.4870   -6.3270 N.pl3  64  ARG64       0.1354
     23  N         20.3240  -13.2340  -16.2160 N.3    68  LEU68      -0.1231
     24  CA        19.1450  -12.7120  -16.9440 C.3    68  LEU68       0.1693
     25  C         19.4920  -12.3270  -18.3700 C.2    68  LEU68       0.2591
     26  O         18.8720  -12.7780  -19.3430 O.2    68  LEU68      -0.2718
     27  CB        18.5620  -11.4820  -16.2090 C.3    68  LEU68       0.0284
     28  CG        17.2350  -11.6480  -15.4690 C.3    68  LEU68       0.0019
     29  CD1       16.9460  -10.4480  -14.5260 C.3    68  LEU68       0.0001
     30  CD2       16.0940  -11.8610  -16.5010 C.3    68  LEU68       0.0001
     31  N         20.5150  -11.4960  -18.5170 N.am   69  LEU69      -0.1980
     32  CA        20.9250  -11.0590  -19.8320 C.3    69  LEU69       0.1596
     33  C         21.3440  -12.1920  -20.7170 C.2    69  LEU69       0.2287
     34  O         21.0360  -12.1810  -21.8810 O.2    69  LEU69      -0.2864
     35  CB        22.0440  -10.0440  -19.7830 C.3    69  LEU69       0.0297
     36  CG        21.5160   -8.6840  -19.3130 C.3    69  LEU69       0.0022
     37  CD1       22.7500   -7.8720  -18.9010 C.3    69  LEU69       0.0001
     38  CD2       20.8160   -7.9700  -20.4210 C.3    69  LEU69       0.0001
     39  N         18.1660  -14.1490  -22.0740 N.3    72  MET72      -0.1245
     40  CA        17.1920  -13.4780  -22.8910 C.3    72  MET72       0.1570
     41  C         17.5940  -13.4690  -24.3340 C.2    72  MET72       0.2261
     42  O         18.4580  -12.7130  -24.7340 O.2    72  MET72      -0.2867
     43  CB        16.9390  -12.0400  -22.4080 C.3    72  MET72       0.0387
     44  CG        16.2540  -11.9570  -21.0350 C.3    72  MET72       0.0595
     45  SD        14.5790  -12.5740  -20.8850 S.3    72  MET72      -0.1393
     46  CE        14.7380  -14.2950  -20.3990 C.3    72  MET72       0.0692
     47  N         13.2900   -8.2350  -26.5570 N.3    77  VAL77      -0.1231
     48  CA        13.7630   -8.1650  -25.1830 C.3    77  VAL77       0.1692
     49  C         15.2750   -7.8870  -25.3280 C.2    77  VAL77       0.2591
     50  O         15.9200   -8.3930  -26.2430 O.2    77  VAL77      -0.2718
     51  CB        13.6050   -9.5010  -24.4140 C.3    77  VAL77       0.0266
     52  CG1       14.1400   -9.3690  -23.0100 C.3    77  VAL77       0.0020
     53  CG2       12.1560   -9.9750  -24.4230 C.3    77  VAL77       0.0020
     54  N         15.7990   -7.0180  -24.4660 N.am   78  ILE78      -0.1980
     55  CA        17.2290   -6.7200  -24.4360 C.3    78  ILE78       0.1595
     56  C         18.0120   -8.0340  -24.3450 C.2    78  ILE78       0.2287
     57  O         17.6390   -8.9380  -23.5980 O.2    78  ILE78      -0.2864
     58  CB        17.5590   -5.8070  -23.2360 C.3    78  ILE78       0.0276
     59  CG1       19.0320   -5.3990  -23.2920 C.3    78  ILE78       0.0022
     60  CG2       17.2130   -6.4760  -21.9070 C.3    78  ILE78       0.0022
     61  CD1       19.2950   -4.6290  -24.5610 C.3    78  ILE78       0.0001
     62  N          9.2290  -13.4970  -21.8620 N.3   135  ILE135     -0.1245
     63  CA         9.7120  -13.2760  -20.4950 C.3   135  ILE135      0.1561
     64  C          8.8790  -14.0800  -19.5070 C.2   135  ILE135      0.2260
     65  O          9.4340  -14.8650  -18.7450 O.2   135  ILE135     -0.2867
     66  CB         9.6690  -11.7420  -20.1380 C.3   135  ILE135      0.0252
     67  CG1       10.6760  -10.9260  -20.9930 C.3   135  ILE135      0.0019
     68  CG2        9.9640  -11.5550  -18.6860 C.3   135  ILE135      0.0019
     69  CD1       10.3790   -9.4180  -20.9950 C.3   135  ILE135      0.0001
     70  N          9.4310  -15.2710  -15.3710 N.3   140  ILE140     -0.1231
     71  CA         9.9890  -14.0090  -14.9690 C.3   140  ILE140      0.1692
     72  C          8.8620  -12.9540  -15.0670 C.2   140  ILE140      0.2592
     73  O          8.0710  -13.0090  -16.0340 O.2   140  ILE140     -0.2718
     74  CB        11.1160  -13.6340  -15.8850 C.3   140  ILE140      0.0266
     75  CG1       12.2550  -14.6680  -15.7870 C.3   140  ILE140      0.0019
     76  CG2       11.6110  -12.2360  -15.5560 C.3   140  ILE140      0.0020
     77  CD1       13.2660  -14.5300  -16.8890 C.3   140  ILE140      0.0001
     78  N          8.8020  -12.0630  -14.0810 N.am  141  ILE141     -0.1966
     79  CA         7.8630  -10.9500  -14.0420 C.3   141  ILE141      0.1727
     80  C          8.6640   -9.6510  -14.0480 C.2   141  ILE141      0.2616
     81  O          9.5740   -9.5160  -13.2720 O.2   141  ILE141     -0.2715
     82  CB         6.9230  -11.0470  -12.8210 C.3   141  ILE141      0.0290
     83  CG1        6.2410  -12.4390  -12.7740 C.3   141  ILE141      0.0022
     84  CG2        5.8770   -9.9790  -12.9240 C.3   141  ILE141      0.0023
     85  CD1        5.4450  -12.7690  -11.5230 C.3   141  ILE141      0.0001
     86  N          8.3620   -8.6770  -14.9100 N.am  142  HIS142     -0.1959
     87  CA         9.1850   -7.4850  -14.9540 C.3   142  HIS142      0.1787
     88  C          8.9340   -6.6750  -13.6810 C.2   142  HIS142      0.2620
     89  O          9.8840   -6.3200  -13.0490 O.2   142  HIS142     -0.2715
     90  CB         8.9510   -6.6960  -16.2570 C.3   142  HIS142      0.0785
     91  CG         9.6800   -5.3990  -16.3210 C.ar  142  HIS142      0.0821
     92  ND1       10.5360   -5.0590  -17.3420 N.ar  142  HIS142     -0.2267
     93  CD2        9.6600   -4.3510  -15.4910 C.ar  142  HIS142      0.1154
     94  CE1       10.9960   -3.8380  -17.1400 C.ar  142  HIS142      0.1986
     95  NE2       10.4690   -3.3810  -16.0200 N.ar  142  HIS142     -0.2212
     96  N          7.6640   -6.3780  -13.3620 N.am  143  ARG143     -0.1977
     97  CA         7.1660   -5.6920  -12.1360 C.3   143  ARG143      0.1597
     98  C          7.2110   -4.1820  -12.1240 C.2   143  ARG143      0.2287
     99  O          6.5930   -3.5770  -11.2580 O.2   143  ARG143     -0.2864
    100  CB         7.8100   -6.1770  -10.8570 C.3   143  ARG143      0.0334
    101  CG         7.7340   -7.6590  -10.6020 C.3   143  ARG143      0.0492
    102  CD         8.5550   -7.9600   -9.3320 C.3   143  ARG143      0.2205
    103  NE         8.3090   -9.3410   -8.8940 N.pl3 143  ARG143     -0.0865
    104  CZ         8.9220  -10.4270   -9.3820 C.cat 143  ARG143      0.5346
    105  NH1        9.8810  -10.3280  -10.3170 N.pl3 143  ARG143      0.1354
    106  NH2        8.5760  -11.6310   -8.9170 N.pl3 143  ARG143      0.1354
    107  N         12.0450   -4.6420  -24.7010 N.3   160  ILE160     -0.1231
    108  CA        11.8320   -4.5050  -23.2850 C.3   160  ILE160      0.1692
    109  C         13.1630   -4.4700  -22.5720 C.2   160  ILE160      0.2592
    110  O         14.0000   -5.3010  -22.7970 O.2   160  ILE160     -0.2718
    111  CB        10.9410   -5.6320  -22.7110 C.3   160  ILE160      0.0266
    112  CG1        9.5870   -5.6190  -23.4530 C.3   160  ILE160      0.0019
    113  CG2       10.8350   -5.5110  -21.1690 C.3   160  ILE160      0.0020
    114  CD1        8.6560   -6.7630  -23.1970 C.3   160  ILE160      0.0001
    115  N         13.3390   -3.4580  -21.7400 N.am  161  LEU161     -0.1966
    116  CA        14.5410   -3.2650  -20.9190 C.3   161  LEU161      0.1728
    117  C         14.2650   -3.4590  -19.4240 C.2   161  LEU161      0.2616
    118  O         13.1280   -3.3340  -18.9580 O.2   161  LEU161     -0.2715
    119  CB        15.0490   -1.8370  -21.0800 C.3   161  LEU161      0.0311
    120  CG        15.1260   -1.2620  -22.4900 C.3   161  LEU161      0.0022
    121  CD1       15.5620    0.2080  -22.4450 C.3   161  LEU161      0.0001
    122  CD2       16.0740   -2.1600  -23.3170 C.3   161  LEU161      0.0001
    123  N         15.3120   -3.7240  -18.6540 N.am  162  ASP162     -0.1971
    124  CA        15.1710   -3.6650  -17.2130 C.3   162  ASP162      0.1709
    125  C         15.9010   -2.4800  -16.6220 C.2   162  ASP162      0.2293
    126  O         16.4100   -2.5690  -15.5270 O.2   162  ASP162     -0.2864
    127  CB        15.5940   -4.9720  -16.5610 C.3   162  ASP162      0.1436
    128  CG        17.0450   -5.3190  -16.7700 C.2   162  ASP162      0.3671
    129  OD1       17.4920   -6.1700  -15.9800 O.co2 162  ASP162     -0.2456
    130  OD2       17.7500   -4.8320  -17.6970 O.co2 162  ASP162     -0.2456
    131  N         16.1700  -20.5570  -11.9390 N.3   299  GLN299     -0.1245
    132  CA        16.2380  -19.5230  -10.9490 C.3   299  GLN299      0.1566
    133  C         16.4490  -20.0910   -9.5250 C.2   299  GLN299      0.2260
    134  O         16.1680  -19.4070   -8.5590 O.2   299  GLN299     -0.2867
    135  CB        14.9840  -18.6630  -10.9860 C.3   299  GLN299      0.0367
    136  CG        14.9930  -17.6350  -12.0600 C.3   299  GLN299      0.0905
    137  CD        13.7060  -16.8360  -12.0590 C.2   299  GLN299      0.2608
    138  OE1       13.6410  -15.7600  -11.4820 O.2   299  GLN299     -0.2717
    139  NE2       12.6710  -17.3830  -12.7030 N.am  299  GLN299     -0.0878
    140  N         18.0640  -17.7380   -6.7860 N.3   302  GLU302     -0.1245
    141  CA        17.3350  -16.6540   -6.0960 C.3   302  GLU302      0.1567
    142  C         17.0050  -16.9160   -4.6180 C.2   302  GLU302      0.2260
    143  O         16.9450  -15.9750   -3.8350 O.2   302  GLU302     -0.2867
    144  CB        15.9800  -16.3650   -6.8170 C.3   302  GLU302      0.0388
    145  CG        16.1160  -15.5890   -8.1200 C.3   302  GLU302      0.1160
    146  CD        16.5660  -14.1340   -7.9450 C.2   302  GLU302      0.3649
    147  OE1       16.7900  -13.4390   -8.9650 O.co2 302  GLU302     -0.2457
    148  OE2       16.7390  -13.6920   -6.8120 O.co2 302  GLU302     -0.2457
@<TRIPOS>BOND
     1    47    48    1
     2    50    49    2
     3    49    48    1
     4    49    54   am
     5    48    51    1
     6    42    41    2
     7   107   108    1
     8    61    59    1
     9    54    55    1
    10    55    56    1
    11    55    58    1
    12    53    51    1
    13    51    52    1
    14    56    57    2
    15    41    40    1
    16   112   114    1
    17   112   111    1
    18   122   120    1
    19    59    58    1
    20   108   111    1
    21   108   109    1
    22    58    60    1
    23    40    43    1
    24    40    39    1
    25   110   109    2
    26   111   113    1
    27   109   115   am
    28   120   121    1
    29   120   119    1
    30    43    44    1
    31    34    33    2
    32    62    63    1
    33   115   116    1
    34   119   116    1
    35    44    45    1
    36    69    67    1
    37    67    66    1
    38   116   117    1
    39    45    46    1
    40    33    32    1
    41    63    66    1
    42    63    64    1
    43    38    36    1
    44    66    68    1
    45    32    35    1
    46    32    31    1
    47    35    36    1
    48    64    65    2
    49   117   118    2
    50   117   123   am
    51    26    25    2
    52    36    37    1
    53   123   124    1
    54    31    25   am
    55    25    24    1
    56   130   128   ar
    57    92    94   ar
    58    92    91   ar
    59   124   125    1
    60   124   127    1
    61    94    95   ar
    62    24    23    1
    63    24    27    1
    64    77    75    1
    65   128   127    1
    66   128   129   ar
    67   125   126    2
    68    30    28    1
    69    91    90    1
    70    91    93   ar
    71    90    87    1
    72    27    28    1
    73    73    72    2
    74    95    93   ar
    75    74    75    1
    76    74    76    1
    77    74    71    1
    78    28    29    1
    79    70    71    1
    80    72    71    1
    81    72    78   am
    82    87    86    1
    83    87    88    1
    84    86    80   am
    85    78    79    1
    86    80    79    1
    87    80    81    2
    88    79    82    1
    89    88    96   am
    90    88    89    2
    91    15    14    2
    92    96    97    1
    93    84    82    1
    94    82    83    1
    95    83    85    1
    96   139   137   am
    97    14    13    1
    98    97    98    1
    99    97   100    1
   100    98    99    2
   101   136   137    1
   102   136   135    1
   103   137   138    2
   104   131   132    1
   105    13    12    1
   106    13    16    1
   107   135   132    1
   108   132   133    1
   109    17    16    1
   110    17    18    1
   111   100   101    1
   112   101   102    1
   113     4     3    2
   114   105   104    1
   115    18    19    1
   116   133   134    2
   117   104   106    1
   118   104   103    2
   119   102   103    1
   120     3     2    1
   121   147   146   ar
   122    19    20    2
   123   145   146    1
   124   145   144    1
   125     2     5    1
   126     2     1    1
   127   146   148   ar
   128     6     5    1
   129     6     7    1
   130    20    21    1
   131    20    22    1
   132   144   141    1
   133   140   141    1
   134     7     8    1
   135   141   142    1
   136     8     9    2
   137     9    10    1
   138     9    11    1
   139   142   143    2
