@<TRIPOS>MOLECULE
tmp/5ml5A03.pdb
 170 160 0 0 0
SMALL
GASTEIGER

@<TRIPOS>ATOM
      1  N         27.9900    7.8560  -21.6410 N.3    26  VAL26      -0.1231
      2  CA        26.5990    8.1720  -21.9580 C.3    26  VAL26       0.1692
      3  C         25.6410    8.1150  -20.7840 C.2    26  VAL26       0.2592
      4  O         24.5000    8.4910  -20.9430 O.2    26  VAL26      -0.2718
      5  CB        26.1440    7.2330  -23.1210 C.3    26  VAL26       0.0266
      6  CG1       25.8320    5.8550  -22.6130 C.3    26  VAL26       0.0020
      7  CG2       25.0240    7.8290  -23.9320 C.3    26  VAL26       0.0020
      8  N         26.1000    7.6680  -19.6170 N.am   27  GLY27      -0.1957
      9  CA        25.2250    7.5240  -18.4340 C.3    27  GLY27       0.1869
     10  C         25.9270    6.8550  -17.2510 C.2    27  GLY27       0.2309
     11  O         26.9630    6.2300  -17.4200 O.2    27  GLY27      -0.2863
     12  N         24.9060    1.9700   -9.9740 N.3    29  TYR29      -0.1241
     13  CA        25.1120    0.6360  -10.5590 C.3    29  TYR29       0.1605
     14  C         26.4770    0.5660  -11.2120 C.2    29  TYR29       0.2264
     15  O         27.0560   -0.5370  -11.4050 O.2    29  TYR29      -0.2867
     16  CB        24.0550    0.3680  -11.6290 C.3    29  TYR29       0.0534
     17  CG        24.1740    1.3230  -12.7920 C.ar   29  TYR29      -0.0201
     18  CD1       23.4580    2.5290  -12.8010 C.ar   29  TYR29      -0.0009
     19  CD2       25.0510    1.0590  -13.8550 C.ar   29  TYR29      -0.0009
     20  CE1       23.5860    3.4330  -13.8520 C.ar   29  TYR29       0.0417
     21  CE2       25.2060    1.9620  -14.9030 C.ar   29  TYR29       0.0417
     22  CZ        24.4620    3.1470  -14.9050 C.ar   29  TYR29       0.1957
     23  OH        24.5810    4.0470  -15.9450 O.3    29  TYR29      -0.2866
     24  N         28.0210    3.6420  -18.0970 N.3    32  VAL32      -0.1245
     25  CA        27.8070    3.1950  -19.4580 C.3    32  VAL32       0.1561
     26  C         28.5120    4.1290  -20.4530 C.2    32  VAL32       0.2260
     27  O         28.3900    5.3410  -20.3010 O.2    32  VAL32      -0.2867
     28  CB        26.3070    3.1170  -19.7740 C.3    32  VAL32       0.0252
     29  CG1       26.0910    2.5420  -21.1530 C.3    32  VAL32       0.0019
     30  CG2       25.5900    2.2600  -18.7310 C.3    32  VAL32       0.0019
     31  N         28.8360    4.5460  -24.9330 N.3    34  ALA34      -0.1245
     32  CA        28.6760    4.1240  -26.3450 C.3    34  ALA34       0.1562
     33  C         29.9910    3.7220  -26.9700 C.2    34  ALA34       0.2260
     34  O         31.0210    4.2220  -26.6200 O.2    34  ALA34      -0.2867
     35  CB        28.0240    5.2100  -27.2240 C.3    34  ALA34       0.0290
     36  N         26.4990   -0.3800  -26.3660 N.3    45  ALA45      -0.1245
     37  CA        26.6270    0.2310  -25.0510 C.3    45  ALA45       0.1562
     38  C         27.3980   -0.7510  -24.2100 C.2    45  ALA45       0.2260
     39  O         27.0880   -1.9590  -24.2040 O.2    45  ALA45      -0.2867
     40  CB        25.2670    0.4890  -24.4410 C.3    45  ALA45       0.0290
     41  N         28.6650   -1.4410  -20.5050 N.3    47  LYS47      -0.1245
     42  CA        28.4310   -1.0540  -19.0790 C.3    47  LYS47       0.1561
     43  C         29.4710   -1.6760  -18.1900 C.2    47  LYS47       0.2260
     44  O         29.6680   -2.8950  -18.2060 O.2    47  LYS47      -0.2867
     45  CB        27.0650   -1.4840  -18.5790 C.3    47  LYS47       0.0271
     46  CG        26.8310   -1.1370  -17.1080 C.3    47  LYS47       0.0035
     47  CD        25.3690   -1.1680  -16.7620 C.3    47  LYS47       0.0206
     48  CE        24.7530   -2.5200  -17.0210 C.3    47  LYS47       0.1093
     49  NZ        23.3300   -2.5940  -16.5230 N.3    47  LYS47      -0.1314
     50  N         21.9760  -10.2380  -12.7750 N.3    65  GLU65      -0.1245
     51  CA        21.8850   -9.4370  -13.9580 C.3    65  GLU65       0.1567
     52  C         22.5100  -10.1910  -15.1170 C.2    65  GLU65       0.2260
     53  O         21.9860  -10.2180  -16.2030 O.2    65  GLU65      -0.2867
     54  CB        22.6060   -8.0930  -13.7260 C.3    65  GLU65       0.0388
     55  CG        22.5710   -7.2070  -14.9310 C.3    65  GLU65       0.1160
     56  CD        23.2590   -5.8510  -14.7100 C.2    65  GLU65       0.3649
     57  OE1       22.9620   -4.9650  -15.5060 O.co2  65  GLU65      -0.2457
     58  OE2       24.0990   -5.6660  -13.7880 O.co2  65  GLU65      -0.2457
     59  N         20.5150  -11.4960  -18.5170 N.3    69  LEU69      -0.1245
     60  CA        20.9250  -11.0590  -19.8320 C.3    69  LEU69       0.1561
     61  C         21.3440  -12.1920  -20.7170 C.2    69  LEU69       0.2260
     62  O         21.0360  -12.1810  -21.8810 O.2    69  LEU69      -0.2867
     63  CB        22.0440  -10.0440  -19.7830 C.3    69  LEU69       0.0270
     64  CG        21.5160   -8.6840  -19.3130 C.3    69  LEU69       0.0019
     65  CD1       22.7500   -7.8720  -18.9010 C.3    69  LEU69       0.0001
     66  CD2       20.8160   -7.9700  -20.4210 C.3    69  LEU69       0.0001
     67  N         15.7990   -7.0180  -24.4660 N.3    78  ILE78      -0.1245
     68  CA        17.2290   -6.7200  -24.4360 C.3    78  ILE78       0.1561
     69  C         18.0120   -8.0340  -24.3450 C.2    78  ILE78       0.2260
     70  O         17.6390   -8.9380  -23.5980 O.2    78  ILE78      -0.2867
     71  CB        17.5590   -5.8070  -23.2360 C.3    78  ILE78       0.0252
     72  CG1       19.0320   -5.3990  -23.2920 C.3    78  ILE78       0.0019
     73  CG2       17.2130   -6.4760  -21.9070 C.3    78  ILE78       0.0019
     74  CD1       19.2950   -4.6290  -24.5610 C.3    78  ILE78       0.0001
     75  N         22.2790   -9.8460  -24.6970 N.3    80  LEU80      -0.1245
     76  CA        23.6970   -9.6330  -24.4200 C.3    80  LEU80       0.1561
     77  C         24.5200   -9.9350  -25.6810 C.2    80  LEU80       0.2260
     78  O         24.4780  -11.0700  -26.2510 O.2    80  LEU80      -0.2867
     79  CB        24.0900  -10.5220  -23.2480 C.3    80  LEU80       0.0270
     80  CG        25.4280  -10.2930  -22.5960 C.3    80  LEU80       0.0019
     81  CD1       25.5260   -8.9270  -21.8970 C.3    80  LEU80       0.0001
     82  CD2       25.8100  -11.4140  -21.5820 C.3    80  LEU80       0.0001
     83  N         29.5010   -5.4580  -19.5020 N.3    98  LEU98      -0.1231
     84  CA        28.3640   -5.9840  -20.2250 C.3    98  LEU98       0.1693
     85  C         28.1390   -5.1040  -21.4910 C.2    98  LEU98       0.2592
     86  O         28.2700   -3.8850  -21.4270 O.2    98  LEU98      -0.2718
     87  CB        27.1520   -5.9040  -19.2750 C.3    98  LEU98       0.0284
     88  CG        27.2310   -6.6670  -17.9280 C.3    98  LEU98       0.0019
     89  CD1       25.9830   -6.3650  -17.1150 C.3    98  LEU98       0.0001
     90  CD2       27.4020   -8.1420  -18.1560 C.3    98  LEU98       0.0001
     91  N         27.8680   -5.7550  -22.6220 N.am   99  VAL99      -0.1966
     92  CA        27.6960   -5.0900  -23.9270 C.3    99  VAL99       0.1727
     93  C         26.3300   -5.5260  -24.5480 C.2    99  VAL99       0.2617
     94  O         25.9910   -6.7010  -24.6720 O.2    99  VAL99      -0.2715
     95  CB        28.8330   -5.4430  -24.9460 C.3    99  VAL99       0.0290
     96  CG1       28.7420   -4.5490  -26.1830 C.3    99  VAL99       0.0023
     97  CG2       30.2390   -5.3750  -24.3220 C.3    99  VAL99       0.0023
     98  N         25.5850   -4.5340  -24.9980 N.am  100  THR100     -0.1937
     99  CA        24.3420   -4.7700  -25.7350 C.3   100  THR100      0.2028
    100  C         24.2910   -3.7340  -26.8410 C.2   100  THR100      0.2642
    101  O         25.1990   -2.8870  -26.9560 O.2   100  THR100     -0.2714
    102  CB        23.1240   -4.7530  -24.7870 C.3   100  THR100      0.1808
    103  OG1       21.9850   -5.2370  -25.4920 O.3   100  THR100     -0.2208
    104  CG2       22.8310   -3.3330  -24.2550 C.3   100  THR100      0.0379
    105  N         23.3140   -3.8430  -27.7150 N.am  101  HIS101     -0.1959
    106  CA        23.0570   -2.8030  -28.7520 C.3   101  HIS101      0.1787
    107  C         22.8390   -1.4220  -28.1650 C.2   101  HIS101      0.2620
    108  O         22.1420   -1.2800  -27.1690 O.2   101  HIS101     -0.2715
    109  CB        21.7590   -3.1310  -29.5330 C.3   101  HIS101      0.0785
    110  CG        21.8050   -4.4100  -30.2710 C.ar  101  HIS101      0.0821
    111  ND1       21.2850   -5.5780  -29.7460 N.ar  101  HIS101     -0.2267
    112  CD2       22.2160   -4.7110  -31.5230 C.ar  101  HIS101      0.1154
    113  CE1       21.4500   -6.5640  -30.6220 C.ar  101  HIS101      0.1986
    114  NE2       22.0340   -6.0680  -31.6980 N.ar  101  HIS101     -0.2212
    115  N         23.3940   -0.3900  -28.7800 N.am  102  LEU102     -0.1963
    116  CA        23.1740    0.9540  -28.2620 C.3   102  LEU102      0.1728
    117  C         21.7500    1.3610  -28.5450 C.2   102  LEU102      0.2616
    118  O         21.2980    1.2260  -29.6800 O.2   102  LEU102     -0.2715
    119  CB        24.0660    1.9430  -28.9920 C.3   102  LEU102      0.0311
    120  CG        23.9320    3.3890  -28.5170 C.3   102  LEU102      0.0022
    121  CD1       24.3540    3.4940  -27.0600 C.3   102  LEU102      0.0001
    122  CD2       24.7860    4.3000  -29.3890 C.3   102  LEU102      0.0001
    123  N         21.0460    1.8700  -27.5520 N.am  103  MET103     -0.1963
    124  CA        19.6480    2.3370  -27.7500 C.3   103  MET103      0.1736
    125  C         19.5920    3.8500  -27.5650 C.2   103  MET103      0.2617
    126  O         20.1960    4.3690  -26.6180 O.2   103  MET103     -0.2715
    127  CB        18.6970    1.6900  -26.7650 C.3   103  MET103      0.0427
    128  CG        19.1650    0.4670  -26.0270 C.3   103  MET103      0.0599
    129  SD        18.0740   -0.8930  -26.3720 S.3   103  MET103     -0.1393
    130  CE        18.4330   -0.8990  -28.1500 C.3   103  MET103      0.0692
    131  N         18.9000    4.5790  -28.4470 N.am  104  GLY104     -0.1940
    132  CA        18.8770    6.0940  -28.3250 C.3   104  GLY104      0.2014
    133  C         17.5140    6.7710  -28.2310 C.2   104  GLY104      0.2639
    134  O         17.3600    7.9950  -28.4190 O.2   104  GLY104     -0.2714
    135  N         16.4960    5.9800  -27.9520 N.am  105  ALA105     -0.1963
    136  CA        15.1290    6.4860  -27.8460 C.3   105  ALA105      0.1728
    137  C         14.3140    5.4590  -27.1010 C.2   105  ALA105      0.2616
    138  O         14.4430    4.2570  -27.4050 O.2   105  ALA105     -0.2715
    139  CB        14.5090    6.6870  -29.2020 C.3   105  ALA105      0.0334
    140  N         13.4880    5.9410  -26.1740 N.am  106  ASP106     -0.1971
    141  CA        12.4840    5.1330  -25.5050 C.3   106  ASP106      0.1709
    142  C         11.1090    5.5130  -26.0220 C.2   106  ASP106      0.2293
    143  O         10.9360    6.4520  -26.8390 O.2   106  ASP106     -0.2864
    144  CB        12.5640    5.2860  -23.9970 C.3   106  ASP106      0.1436
    145  CG        12.2260    6.6580  -23.5350 C.2   106  ASP106      0.3671
    146  OD1       12.6460    6.9750  -22.4010 O.co2 106  ASP106     -0.2456
    147  OD2       11.5180    7.3980  -24.2810 O.co2 106  ASP106     -0.2456
    148  N          9.9600    9.2260  -25.9620 N.3   109  ASN109     -0.1240
    149  CA        10.5340    9.9170  -27.1410 C.3   109  ASN109      0.1653
    150  C          9.7210    9.6880  -28.4290 C.2   109  ASN109      0.2266
    151  O          9.5360   10.6090  -29.2410 O.2   109  ASN109     -0.2867
    152  CB        11.9760    9.4490  -27.4120 C.3   109  ASN109      0.1155
    153  CG        12.8820    9.5630  -26.2010 C.2   109  ASN109      0.2627
    154  OD1       12.5110   10.1070  -25.1490 O.2   109  ASN109     -0.2716
    155  ND2       14.0910    9.0720  -26.3490 N.am  109  ASN109     -0.0877
    156  N         15.9260   -1.3740  -17.3430 N.3   163  PHE163     -0.1227
    157  CA        16.4740   -0.1290  -16.8450 C.3   163  PHE163      0.1736
    158  C         15.9750    0.9600  -17.7710 C.2   163  PHE163      0.2596
    159  O         15.4340    0.6380  -18.8510 O.2   163  PHE163     -0.2718
    160  CB        18.0030   -0.1980  -16.8810 C.3   163  PHE163      0.0547
    161  CG        18.5250   -0.5070  -18.2310 C.ar  163  PHE163     -0.0202
    162  CD1       18.8350   -1.8090  -18.5860 C.ar  163  PHE163     -0.0042
    163  CD2       18.5970    0.4920  -19.2080 C.ar  163  PHE163     -0.0042
    164  CE1       19.2590   -2.1090  -19.8740 C.ar  163  PHE163     -0.0003
    165  CE2       19.0190    0.1890  -20.4960 C.ar  163  PHE163     -0.0003
    166  CZ        19.3550   -1.0940  -20.8210 C.ar  163  PHE163     -0.0000
    167  N         16.2330    2.2160  -17.3960 N.am  164  GLY164     -0.1957
    168  CA        15.8900    3.4350  -18.1830 C.3   164  GLY164      0.1869
    169  C         16.9160    3.9710  -19.1660 C.2   164  GLY164      0.2309
    170  O         18.1270    3.8430  -18.9120 O.2   164  GLY164     -0.2863
@<TRIPOS>BOND
     1   114   112   ar
     2   114   113   ar
     3   112   110   ar
     4   113   111   ar
     5   110   111   ar
     6   110   109    1
     7   118   117    2
     8   109   106    1
     9   122   120    1
    10   151   150    2
    11   139   136    1
    12   119   120    1
    13   119   116    1
    14   115   116    1
    15   115   107   am
    16   106   107    1
    17   106   105    1
    18   117   116    1
    19   117   123   am
    20   120   121    1
    21   131   132    1
    22   131   125   am
    23   150   149    1
    24   134   133    2
    25   132   133    1
    26   133   135   am
    27   107   108    2
    28   130   129    1
    29   135   136    1
    30   136   137    1
    31   124   125    1
    32   124   123    1
    33   124   127    1
    34   105   100   am
    35   125   126    2
    36   152   149    1
    37   152   153    1
    38   138   137    2
    39    35    32    1
    40   149   148    1
    41   137   140   am
    42    33    34    2
    43    33    32    1
    44   101   100    2
    45   100    99    1
    46   143   142    2
    47   127   128    1
    48   129   128    1
    49    36    37    1
    50   155   153   am
    51    32    31    1
    52    78    77    2
    53   153   154    2
    54    96    95    1
    55   140   141    1
    56   142   141    1
    57    99    98    1
    58    99   102    1
    59    77    76    1
    60   141   144    1
    61   103   102    1
    62    37    40    1
    63    37    38    1
    64    98    93   am
    65    95    97    1
    66    95    92    1
    67   102   104    1
    68    75    76    1
    69    94    93    2
    70    74    72    1
    71    93    92    1
    72    67    68    1
    73    68    69    1
    74    68    71    1
    75    76    79    1
    76    69    70    2
    77   147   145   ar
    78    38    39    2
    79   144   145    1
    80     7     5    1
    81    92    91    1
    82   145   146   ar
    83    72    71    1
    84    79    80    1
    85    71    73    1
    86     5     6    1
    87     5     2    1
    88    91    85   am
    89    80    81    1
    90    80    82    1
    91     2     1    1
    92     2     3    1
    93    62    61    2
    94    85    86    2
    95    85    84    1
    96    29    28    1
    97     4     3    2
    98   166   165   ar
    99   166   164   ar
   100     3     8   am
   101    61    60    1
   102    41    42    1
   103   165   163   ar
   104    26    27    2
   105    26    25    1
   106    66    64    1
   107    84    83    1
   108    84    87    1
   109   164   162   ar
   110    60    63    1
   111    60    59    1
   112    63    64    1
   113    28    25    1
   114    28    30    1
   115     8     9    1
   116    25    24    1
   117    64    65    1
   118    87    88    1
   119   163   161   ar
   120   169   170    2
   121   169   168    1
   122    42    45    1
   123    42    43    1
   124   159   158    2
   125   162   161   ar
   126    45    46    1
   127     9    10    1
   128   161   160    1
   129    44    43    2
   130   168   167    1
   131    90    88    1
   132    88    89    1
   133   158   167   am
   134   158   157    1
   135    11    10    2
   136   156   157    1
   137    46    47    1
   138    48    47    1
   139    48    49    1
   140   160   157    1
   141    53    52    2
   142    23    22    1
   143    57    56   ar
   144    52    51    1
   145    55    56    1
   146    55    54    1
   147    22    21   ar
   148    22    20   ar
   149    21    19   ar
   150    56    58   ar
   151    51    54    1
   152    51    50    1
   153    19    17   ar
   154    20    18   ar
   155    18    17   ar
   156    17    16    1
   157    16    13    1
   158    15    14    2
   159    14    13    1
   160    13    12    1
