@<TRIPOS>MOLECULE
tmp/5mldH00.pdb
 136 132 0 0 0
SMALL
GASTEIGER

@<TRIPOS>ATOM
      1  N        174.9780  -34.9000  234.1640 N.3    10  THR10      -0.1203
      2  CA       175.4500  -35.6080  235.3520 C.3    10  THR10       0.1994
      3  C        176.9510  -35.8850  235.2500 C.2    10  THR10       0.2618
      4  O        177.5200  -35.9600  234.1540 O.2    10  THR10      -0.2717
      5  CB       174.6760  -36.9300  235.5240 C.3    10  THR10       0.1784
      6  OG1      175.1080  -37.6110  236.7080 O.3    10  THR10      -0.2211
      7  CG2      174.9030  -37.8430  234.3280 C.3    10  THR10       0.0376
      8  N        177.6060  -36.0250  236.4020 N.am   11  LEU11      -0.1965
      9  CA       179.0340  -36.3330  236.4340 C.3    11  LEU11       0.1728
     10  C        179.3330  -37.8290  236.4120 C.2    11  LEU11       0.2616
     11  O        180.5100  -38.2100  236.4180 O.2    11  LEU11      -0.2715
     12  CB       179.6930  -35.7110  237.6710 C.3    11  LEU11       0.0311
     13  CG       179.6760  -34.1770  237.7140 C.3    11  LEU11       0.0022
     14  CD1      180.3140  -33.6470  238.9880 C.3    11  LEU11       0.0001
     15  CD2      180.3570  -33.6060  236.4960 C.3    11  LEU11       0.0001
     16  N        178.3170  -38.6820  236.3990 N.am   12  ARG12      -0.1977
     17  CA       178.5330  -40.1190  236.4810 C.3    12  ARG12       0.1597
     18  C        178.2940  -40.7480  235.1150 C.2    12  ARG12       0.2287
     19  O        177.3410  -40.4020  234.4090 O.2    12  ARG12      -0.2864
     20  CB       177.6400  -40.7590  237.5470 C.3    12  ARG12       0.0334
     21  CG       176.1800  -40.8610  237.1940 C.3    12  ARG12       0.0492
     22  CD       175.3540  -41.1460  238.4340 C.3    12  ARG12       0.2205
     23  NE       175.1580  -39.9320  239.2180 N.pl3  12  ARG12      -0.0865
     24  CZ       175.8040  -39.6410  240.3410 C.cat  12  ARG12       0.5346
     25  NH1      176.7000  -40.4850  240.8360 N.pl3  12  ARG12       0.1354
     26  NH2      175.5590  -38.4910  240.9610 N.pl3  12  ARG12       0.1354
     27  N        172.9170  -45.1310  237.3000 N.3    17  ARG17      -0.1231
     28  CA       171.6250  -44.4600  237.3860 C.3    17  ARG17       0.1694
     29  C        171.8240  -42.9980  237.7340 C.2    17  ARG17       0.2593
     30  O        172.5420  -42.6720  238.6850 O.2    17  ARG17      -0.2718
     31  CB       170.7430  -45.1020  238.4540 C.3    17  ARG17       0.0321
     32  CG       170.2600  -46.4980  238.1600 C.3    17  ARG17       0.0489
     33  CD       169.5450  -47.0410  239.3970 C.3    17  ARG17       0.2205
     34  NE       170.4650  -47.2400  240.5160 N.pl3  17  ARG17      -0.0865
     35  CZ       170.0860  -47.4130  241.7830 C.cat  17  ARG17       0.5346
     36  NH1      168.7940  -47.3860  242.1030 N.pl3  17  ARG17       0.1354
     37  NH2      171.0000  -47.5930  242.7330 N.pl3  17  ARG17       0.1354
     38  N        171.1650  -42.1270  236.9750 N.am   18  SER18      -0.1938
     39  CA       171.2220  -40.6860  237.1820 C.3    18  SER18       0.2055
     40  C        169.8800  -40.2010  237.7120 C.2    18  SER18       0.2643
     41  O        168.8290  -40.5100  237.1280 O.2    18  SER18      -0.2714
     42  CB       171.5800  -39.9730  235.8730 C.3    18  SER18       0.2130
     43  OG       171.1110  -38.6310  235.8620 O.3    18  SER18      -0.2179
     44  N        169.9070  -39.4550  238.8280 N.am   19  GLN19      -0.1963
     45  CA       168.6700  -38.8660  239.3320 C.3    19  GLN19       0.1733
     46  C        168.0340  -37.9670  238.2840 C.2    19  GLN19       0.2617
     47  O        166.8210  -38.0230  238.0530 O.2    19  GLN19      -0.2715
     48  CB       168.9210  -38.0520  240.6100 C.3    19  GLN19       0.0408
     49  CG       169.8060  -38.7190  241.6540 C.3    19  GLN19       0.0908
     50  CD       169.1370  -39.8880  242.3550 C.2    19  GLN19       0.2608
     51  OE1      167.9690  -39.8240  242.7420 O.2    19  GLN19      -0.2717
     52  NE2      169.8880  -40.9630  242.5380 N.am   19  GLN19      -0.0878
     53  N        168.8460  -37.1030  237.6610 N.am   20  THR20      -0.1951
     54  CA       168.3500  -36.1500  236.6720 C.3    20  THR20       0.1897
     55  C        167.7150  -36.8490  235.4800 C.2    20  THR20       0.2313
     56  O        166.7430  -36.3410  234.9030 O.2    20  THR20      -0.2863
     57  CB       169.5030  -35.2670  236.1900 C.3    20  THR20       0.1794
     58  OG1      170.2180  -34.7680  237.3240 O.3    20  THR20      -0.2208
     59  CG2      168.9910  -34.1050  235.3500 C.3    20  THR20       0.0378
     60  N        171.9240  -31.8100  237.1110 N.3    89  PRO89      -0.2102
     61  CA       171.9070  -31.8130  238.5710 C.3    89  PRO89       0.1504
     62  C        172.4800  -30.4940  239.0660 C.2    89  PRO89       0.2576
     63  O        173.1380  -29.7560  238.3280 O.2    89  PRO89      -0.2718
     64  CB       172.8080  -32.9940  238.9640 C.3    89  PRO89       0.0282
     65  CG       173.1610  -33.7220  237.6780 C.3    89  PRO89       0.0208
     66  CD       172.8980  -32.7600  236.5440 C.3    89  PRO89       0.0893
     67  N        172.2400  -30.2120  240.3360 N.am   90  ILE90      -0.1966
     68  CA       172.7380  -29.0010  240.9740 C.3    90  ILE90       0.1727
     69  C        173.9550  -29.3710  241.8090 C.2    90  ILE90       0.2617
     70  O        173.8790  -30.2830  242.6400 O.2    90  ILE90      -0.2715
     71  CB       171.6540  -28.3570  241.8560 C.3    90  ILE90       0.0290
     72  CG1      170.4640  -27.9190  240.9960 C.3    90  ILE90       0.0022
     73  CG2      172.2310  -27.2030  242.6930 C.3    90  ILE90       0.0023
     74  CD1      169.2280  -27.6360  241.7850 C.3    90  ILE90       0.0001
     75  N        175.0770  -28.6730  241.6040 N.am   91  THR91      -0.1937
     76  CA       176.2090  -28.7780  242.5220 C.3    91  THR91       0.2028
     77  C        176.6410  -27.3800  242.9270 C.2    91  THR91       0.2642
     78  O        176.8260  -26.5120  242.0690 O.2    91  THR91      -0.2714
     79  CB       177.4220  -29.5460  241.9430 C.3    91  THR91       0.1808
     80  OG1      178.0000  -28.8180  240.8580 O.3    91  THR91      -0.2208
     81  CG2      177.0390  -30.9650  241.4860 C.3    91  THR91       0.0379
     82  N        176.7950  -27.1760  244.2360 N.am   92  LEU92      -0.1963
     83  CA       177.2820  -25.9180  244.8100 C.3    92  LEU92       0.1728
     84  C        176.3930  -24.7390  244.4420 C.2    92  LEU92       0.2616
     85  O        176.8830  -23.6160  244.2900 O.2    92  LEU92      -0.2715
     86  CB       178.7290  -25.6370  244.3830 C.3    92  LEU92       0.0311
     87  CG       179.6280  -26.8810  244.3460 C.3    92  LEU92       0.0022
     88  CD1      180.8880  -26.6050  243.5720 C.3    92  LEU92       0.0001
     89  CD2      179.9500  -27.3970  245.7380 C.3    92  LEU92       0.0001
     90  N        175.0910  -24.9870  244.2840 N.am   93  ASN93      -0.1972
     91  CA       174.1130  -23.9670  243.9190 C.3    93  ASN93       0.1688
     92  C        174.2970  -23.4960  242.4770 C.2    93  ASN93       0.2292
     93  O        173.8640  -22.3920  242.1160 O.2    93  ASN93      -0.2864
     94  CB       174.1750  -22.7820  244.8900 C.3    93  ASN93       0.1181
     95  CG       172.8140  -22.2270  245.2180 C.2    93  ASN93       0.2629
     96  OD1      172.4980  -21.0860  244.8990 O.2    93  ASN93      -0.2716
     97  ND2      172.0080  -23.0310  245.8970 N.am   93  ASN93      -0.0877
     98  N        167.7450  -31.1510  238.8780 N.3   131  CYS131     -0.1221
     99  CA       167.5250  -32.0550  239.9960 C.3   131  CYS131      0.1808
    100  C        168.5460  -31.7390  241.0770 C.2   131  CYS131      0.2602
    101  O        169.7490  -31.7560  240.8160 O.2   131  CYS131     -0.2717
    102  CB       167.6560  -33.5080  239.5310 C.3   131  CYS131      0.0970
    103  SG       167.0150  -34.6430  240.6920 S.3   131  CYS131     -0.0800
    104  N        168.0720  -31.4490  242.2870 N.am  132  GLY132     -0.1942
    105  CA       168.9520  -31.2990  243.4240 C.3   132  GLY132      0.2014
    106  C        168.3330  -31.9550  244.6400 C.2   132  GLY132      0.2639
    107  O        167.1450  -32.2920  244.6460 O.2   132  GLY132     -0.2714
    108  N        169.1540  -32.1350  245.6820 N.am  133  ASN133     -0.1958
    109  CA       168.6130  -32.7730  246.8720 C.3   133  ASN133      0.1819
    110  C        167.7460  -31.8180  247.6910 C.2   133  ASN133      0.2621
    111  O        166.8520  -32.2820  248.4090 O.2   133  ASN133     -0.2715
    112  CB       169.7440  -33.3350  247.7390 C.3   133  ASN133      0.1195
    113  CG       170.3540  -34.6130  247.1600 C.2   133  ASN133      0.2630
    114  OD1      169.9610  -35.0810  246.0900 O.2   133  ASN133     -0.2716
    115  ND2      171.3510  -35.1640  247.8640 N.am  133  ASN133     -0.0877
    116  N        167.9700  -30.4970  247.5960 N.am  134  GLU134     -0.1963
    117  CA       167.2560  -29.5710  248.4740 C.3   134  GLU134      0.1733
    118  C        167.0990  -28.1330  247.9740 C.2   134  GLU134      0.2616
    119  O        166.1250  -27.4590  248.3530 O.2   134  GLU134     -0.2715
    120  CB       167.9510  -29.5150  249.8370 C.3   134  GLU134      0.0429
    121  CG       169.3790  -29.0380  249.7090 C.3   134  GLU134      0.1163
    122  CD       169.9160  -28.3170  250.9370 C.2   134  GLU134      0.3649
    123  OE1      171.1430  -28.0660  250.9580 O.co2 134  GLU134     -0.2457
    124  OE2      169.1480  -27.9960  251.8730 O.co2 134  GLU134     -0.2457
    125  N        168.0400  -27.6090  247.1770 N.am  135  ASP135     -0.1971
    126  CA       168.0720  -26.1580  247.0240 C.3   135  ASP135      0.1709
    127  C        168.9110  -25.7290  245.8300 C.2   135  ASP135      0.2293
    128  O        170.0110  -26.2440  245.6200 O.2   135  ASP135     -0.2864
    129  CB       168.6280  -25.4780  248.2850 C.3   135  ASP135      0.1436
    130  CG       168.5470  -23.9660  248.1940 C.2   135  ASP135      0.3671
    131  OD1      167.4280  -23.4660  248.0010 O.co2 135  ASP135     -0.2456
    132  OD2      169.5910  -23.2930  248.2770 O.co2 135  ASP135     -0.2456
    133  N        167.7730  -38.2290  246.8460 N.3   172  GLY172     -0.1225
    134  CA       167.4580  -37.6180  245.5750 C.3   172  GLY172      0.1811
    135  C        166.1330  -38.0670  244.9990 C.2   172  GLY172      0.2280
    136  O        165.2930  -38.6550  245.6810 O.2   172  GLY172     -0.2866
@<TRIPOS>BOND
     1     4     3    2
     2     1     2    1
     3     7     5    1
     4    19    18    2
     5    56    55    2
     6    18    17    1
     7     3     2    1
     8     3     8   am
     9    59    57    1
    10     2     5    1
    11    55    54    1
    12     5     6    1
    13    43    42    1
    14    42    39    1
    15    57    54    1
    16    57    58    1
    17    16    10   am
    18    16    17    1
    19     8     9    1
    20    10    11    2
    21    10     9    1
    22     9    12    1
    23    17    20    1
    24    15    13    1
    25    66    60    1
    26    66    65    1
    27    54    53    1
    28    38    39    1
    29    38    29   am
    30    60    61    1
    31    41    40    2
    32    39    40    1
    33    21    20    1
    34    21    22    1
    35    27    28    1
    36    28    29    1
    37    28    31    1
    38    53    46   am
    39    12    13    1
    40    65    64    1
    41    40    44   am
    42    13    14    1
    43    29    30    2
    44    47    46    2
    45    32    31    1
    46    32    33    1
    47    46    45    1
    48    63    62    2
    49    22    23    1
    50    61    64    1
    51    61    62    1
    52    44    45    1
    53    98    99    1
    54    62    67   am
    55    23    24    2
    56    45    48    1
    57    33    34    1
    58   102    99    1
    59   102   103    1
    60    99   100    1
    61    67    68    1
    62    24    25    1
    63    24    26    1
    64    34    35    2
    65    48    49    1
    66   101   100    2
    67    80    79    1
    68    68    69    1
    69    68    71    1
    70    72    74    1
    71    72    71    1
    72   100   104   am
    73    81    79    1
    74    75    69   am
    75    75    76    1
    76    49    50    1
    77    35    36    1
    78    35    37    1
    79    69    70    2
    80    71    73    1
    81    79    76    1
    82    78    77    2
    83    93    92    2
    84   104   105    1
    85    50    52   am
    86    50    51    2
    87    92    91    1
    88    76    77    1
    89    77    82   am
    90   105   106    1
    91    88    87    1
    92    91    90    1
    93    91    94    1
    94    82    83    1
    95    90    84   am
    96    85    84    2
    97    87    86    1
    98    87    89    1
    99    86    83    1
   100    84    83    1
   101   106   107    2
   102   106   108   am
   103    94    95    1
   104    96    95    2
   105   135   134    1
   106   135   136    2
   107    95    97   am
   108   134   133    1
   109   128   127    2
   110   108   109    1
   111   127   126    1
   112   114   113    2
   113   109   110    1
   114   109   112    1
   115   126   125    1
   116   126   129    1
   117   113   112    1
   118   113   115   am
   119   125   118   am
   120   116   110   am
   121   116   117    1
   122   110   111    2
   123   118   119    2
   124   118   117    1
   125   131   130   ar
   126   130   132   ar
   127   130   129    1
   128   117   120    1
   129   121   120    1
   130   121   122    1
   131   122   123   ar
   132   122   124   ar
