@<TRIPOS>MOLECULE
tmp/5mliA00.pdb
 118 115 0 0 0
SMALL
GASTEIGER

@<TRIPOS>ATOM
      1  N         32.8290   41.2070    1.7110 N.3    40  TRP40      -0.1228
      2  CA        33.0530   42.6070    2.1040 C.3    40  TRP40       0.1722
      3  C         31.8120   43.5170    2.2070 C.2    40  TRP40       0.2437
      4  O         31.7650   44.3510    3.1070 O.2    40  TRP40      -0.2733
      5  CB        34.1600   43.2610    1.2490 C.3    40  TRP40       0.0563
      6  CG        33.8720   43.3460   -0.2080 C.ar   40  TRP40       0.0003
      7  CD1       34.2060   42.4330   -1.1700 C.ar   40  TRP40       0.0946
      8  CD2       33.2290   44.4260   -0.8860 C.ar   40  TRP40       0.0152
      9  NE1       33.7840   42.8700   -2.4050 N.ar   40  TRP40      -0.2442
     10  CE2       33.1860   44.0910   -2.2590 C.ar   40  TRP40       0.0810
     11  CE3       32.6710   45.6410   -0.4660 C.ar   40  TRP40       0.0012
     12  CZ2       32.6100   44.9270   -3.2110 C.ar   40  TRP40       0.0191
     13  CZ3       32.0930   46.4690   -1.4160 C.ar   40  TRP40       0.0001
     14  CH2       32.0720   46.1070   -2.7730 C.ar   40  TRP40       0.0015
     15  N         30.8020   43.3680    1.3130 N.am   41  PRO41      -0.2718
     16  CA        29.6190   44.2410    1.4510 C.3    41  PRO41       0.1535
     17  C         28.7610   43.9430    2.6810 C.2    41  PRO41       0.2598
     18  O         27.9060   44.7500    3.0580 O.2    41  PRO41      -0.2715
     19  CB        28.8120   43.9550    0.1740 C.3    41  PRO41       0.0310
     20  CG        29.7820   43.3190   -0.7670 C.3    41  PRO41       0.0237
     21  CD        30.6870   42.5180    0.1170 C.3    41  PRO41       0.0939
     22  N         29.0160   42.7970    3.3060 N.am   42  PHE42      -0.1974
     23  CA        28.2150   42.2950    4.4100 C.3    42  PHE42       0.1639
     24  C         28.9550   42.2920    5.7500 C.2    42  PHE42       0.2290
     25  O         28.4360   41.7850    6.7450 O.2    42  PHE42      -0.2864
     26  CB        27.7510   40.8880    4.0360 C.3    42  PHE42       0.0560
     27  CG        27.0310   40.8370    2.7190 C.ar   42  PHE42      -0.0200
     28  CD1       25.7020   41.2350    2.6250 C.ar   42  PHE42      -0.0042
     29  CD2       27.6870   40.4190    1.5660 C.ar   42  PHE42      -0.0042
     30  CE1       25.0390   41.2010    1.4050 C.ar   42  PHE42      -0.0003
     31  CE2       27.0280   40.3910    0.3420 C.ar   42  PHE42      -0.0003
     32  CZ        25.7050   40.7790    0.2670 C.ar   42  PHE42      -0.0000
     33  N         29.7850   44.9300    7.6050 N.3    44  GLN44      -0.1245
     34  CA        29.4110   46.0550    8.4560 C.3    44  GLN44       0.1566
     35  C         28.0390   46.5570    8.0320 C.2    44  GLN44       0.2260
     36  O         27.5750   46.2320    6.9420 O.2    44  GLN44      -0.2867
     37  CB        30.4380   47.1860    8.3590 C.3    44  GLN44       0.0367
     38  CG        30.6130   47.7650    6.9650 C.3    44  GLN44       0.0905
     39  CD        31.3280   46.8050    6.0320 C.2    44  GLN44       0.2608
     40  OE1       32.4200   46.3310    6.3440 O.2    44  GLN44      -0.2717
     41  NE2       30.7060   46.4870    4.9070 N.am   44  GLN44      -0.0878
     42  N         24.9940   48.5740    6.4310 N.3    46  VAL46      -0.1231
     43  CA        24.9170   49.3060    5.1770 C.3    46  VAL46       0.1692
     44  C         24.9860   50.8160    5.4550 C.2    46  VAL46       0.2592
     45  O         24.1400   51.3560    6.1720 O.2    46  VAL46      -0.2718
     46  CB        23.6370   48.9470    4.4080 C.3    46  VAL46       0.0266
     47  CG1       23.4550   49.8590    3.2050 C.3    46  VAL46       0.0020
     48  CG2       23.6890   47.4870    3.9670 C.3    46  VAL46       0.0020
     49  N         26.0050   51.4780    4.9080 N.am   47  ASP47      -0.1974
     50  CA        26.1800   52.9220    5.1050 C.3    47  ASP47       0.1709
     51  C         25.3940   53.6330    4.0120 C.2    47  ASP47       0.2293
     52  O         25.9300   54.0000    2.9600 O.2    47  ASP47      -0.2864
     53  CB        27.6640   53.3130    5.0880 C.3    47  ASP47       0.1436
     54  CG        27.9060   54.7730    5.4850 C.2    47  ASP47       0.3671
     55  OD1       26.9870   55.6080    5.3820 O.co2  47  ASP47      -0.2456
     56  OD2       29.0440   55.0890    5.8940 O.co2  47  ASP47      -0.2456
     57  N         26.6270   55.6700    0.5670 N.3    51  LEU51      -0.1245
     58  CA        26.1010   55.0930   -0.6720 C.3    51  LEU51       0.1561
     59  C         25.0420   55.9700   -1.3470 C.2    51  LEU51       0.2260
     60  O         24.6260   55.6730   -2.4670 O.2    51  LEU51      -0.2867
     61  CB        25.5260   53.7000   -0.4100 C.3    51  LEU51       0.0270
     62  CG        26.5320   52.6430    0.0450 C.3    51  LEU51       0.0019
     63  CD1       25.8080   51.4660    0.6790 C.3    51  LEU51       0.0001
     64  CD2       27.4180   52.1850   -1.1080 C.3    51  LEU51       0.0001
     65  N         21.8520   56.2450   -0.5330 N.3    53  LEU53      -0.1245
     66  CA        20.6550   55.4310   -0.6530 C.3    53  LEU53       0.1561
     67  C         19.7120   55.7500    0.5010 C.2    53  LEU53       0.2260
     68  O         19.4760   54.8990    1.3620 O.2    53  LEU53      -0.2867
     69  CB        21.0200   53.9430   -0.6340 C.3    53  LEU53       0.0270
     70  CG        21.9280   53.4740   -1.7700 C.3    53  LEU53       0.0019
     71  CD1       22.2820   52.0080   -1.5880 C.3    53  LEU53       0.0001
     72  CD2       21.2760   53.7020   -3.1230 C.3    53  LEU53       0.0001
     73  N         17.0960   53.2230    1.7230 N.3    56  TYR56      -0.1241
     74  CA        17.4660   51.9020    2.2470 C.3    56  TYR56       0.1605
     75  C         16.7780   51.6090    3.5720 C.2    56  TYR56       0.2264
     76  O         16.1500   50.5630    3.7210 O.2    56  TYR56      -0.2867
     77  CB        18.9790   51.7140    2.3820 C.3    56  TYR56       0.0534
     78  CG        19.3190   50.3000    2.7980 C.ar   56  TYR56      -0.0201
     79  CD1       19.3960   49.2820    1.8590 C.ar   56  TYR56      -0.0009
     80  CD2       19.5200   49.9770    4.1380 C.ar   56  TYR56      -0.0009
     81  CE1       19.6780   47.9840    2.2330 C.ar   56  TYR56       0.0417
     82  CE2       19.8000   48.6800    4.5210 C.ar   56  TYR56       0.0417
     83  CZ        19.8790   47.6890    3.5590 C.ar   56  TYR56       0.1957
     84  OH        20.1520   46.3960    3.9150 O.3    56  TYR56      -0.2866
     85  N         18.9240   41.9720    1.7080 N.3    95  CYS95      -0.1235
     86  CA        19.5780   42.1910    0.4320 C.3    95  CYS95       0.1677
     87  C         18.6430   41.8490   -0.7350 C.2    95  CYS95       0.2270
     88  O         18.5170   42.6150   -1.6860 O.2    95  CYS95      -0.2867
     89  CB        20.8400   41.3520    0.3660 C.3    95  CYS95       0.0956
     90  SG        21.8610   41.7020   -1.0670 S.3    95  CYS95      -0.0801
     91  N         15.6280   44.5500   -0.9220 N.3    98  TYR98      -0.1227
     92  CA        15.9840   45.9000   -1.3300 C.3    98  TYR98       0.1736
     93  C         16.4470   45.9940   -2.7800 C.2    98  TYR98       0.2595
     94  O         16.0700   46.9260   -3.5040 O.2    98  TYR98      -0.2718
     95  CB        17.0600   46.4900   -0.4160 C.3    98  TYR98       0.0548
     96  CG        17.3850   47.8860   -0.8470 C.ar   98  TYR98      -0.0200
     97  CD1       16.5380   48.9340   -0.5420 C.ar   98  TYR98      -0.0009
     98  CD2       18.5050   48.1470   -1.6290 C.ar   98  TYR98      -0.0009
     99  CE1       16.8010   50.2170   -0.9830 C.ar   98  TYR98       0.0417
    100  CE2       18.7820   49.4250   -2.0670 C.ar   98  TYR98       0.0417
    101  CZ        17.9300   50.4570   -1.7400 C.ar   98  TYR98       0.1957
    102  OH        18.2170   51.7250   -2.1850 O.3    98  TYR98      -0.2866
    103  N         17.2800   45.0450   -3.1940 N.am   99  ASN99      -0.1974
    104  CA        17.9780   45.1350   -4.4750 C.3    99  ASN99       0.1688
    105  C         17.2330   44.4860   -5.6350 C.2    99  ASN99       0.2292
    106  O         16.3160   43.7010   -5.4320 O.2    99  ASN99      -0.2864
    107  CB        19.3720   44.5380   -4.3330 C.3    99  ASN99       0.1181
    108  CG        20.2400   45.3500   -3.3940 C.2    99  ASN99       0.2629
    109  OD1       20.6780   46.4500   -3.7460 O.2    99  ASN99      -0.2716
    110  ND2       20.4680   44.8380   -2.1880 N.am   99  ASN99      -0.0877
    111  N         25.2130   42.6450   -6.0690 N.3   105  ILE105     -0.1245
    112  CA        25.0950   42.4440   -4.6240 C.3   105  ILE105      0.1561
    113  C         24.2330   41.2210   -4.2980 C.2   105  ILE105      0.2260
    114  O         24.5090   40.5040   -3.3370 O.2   105  ILE105     -0.2867
    115  CB        24.5740   43.7120   -3.8980 C.3   105  ILE105      0.0252
    116  CG1       24.7970   43.6050   -2.3890 C.3   105  ILE105      0.0019
    117  CG2       23.1090   43.9870   -4.2150 C.3   105  ILE105      0.0019
    118  CD1       26.2400   43.7350   -1.9720 C.3   105  ILE105      0.0001
@<TRIPOS>BOND
     1   111   112    1
     2   105   106    2
     3   105   104    1
     4   112   113    1
     5   112   115    1
     6   104   107    1
     7   104   103    1
     8   107   108    1
     9   113   114    2
    10   117   115    1
    11   115   116    1
    12   109   108    2
    13    94    93    2
    14   108   110   am
    15    12    14   ar
    16    12    10   ar
    17   103    93   am
    18    72    70    1
    19    93    92    1
    20    14    13   ar
    21    60    59    2
    22     9    10   ar
    23     9     7   ar
    24   116   118    1
    25    10     8   ar
    26   102   101    1
    27   100   101   ar
    28   100    98   ar
    29    70    71    1
    30    70    69    1
    31   101    99   ar
    32    88    87    2
    33    98    96   ar
    34    13    11   ar
    35    59    58    1
    36    92    91    1
    37    92    95    1
    38     7     6   ar
    39    64    62    1
    40    90    89    1
    41    99    97   ar
    42     8    11   ar
    43     8     6   ar
    44    96    97   ar
    45    96    95    1
    46    20    21    1
    47    20    19    1
    48    87    86    1
    49    58    61    1
    50    58    57    1
    51    66    69    1
    52    66    65    1
    53    66    67    1
    54    61    62    1
    55     6     5    1
    56    62    63    1
    57    21    15    1
    58    19    16    1
    59    32    31   ar
    60    32    30   ar
    61    31    29   ar
    62    89    86    1
    63    86    85    1
    64    67    68    2
    65     5     2    1
    66    15    16    1
    67    15     3   am
    68    30    28   ar
    69    16    17    1
    70    29    27   ar
    71     1     2    1
    72    73    74    1
    73    79    81   ar
    74    79    78   ar
    75     2     3    1
    76     3     4    2
    77    81    83   ar
    78    74    77    1
    79    74    75    1
    80    77    78    1
    81    28    27   ar
    82    17    18    2
    83    17    22   am
    84    27    26    1
    85    78    80   ar
    86    52    51    2
    87    47    46    1
    88    22    23    1
    89    83    84    1
    90    83    82   ar
    91    75    76    2
    92    48    46    1
    93    51    50    1
    94    26    23    1
    95    80    82   ar
    96    46    43    1
    97    23    24    1
    98    41    39   am
    99    49    50    1
   100    49    44   am
   101    53    50    1
   102    53    54    1
   103    43    44    1
   104    43    42    1
   105    55    54   ar
   106    44    45    2
   107    54    56   ar
   108    24    25    2
   109    39    40    2
   110    39    38    1
   111    36    35    2
   112    38    37    1
   113    33    34    1
   114    35    34    1
   115    37    34    1
