@<TRIPOS>MOLECULE
tmp/5mljA00.pdb
 128 129 0 0 0
SMALL
GASTEIGER

@<TRIPOS>ATOM
      1  N        -10.4290   -8.2950    7.5850 N.3    23  TRP23      -0.1228
      2  CA       -10.4140   -8.1590    9.0530 C.3    23  TRP23       0.1722
      3  C        -11.7760   -7.9050    9.7280 C.2    23  TRP23       0.2437
      4  O        -12.0250   -8.4590   10.7930 O.2    23  TRP23      -0.2733
      5  CB        -9.3490   -7.1390    9.5320 C.3    23  TRP23       0.0563
      6  CG        -9.6220   -5.6950    9.2100 C.ar   23  TRP23       0.0003
      7  CD1       -9.1630   -4.9950    8.1380 C.ar   23  TRP23       0.0946
      8  CD2      -10.4120   -4.7790    9.9750 C.ar   23  TRP23       0.0152
      9  NE1       -9.6200   -3.7040    8.1790 N.ar   23  TRP23      -0.2442
     10  CE2      -10.3890   -3.5430    9.3000 C.ar   23  TRP23       0.0810
     11  CE3      -11.1370   -4.8830   11.1660 C.ar   23  TRP23       0.0012
     12  CZ2      -11.0680   -2.4190    9.7730 C.ar   23  TRP23       0.0191
     13  CZ3      -11.8090   -3.7660   11.6380 C.ar   23  TRP23       0.0001
     14  CH2      -11.7690   -2.5500   10.9420 C.ar   23  TRP23       0.0015
     15  N        -12.6690   -7.0970    9.1180 N.am   24  PRO24      -0.2718
     16  CA       -13.9480   -6.8880    9.8170 C.3    24  PRO24       0.1535
     17  C        -14.8590   -8.1210    9.8360 C.2    24  PRO24       0.2598
     18  O        -15.7750   -8.1990   10.6580 O.2    24  PRO24      -0.2715
     19  CB       -14.6170   -5.7610    9.0060 C.3    24  PRO24       0.0310
     20  CG       -13.5270   -5.1600    8.1870 C.3    24  PRO24       0.0237
     21  CD       -12.6160   -6.3100    7.8750 C.3    24  PRO24       0.0939
     22  N        -14.5890   -9.0790    8.9520 N.am   25  PHE25      -0.1974
     23  CA       -15.5090  -10.1800    8.6830 C.3    25  PHE25       0.1639
     24  C        -14.9780  -11.5340    9.1490 C.2    25  PHE25       0.2290
     25  O        -15.5500  -12.5690    8.8210 O.2    25  PHE25      -0.2864
     26  CB       -15.7790  -10.2170    7.1780 C.3    25  PHE25       0.0560
     27  CG       -16.0710   -8.8650    6.5960 C.ar   25  PHE25      -0.0200
     28  CD1      -17.2590   -8.2140    6.9000 C.ar   25  PHE25      -0.0042
     29  CD2      -15.1470   -8.2230    5.7750 C.ar   25  PHE25      -0.0042
     30  CE1      -17.5330   -6.9610    6.3830 C.ar   25  PHE25      -0.0003
     31  CE2      -15.4150   -6.9670    5.2600 C.ar   25  PHE25      -0.0003
     32  CZ       -16.6110   -6.3370    5.5620 C.ar   25  PHE25      -0.0000
     33  N        -14.7390  -12.8500   12.2290 N.3    27  GLU27      -0.1231
     34  CA       -15.5450  -13.4640   13.2740 C.3    27  GLU27       0.1684
     35  C        -16.9110  -12.7840   13.3760 C.2    27  GLU27       0.2434
     36  O        -17.0750  -11.6600   12.9040 O.2    27  GLU27      -0.2733
     37  CB       -14.8130  -13.3560   14.6100 C.3    27  GLU27       0.0402
     38  CG       -13.5040  -14.1170   14.6360 C.3    27  GLU27       0.1161
     39  CD       -12.8670  -14.0970   16.0040 C.2    27  GLU27       0.3649
     40  OE1      -12.6290  -12.9840   16.5170 O.co2  27  GLU27      -0.2457
     41  OE2      -12.6130  -15.1860   16.5610 O.co2  27  GLU27      -0.2457
     42  N        -17.8920  -13.4570   14.0040 N.am   28  PRO28      -0.2718
     43  CA       -19.2420  -12.8860   14.0520 C.3    28  PRO28       0.1535
     44  C        -19.3090  -11.5280   14.7370 C.2    28  PRO28       0.2598
     45  O        -18.5520  -11.2690   15.6740 O.2    28  PRO28      -0.2715
     46  CB       -20.0440  -13.9150   14.8590 C.3    28  PRO28       0.0310
     47  CG       -19.2610  -15.1730   14.8100 C.3    28  PRO28       0.0237
     48  CD       -17.8240  -14.7720   14.6680 C.3    28  PRO28       0.0939
     49  N        -20.2230  -10.6790   14.2710 N.am   29  VAL29      -0.1964
     50  CA       -20.4610   -9.3790   14.8920 C.3    29  VAL29       0.1727
     51  C        -20.8870   -9.6050   16.3420 C.2    29  VAL29       0.2616
     52  O        -21.6830  -10.4950   16.6270 O.2    29  VAL29      -0.2715
     53  CB       -21.5450   -8.5800   14.1270 C.3    29  VAL29       0.0290
     54  CG1      -21.9320   -7.3060   14.8700 C.3    29  VAL29       0.0023
     55  CG2      -21.0530   -8.2380   12.7240 C.3    29  VAL29       0.0023
     56  N        -20.3300   -8.8190   17.2560 N.am   30  LYS30      -0.1977
     57  CA       -20.6580   -8.9420   18.6740 C.3    30  LYS30       0.1596
     58  C        -21.7590   -7.9590   19.0440 C.2    30  LYS30       0.2287
     59  O        -21.8240   -6.8610   18.5010 O.2    30  LYS30      -0.2864
     60  CB       -19.4180   -8.7020   19.5330 C.3    30  LYS30       0.0298
     61  CG       -18.3560   -9.7750   19.3570 C.3    30  LYS30       0.0038
     62  CD       -17.2760   -9.7070   20.4240 C.3    30  LYS30       0.0206
     63  CE       -16.3320   -8.5390   20.2030 C.3    30  LYS30       0.1093
     64  NZ       -15.0640   -8.7170   20.9680 N.3    30  LYS30      -0.1314
     65  N        -20.6960   -4.5280   19.9620 N.3    33  GLU33      -0.1231
     66  CA       -20.3980   -3.6710   18.8150 C.3    33  GLU33       0.1699
     67  C        -21.6630   -3.0860   18.1950 C.2    33  GLU33       0.2592
     68  O        -21.6780   -1.9280   17.7700 O.2    33  GLU33      -0.2718
     69  CB       -19.6360   -4.4660   17.7510 C.3    33  GLU33       0.0402
     70  CG       -18.2840   -4.9830   18.2220 C.3    33  GLU33       0.1161
     71  CD       -17.6630   -5.9950   17.2830 C.2    33  GLU33       0.3649
     72  OE1      -18.4110   -6.7130   16.5790 O.co2  33  GLU33      -0.2457
     73  OE2      -16.4160   -6.0870   17.2640 O.co2  33  GLU33      -0.2457
     74  N        -22.7140   -3.9000   18.1410 N.am   34  ALA34      -0.1980
     75  CA       -23.9630   -3.5410   17.4740 C.3    34  ALA34       0.1597
     76  C        -25.1080   -4.3010   18.1470 C.2    34  ALA34       0.2287
     77  O        -25.4330   -5.4150   17.7510 O.2    34  ALA34      -0.2864
     78  CB       -23.8750   -3.8870   15.9940 C.3    34  ALA34       0.0319
     79  N        -27.9420   -5.9650   16.1220 N.3    37  TYR37      -0.1241
     80  CA       -27.5090   -6.6150   14.8790 C.3    37  TYR37       0.1605
     81  C        -28.2950   -7.8840   14.5570 C.2    37  TYR37       0.2264
     82  O        -28.6980   -8.0930   13.4130 O.2    37  TYR37      -0.2867
     83  CB       -26.0160   -6.9550   14.9310 C.3    37  TYR37       0.0534
     84  CG       -25.4560   -7.3550   13.5840 C.ar   37  TYR37      -0.0201
     85  CD1      -25.0740   -6.3900   12.6600 C.ar   37  TYR37      -0.0009
     86  CD2      -25.3310   -8.6950   13.2250 C.ar   37  TYR37      -0.0009
     87  CE1      -24.5680   -6.7440   11.4210 C.ar   37  TYR37       0.0417
     88  CE2      -24.8290   -9.0600   11.9850 C.ar   37  TYR37       0.0417
     89  CZ       -24.4460   -8.0800   11.0880 C.ar   37  TYR37       0.1957
     90  OH       -23.9500   -8.4280    9.8530 O.3    37  TYR37      -0.2866
     91  N        -23.2520   -6.4630    5.4350 N.3    76  CYS76      -0.1235
     92  CA       -22.4720   -5.2750    5.7620 C.3    76  CYS76       0.1677
     93  C        -23.0860   -4.0220    5.1370 C.2    76  CYS76       0.2270
     94  O        -23.1960   -2.9890    5.7960 O.2    76  CYS76      -0.2867
     95  CB       -21.0230   -5.4470    5.3000 C.3    76  CYS76       0.0956
     96  SG       -19.9260   -4.0740    5.7200 S.3    76  CYS76      -0.0801
     97  N        -26.5660   -3.1760    6.9370 N.3    79  TYR79      -0.1227
     98  CA       -26.4940   -2.6720    8.3110 C.3    79  TYR79       0.1736
     99  C        -25.7410   -1.3530    8.4620 C.2    79  TYR79       0.2595
    100  O        -26.1500   -0.4930    9.2450 O.2    79  TYR79      -0.2718
    101  CB       -25.8690   -3.7050    9.2570 C.3    79  TYR79       0.0548
    102  CG       -26.0630   -3.3060   10.7020 C.ar   79  TYR79      -0.0200
    103  CD1      -27.2480   -3.5940   11.3630 C.ar   79  TYR79      -0.0009
    104  CD2      -25.0870   -2.5820   11.3860 C.ar   79  TYR79      -0.0009
    105  CE1      -27.4500   -3.2060   12.6790 C.ar   79  TYR79       0.0417
    106  CE2      -25.2800   -2.1840   12.7000 C.ar   79  TYR79       0.0417
    107  CZ       -26.4640   -2.4980   13.3410 C.ar   79  TYR79       0.1957
    108  OH       -26.6710   -2.1090   14.6490 O.3    79  TYR79      -0.2866
    109  N        -24.6310   -1.2070    7.7440 N.am   80  ASN80      -0.1974
    110  CA       -23.7260   -0.0800    7.9510 C.3    80  ASN80       0.1688
    111  C        -23.9820    1.0760    6.9960 C.2    80  ASN80       0.2292
    112  O        -24.5900    0.8850    5.9380 O.2    80  ASN80      -0.2864
    113  CB       -22.2760   -0.5450    7.8360 C.3    80  ASN80       0.1181
    114  CG       -21.9110   -1.5580    8.9020 C.2    80  ASN80       0.2629
    115  OD1      -21.8630   -1.2280   10.0870 O.2    80  ASN80      -0.2716
    116  ND2      -21.6520   -2.7890    8.4950 N.am   80  ASN80      -0.0877
    117  N        -16.2390   -0.1530    7.2960 N.3    86  TYR86      -0.1241
    118  CA       -16.6870   -1.5280    7.0470 C.3    86  TYR86       0.1605
    119  C        -17.1340   -1.7200    5.6000 C.2    86  TYR86       0.2264
    120  O        -16.7630   -2.7020    4.9630 O.2    86  TYR86      -0.2867
    121  CB       -17.8100   -1.9430    8.0020 C.3    86  TYR86       0.0534
    122  CG       -17.4090   -2.0470    9.4650 C.ar   86  TYR86      -0.0201
    123  CD1      -16.1190   -2.4210    9.8420 C.ar   86  TYR86      -0.0009
    124  CD2      -18.3360   -1.7950   10.4720 C.ar   86  TYR86      -0.0009
    125  CE1      -15.7640   -2.5210   11.1750 C.ar   86  TYR86       0.0417
    126  CE2      -17.9890   -1.8960   11.8090 C.ar   86  TYR86       0.0417
    127  CZ       -16.7050   -2.2590   12.1540 C.ar   86  TYR86       0.1957
    128  OH       -16.3530   -2.3630   13.4790 O.3    86  TYR86      -0.2866
@<TRIPOS>BOND
     1   120   119    2
     2    93    92    1
     3    93    94    2
     4    31    32   ar
     5    31    29   ar
     6    95    96    1
     7    95    92    1
     8    91    92    1
     9    32    30   ar
    10   119   118    1
    11    29    27   ar
    12   112   111    2
    13    30    28   ar
    14    27    28   ar
    15    27    26    1
    16    97    98    1
    17   111   110    1
    18   118   117    1
    19   118   121    1
    20    26    23    1
    21     1     2    1
    22   109   110    1
    23   109    99   am
    24   113   110    1
    25   113   114    1
    26    21    20    1
    27    21    15    1
    28   121   122    1
    29     7     9   ar
    30     7     6   ar
    31     9    10   ar
    32    20    19    1
    33    98    99    1
    34    98   101    1
    35    99   100    2
    36   116   114   am
    37    23    22    1
    38    23    24    1
    39    25    24    2
    40   114   115    2
    41    22    17   am
    42    19    16    1
    43     2     5    1
    44     2     3    1
    45    15     3   am
    46    15    16    1
    47     6     5    1
    48     6     8   ar
    49   101   102    1
    50    10    12   ar
    51    10     8   ar
    52   122   123   ar
    53   122   124   ar
    54     3     4    2
    55    12    14   ar
    56    16    17    1
    57    17    18    2
    58   123   125   ar
    59    90    89    1
    60     8    11   ar
    61   124   126   ar
    62   102   103   ar
    63   102   104   ar
    64    14    13   ar
    65    89    87   ar
    66    89    88   ar
    67    11    13   ar
    68   125   127   ar
    69   103   105   ar
    70   104   106   ar
    71    87    85   ar
    72   126   127   ar
    73    88    86   ar
    74   127   128    1
    75    33    34    1
    76    85    84   ar
    77   105   107   ar
    78   106   107   ar
    79    55    53    1
    80    36    35    2
    81    86    84   ar
    82    34    35    1
    83    34    37    1
    84   107   108    1
    85    35    42   am
    86    82    81    2
    87    84    83    1
    88    42    43    1
    89    42    48    1
    90    43    44    1
    91    43    46    1
    92    53    54    1
    93    53    50    1
    94    49    44   am
    95    49    50    1
    96    81    80    1
    97    37    38    1
    98    38    39    1
    99    48    47    1
   100    44    45    2
   101    47    46    1
   102    80    83    1
   103    80    79    1
   104    50    51    1
   105    78    75    1
   106    39    40   ar
   107    39    41   ar
   108    51    52    2
   109    51    56   am
   110    72    71   ar
   111    56    57    1
   112    73    71   ar
   113    71    70    1
   114    75    74    1
   115    75    76    1
   116    69    70    1
   117    69    66    1
   118    77    76    2
   119    68    67    2
   120    74    67   am
   121    67    66    1
   122    59    58    2
   123    57    58    1
   124    57    60    1
   125    66    65    1
   126    61    60    1
   127    61    62    1
   128    63    62    1
   129    63    64    1
