@<TRIPOS>MOLECULE
tmp/5mlmA00.pdb
 174 169 0 0 0
SMALL
GASTEIGER

@<TRIPOS>ATOM
      1  N        -30.1600   -9.4670   11.8250 N.3   120  GLY120     -0.1210
      2  CA       -29.7920  -10.8420   11.5430 C.3   120  GLY120      0.1956
      3  C        -30.5240  -11.4170   10.3480 C.2   120  GLY120      0.2612
      4  O        -31.3770  -10.7720    9.7250 O.2   120  GLY120     -0.2717
      5  N        -30.1810  -12.6780   10.0580 N.am  121  ARG121     -0.1965
      6  CA       -30.7870  -13.4110    8.9530 C.3   121  ARG121      0.1729
      7  C        -32.2870  -13.6250    9.1310 C.2   121  ARG121      0.2616
      8  O        -33.0070  -13.8160    8.1440 O.2   121  ARG121     -0.2715
      9  CB       -30.0970  -14.7500    8.7960 C.3   121  ARG121      0.0348
     10  CG       -30.4650  -15.4680    7.5490 C.3   121  ARG121      0.0492
     11  CD       -29.5140  -16.6190    7.3190 C.3   121  ARG121      0.2205
     12  NE       -28.1110  -16.2240    7.4590 N.pl3 121  ARG121     -0.0865
     13  CZ       -27.0920  -17.0340    7.2000 C.cat 121  ARG121      0.5346
     14  NH1      -27.3110  -18.2760    6.7800 N.pl3 121  ARG121      0.1354
     15  NH2      -25.8490  -16.6020    7.3520 N.pl3 121  ARG121      0.1354
     16  N        -32.7840  -13.5980   10.3580 N.am  122  LYS122     -0.1977
     17  CA       -34.2190  -13.6930   10.5590 C.3   122  LYS122      0.1596
     18  C        -34.9750  -12.5520    9.8720 C.2   122  LYS122      0.2287
     19  O        -36.2050  -12.6110    9.7740 O.2   122  LYS122     -0.2864
     20  CB       -34.4890  -13.7650   12.0680 C.3   122  LYS122      0.0298
     21  CG       -35.0200  -15.1170   12.4790 C.3   122  LYS122      0.0038
     22  CD       -34.8680  -15.4990   13.9550 C.3   122  LYS122      0.0206
     23  CE       -35.0680  -14.3790   14.9240 C.3   122  LYS122      0.1093
     24  NZ       -33.8090  -14.4060   15.7220 N.3   122  LYS122     -0.1314
     25  N        -36.0070  -14.6950    7.0710 N.3   125  MET125     -0.1245
     26  CA       -36.6650  -15.9470    7.4000 C.3   125  MET125      0.1570
     27  C        -37.9730  -15.7520    8.1450 C.2   125  MET125      0.2261
     28  O        -38.7900  -16.6780    8.1740 O.2   125  MET125     -0.2867
     29  CB       -35.7200  -16.8240    8.2330 C.3   125  MET125      0.0387
     30  CG       -34.2810  -16.8150    7.7110 C.3   125  MET125      0.0595
     31  SD       -33.0890  -17.6710    8.7700 S.3   125  MET125     -0.1393
     32  CE       -33.8020  -19.3100    8.6740 C.3   125  MET125      0.0692
     33  N        -38.9490  -16.2670   14.8850 N.3   128  PHE128     -0.1241
     34  CA       -38.9370  -17.6340   15.4060 C.3   128  PHE128      0.1605
     35  C        -40.2450  -18.3720   15.1590 C.2   128  PHE128      0.2264
     36  O        -40.2790  -19.4200   14.5010 O.2   128  PHE128     -0.2867
     37  CB       -38.6700  -17.6270   16.9080 C.3   128  PHE128      0.0534
     38  CG       -37.3240  -17.1560   17.2860 C.ar  128  PHE128     -0.0203
     39  CD1      -36.2360  -17.9920   17.1750 C.ar  128  PHE128     -0.0042
     40  CD2      -37.1470  -15.8840   17.8130 C.ar  128  PHE128     -0.0042
     41  CE1      -34.9770  -17.5530   17.5460 C.ar  128  PHE128     -0.0003
     42  CE2      -35.9000  -15.4450   18.1920 C.ar  128  PHE128     -0.0003
     43  CZ       -34.8180  -16.2790   18.0570 C.ar  128  PHE128     -0.0000
     44  N        -40.6310  -19.2510   11.5420 N.3   131  ILE131     -0.1245
     45  CA       -39.5540  -19.8510   10.7670 C.3   131  ILE131      0.1561
     46  C        -39.9520  -21.2410   10.2980 C.2   131  ILE131      0.2260
     47  O        -40.4840  -22.0530   11.0670 O.2   131  ILE131     -0.2867
     48  CB       -38.2740  -19.8990   11.6070 C.3   131  ILE131      0.0252
     49  CG1      -37.6930  -18.4970   11.7750 C.3   131  ILE131      0.0019
     50  CG2      -37.2910  -20.8030   10.9660 C.3   131  ILE131      0.0019
     51  CD1      -36.6980  -18.4290   12.8850 C.3   131  ILE131      0.0001
     52  N        -36.7230   -6.4400   13.5570 N.3   154  TYR154     -0.1241
     53  CA       -35.6670   -5.8910   12.7100 C.3   154  TYR154      0.1605
     54  C        -36.1990   -4.7780   11.8070 C.2   154  TYR154      0.2264
     55  O        -35.5030   -3.7860   11.5590 O.2   154  TYR154     -0.2867
     56  CB       -35.0300   -6.9910   11.8630 C.3   154  TYR154      0.0534
     57  CG       -34.2510   -8.0240   12.6500 C.ar  154  TYR154     -0.0201
     58  CD1      -33.8280   -7.7840   13.9620 C.ar  154  TYR154     -0.0009
     59  CD2      -33.9390   -9.2470   12.0700 C.ar  154  TYR154     -0.0009
     60  CE1      -33.1150   -8.7420   14.6620 C.ar  154  TYR154      0.0417
     61  CE2      -33.2200  -10.2040   12.7610 C.ar  154  TYR154      0.0417
     62  CZ       -32.8090   -9.9530   14.0480 C.ar  154  TYR154      0.1957
     63  OH       -32.0950  -10.9430   14.6860 O.3   154  TYR154     -0.2866
     64  N        -26.0170  -10.9550   10.7430 N.3   178  PRO178     -0.2102
     65  CA       -25.2490  -12.1880   10.8590 C.3   178  PRO178      0.1504
     66  C        -26.1860  -13.3680   10.7950 C.2   178  PRO178      0.2576
     67  O        -27.4030  -13.2290   10.9010 O.2   178  PRO178     -0.2718
     68  CB       -24.5860  -12.0720   12.2310 C.3   178  PRO178      0.0282
     69  CG       -25.4440  -11.1330   12.9880 C.3   178  PRO178      0.0208
     70  CD       -25.9930  -10.1710   11.9880 C.3   178  PRO178      0.0893
     71  N        -25.6020  -14.5310   10.5760 N.am  179  GLY179     -0.1943
     72  CA       -26.2750  -15.7860   10.8050 C.3   179  GLY179      0.2014
     73  C        -26.0470  -16.1950   12.2410 C.2   179  GLY179      0.2638
     74  O        -25.7210  -15.3760   13.1060 O.2   179  GLY179     -0.2714
     75  N        -26.2130  -17.4810   12.5020 N.am  180  ASN180     -0.1972
     76  CA       -25.8860  -17.9750   13.8210 C.3   180  ASN180      0.1688
     77  C        -24.4410  -17.6510   14.1340 C.2   180  ASN180      0.2292
     78  O        -23.5450  -17.8960   13.3150 O.2   180  ASN180     -0.2864
     79  CB       -26.1360  -19.4640   13.8980 C.3   180  ASN180      0.1181
     80  CG       -27.5740  -19.8120   13.6480 C.2   180  ASN180      0.2629
     81  OD1      -27.8490  -20.8670   13.1160 O.2   180  ASN180     -0.2716
     82  ND2      -28.5030  -18.9370   14.0490 N.am  180  ASN180     -0.0877
     83  N        -28.3160  -15.8280   22.8640 N.3   190  MET190     -0.1245
     84  CA       -28.2550  -16.7660   21.7320 C.3   190  MET190      0.1570
     85  C        -26.7950  -17.1450   21.5440 C.2   190  MET190      0.2261
     86  O        -26.0900  -16.5220   20.7480 O.2   190  MET190     -0.2867
     87  CB       -28.8140  -16.1610   20.4540 C.3   190  MET190      0.0387
     88  CG       -30.3060  -15.8350   20.4190 C.3   190  MET190      0.0595
     89  SD       -30.4750  -14.5130   19.2050 S.3   190  MET190     -0.1393
     90  CE       -32.1820  -14.6130   18.7290 C.3   190  MET190      0.0692
     91  N        -30.1700  -30.2710    9.1840 N.3   218  ALA218     -0.1245
     92  CA       -29.0510  -29.6660    9.8930 C.3   218  ALA218      0.1562
     93  C        -27.8690  -30.6150    9.9540 C.2   218  ALA218      0.2260
     94  O        -26.7190  -30.1720    9.9880 O.2   218  ALA218     -0.2867
     95  CB       -29.4640  -29.2660   11.3050 C.3   218  ALA218      0.0290
     96  N        -24.5850  -25.8180    6.0220 N.3   223  SER223     -0.1202
     97  CA       -24.8430  -24.7310    6.9550 C.3   223  SER223      0.2020
     98  C        -23.7470  -23.6910    6.8530 C.2   223  SER223      0.2618
     99  O        -22.7000  -23.8980    6.2360 O.2   223  SER223     -0.2717
    100  CB       -24.9440  -25.2180    8.4050 C.3   223  SER223      0.2103
    101  OG       -26.0920  -26.0210    8.5720 O.3   223  SER223     -0.2182
    102  N        -23.9960  -22.5580    7.4840 N.am  224  ASP224     -0.1973
    103  CA       -22.9650  -21.5470    7.5910 C.3   224  ASP224      0.1709
    104  C        -23.1880  -20.8210    8.9010 C.2   224  ASP224      0.2293
    105  O        -24.2220  -20.9840    9.5520 O.2   224  ASP224     -0.2864
    106  CB       -22.9770  -20.6030    6.3860 C.3   224  ASP224      0.1436
    107  CG       -24.1080  -19.6100    6.4320 C.2   224  ASP224      0.3671
    108  OD1      -25.1020  -19.8130    7.1760 O.co2 224  ASP224     -0.2456
    109  OD2      -24.0080  -18.6190    5.6900 O.co2 224  ASP224     -0.2456
    110  N        -23.0130  -30.0540    9.8370 N.3   259  TRP259     -0.1241
    111  CA       -22.9600  -30.4220   11.2530 C.3   259  TRP259      0.1605
    112  C        -22.4980  -31.8560   11.4470 C.2   259  TRP259      0.2264
    113  O        -21.8610  -32.1640   12.4600 O.2   259  TRP259     -0.2867
    114  CB       -24.3160  -30.2290   11.9380 C.3   259  TRP259      0.0550
    115  CG       -24.5700  -28.8040   12.3080 C.ar  259  TRP259      0.0003
    116  CD1      -25.4790  -27.9670   11.7390 C.ar  259  TRP259      0.0946
    117  CD2      -23.8750  -28.0270   13.3050 C.ar  259  TRP259      0.0152
    118  NE1      -25.4050  -26.7300   12.3150 N.ar  259  TRP259     -0.2442
    119  CE2      -24.4270  -26.7360   13.2770 C.ar  259  TRP259      0.0810
    120  CE3      -22.8360  -28.3000   14.2150 C.ar  259  TRP259      0.0012
    121  CZ2      -23.9870  -25.7130   14.1290 C.ar  259  TRP259      0.0191
    122  CZ3      -22.3890  -27.2770   15.0520 C.ar  259  TRP259      0.0001
    123  CH2      -22.9680  -26.0020   15.0050 C.ar  259  TRP259      0.0015
    124  N        -32.5070  -22.1710   22.1920 N.3   318  PHE318     -0.1241
    125  CA       -31.9170  -21.5750   21.0000 C.3   318  PHE318      0.1605
    126  C        -31.0730  -22.5760   20.2110 C.2   318  PHE318      0.2264
    127  O        -31.0800  -22.5540   18.9690 O.2   318  PHE318     -0.2867
    128  CB       -31.0890  -20.3470   21.3610 C.3   318  PHE318      0.0534
    129  CG       -30.3320  -19.7810   20.1860 C.ar  318  PHE318     -0.0203
    130  CD1      -31.0160  -19.2110   19.1190 C.ar  318  PHE318     -0.0042
    131  CD2      -28.9400  -19.8440   20.1320 C.ar  318  PHE318     -0.0042
    132  CE1      -30.3310  -18.7040   18.0290 C.ar  318  PHE318     -0.0003
    133  CE2      -28.2470  -19.3470   19.0360 C.ar  318  PHE318     -0.0003
    134  CZ       -28.9390  -18.7730   17.9850 C.ar  318  PHE318     -0.0000
    135  N        -33.7510  -24.3610   18.4340 N.3   321  ALA321     -0.1231
    136  CA       -34.1960  -23.5430   17.3080 C.3   321  ALA321      0.1694
    137  C        -33.2510  -23.6520   16.1260 C.2   321  ALA321      0.2591
    138  O        -33.6950  -23.7110   14.9740 O.2   321  ALA321     -0.2718
    139  CB       -34.3320  -22.0850   17.7320 C.3   321  ALA321      0.0304
    140  N        -31.9450  -23.6930   16.3880 N.am  322  VAL322     -0.1980
    141  CA       -30.9640  -23.7240   15.3030 C.3   322  VAL322      0.1595
    142  C        -30.9490  -25.0950   14.6340 C.2   322  VAL322      0.2287
    143  O        -31.1030  -25.2180   13.4150 O.2   322  VAL322     -0.2864
    144  CB       -29.5670  -23.3350   15.8250 C.3   322  VAL322      0.0276
    145  CG1      -28.4800  -23.6490   14.7930 C.3   322  VAL322      0.0022
    146  CG2      -29.5310  -21.8710   16.1910 C.3   322  VAL322      0.0022
    147  N        -34.0660  -26.9890   12.2750 N.3   325  ILE325     -0.1231
    148  CA       -34.5340  -26.6800   10.9300 C.3   325  ILE325      0.1678
    149  C        -33.3880  -26.7900    9.9260 C.2   325  ILE325      0.2434
    150  O        -32.2820  -27.2140   10.2930 O.2   325  ILE325     -0.2733
    151  CB       -35.1860  -25.2900   10.8730 C.3   325  ILE325      0.0265
    152  CG1      -34.1880  -24.2520   11.2500 C.3   325  ILE325      0.0019
    153  CG2      -36.3420  -25.1460   11.8240 C.3   325  ILE325      0.0020
    154  CD1      -34.7780  -22.9270   11.0790 C.3   325  ILE325      0.0001
    155  N        -33.6100  -26.5160    8.6450 N.am  326  PRO326     -0.2718
    156  CA       -32.4870  -26.4260    7.7140 C.3   326  PRO326      0.1535
    157  C        -31.9440  -25.0210    7.6140 C.2   326  PRO326      0.2599
    158  O        -32.6670  -24.0450    7.7630 O.2   326  PRO326     -0.2715
    159  CB       -33.1040  -26.8510    6.3750 C.3   326  PRO326      0.0310
    160  CG       -34.5140  -26.6550    6.5170 C.3   326  PRO326      0.0237
    161  CD       -34.8400  -26.9240    7.9470 C.3   326  PRO326      0.0939
    162  N        -30.6470  -24.9440    7.3000 N.am  327  CYS327     -0.1955
    163  CA       -29.9020  -23.6940    7.3340 C.3   327  CYS327      0.1828
    164  C        -29.9180  -23.0230    5.9700 C.2   327  CYS327      0.2467
    165  O        -29.1980  -23.4730    5.0700 O.2   327  CYS327     -0.2730
    166  CB       -28.4680  -23.9480    7.7580 C.3   327  CYS327      0.0996
    167  SG       -27.4620  -22.4240    7.8270 S.3   327  CYS327     -0.0797
    168  N        -30.6680  -21.9400    5.7710 N.am  328  PRO328     -0.2726
    169  CA       -30.6180  -21.2530    4.4730 C.3   328  PRO328      0.1402
    170  C        -29.3560  -20.4110    4.3820 C.2   328  PRO328      0.2269
    171  O        -29.0050  -19.6970    5.3260 O.2   328  PRO328     -0.2865
    172  CB       -31.8800  -20.3800    4.4820 C.3   328  PRO328      0.0296
    173  CG       -32.0560  -20.0430    5.9050 C.3   328  PRO328      0.0237
    174  CD       -31.5660  -21.2460    6.7100 C.3   328  PRO328      0.0939
@<TRIPOS>BOND
     1   170   169    1
     2   170   171    2
     3   169   172    1
     4   169   168    1
     5   172   173    1
     6   165   164    2
     7   109   107   ar
     8   168   164   am
     9   168   174    1
    10   173   174    1
    11   164   163    1
    12    96    97    1
    13    99    98    2
    14   159   160    1
    15   159   156    1
    16   106   107    1
    17   106   103    1
    18   107   108   ar
    19   160   161    1
    20    14    13    1
    21    98    97    1
    22    98   102   am
    23    97   100    1
    24    25    26    1
    25    13    15    1
    26    13    12    2
    27   162   163    1
    28   162   157   am
    29    11    12    1
    30    11    10    1
    31   163   166    1
    32    26    27    1
    33    26    29    1
    34   102   103    1
    35    10     9    1
    36   103   104    1
    37   157   156    1
    38   157   158    2
    39    30    29    1
    40    30    31    1
    41   156   155    1
    42   166   167    1
    43   161   155    1
    44     8     7    2
    45    27    28    2
    46   100   101    1
    47   155   149   am
    48    32    31    1
    49     9     6    1
    50   104   105    2
    51     6     7    1
    52     6     5    1
    53     7    16   am
    54    91    92    1
    55     4     3    2
    56    19    18    2
    57   110   111    1
    58    18    17    1
    59    92    93    1
    60    92    95    1
    61   149   150    2
    62   149   148    1
    63    93    94    2
    64     5     3   am
    65    46    45    1
    66    46    47    2
    67     3     2    1
    68    16    17    1
    69    17    20    1
    70    71    66   am
    71    71    72    1
    72    64    65    1
    73    64    70    1
    74    45    44    1
    75    45    48    1
    76    66    65    1
    77    66    67    2
    78    72    73    1
    79    65    68    1
    80   151   148    1
    81   151   152    1
    82   151   153    1
    83   148   147    1
    84    50    48    1
    85   154   152    1
    86   111   112    1
    87   111   114    1
    88   112   113    2
    89     2     1    1
    90    55    54    2
    91    48    49    1
    92   116   115   ar
    93   116   118   ar
    94    49    51    1
    95    54    53    1
    96    56    57    1
    97    56    53    1
    98   114   115    1
    99    70    69    1
   100    20    21    1
   101    59    57   ar
   102    59    61   ar
   103    68    69    1
   104    73    75   am
   105    73    74    2
   106   115   117   ar
   107   118   119   ar
   108    21    22    1
   109    75    76    1
   110    57    58   ar
   111    53    52    1
   112    61    62   ar
   113    81    80    2
   114   119   117   ar
   115   119   121   ar
   116   117   120   ar
   117    78    77    2
   118   143   142    2
   119    80    79    1
   120    80    82   am
   121    76    79    1
   122    76    77    1
   123    22    23    1
   124    58    60   ar
   125    62    60   ar
   126    62    63    1
   127   121   123   ar
   128   120   122   ar
   129    36    35    2
   130   142   141    1
   131   145   144    1
   132    33    34    1
   133    23    24    1
   134   138   137    2
   135   123   122   ar
   136    35    34    1
   137   141   144    1
   138   141   140    1
   139    34    37    1
   140   144   146    1
   141   137   140   am
   142   137   136    1
   143    37    38    1
   144    39    38   ar
   145    39    41   ar
   146    38    40   ar
   147   136   139    1
   148   136   135    1
   149    41    43   ar
   150    40    42   ar
   151   134   132   ar
   152   134   133   ar
   153   132   130   ar
   154    43    42   ar
   155    90    89    1
   156   127   126    2
   157   133   131   ar
   158   130   129   ar
   159    89    88    1
   160   131   129   ar
   161   129   128    1
   162   126   125    1
   163    88    87    1
   164    87    84    1
   165    86    85    2
   166   125   128    1
   167   125   124    1
   168    85    84    1
   169    84    83    1
