@<TRIPOS>MOLECULE
tmp/5mlrA00.pdb
 102 95 0 0 0
SMALL
GASTEIGER

@<TRIPOS>ATOM
      1  N        -30.5330  -13.3420   10.4620 N.3   121  ARG121     -0.1231
      2  CA       -31.1610  -14.0610    9.3320 C.3   121  ARG121      0.1694
      3  C        -32.6560  -14.2390    9.4860 C.2   121  ARG121      0.2591
      4  O        -33.3360  -14.4800    8.4690 O.2   121  ARG121     -0.2718
      5  CB       -30.4510  -15.3960    9.0930 C.3   121  ARG121      0.0321
      6  CG       -30.6870  -15.9300    7.6680 C.3   121  ARG121      0.0489
      7  CD       -29.7580  -17.0650    7.3410 C.3   121  ARG121      0.2205
      8  NE       -28.3700  -16.6010    7.3750 N.pl3 121  ARG121     -0.0865
      9  CZ       -27.3390  -17.4350    7.3610 C.cat 121  ARG121      0.5346
     10  NH1      -27.5320  -18.7430    7.1700 N.pl3 121  ARG121      0.1354
     11  NH2      -26.1010  -16.9740    7.5190 N.pl3 121  ARG121      0.1354
     12  N        -33.1950  -14.0590   10.7110 N.am  122  LYS122     -0.1980
     13  CA       -34.6580  -14.1320   10.8480 C.3   122  LYS122      0.1596
     14  C        -35.3440  -12.9510   10.1300 C.2   122  LYS122      0.2287
     15  O        -36.5680  -12.9670    9.9470 O.2   122  LYS122     -0.2864
     16  CB       -35.1030  -14.2700   12.3150 C.3   122  LYS122      0.0298
     17  CG       -34.8010  -15.6800   12.8550 C.3   122  LYS122      0.0038
     18  CD       -35.5050  -15.9630   14.2090 C.3   122  LYS122      0.0206
     19  CE       -35.1000  -15.0920   15.3730 C.3   122  LYS122      0.1093
     20  NZ       -33.6270  -15.1920   15.7070 N.3   122  LYS122     -0.1314
     21  N        -36.0530  -15.3700    7.3650 N.3   125  MET125     -0.1245
     22  CA       -36.6730  -16.6370    7.7560 C.3   125  MET125      0.1570
     23  C        -37.9910  -16.4820    8.5050 C.2   125  MET125      0.2261
     24  O        -38.7930  -17.4370    8.5390 O.2   125  MET125     -0.2867
     25  CB       -35.7190  -17.4730    8.6090 C.3   125  MET125      0.0387
     26  CG       -34.4350  -17.8100    7.8560 C.3   125  MET125      0.0595
     27  SD       -33.1130  -18.4250    8.9220 S.3   125  MET125     -0.1393
     28  CE       -33.7780  -20.0070    9.4770 C.3   125  MET125      0.0692
     29  N        -39.1530  -16.6540   15.4240 N.3   128  PHE128     -0.1241
     30  CA       -39.0030  -18.0330   15.8840 C.3   128  PHE128      0.1605
     31  C        -40.2600  -18.8710   15.6680 C.2   128  PHE128      0.2264
     32  O        -40.1550  -20.0080   15.2180 O.2   128  PHE128     -0.2867
     33  CB       -38.6450  -18.1040   17.3850 C.3   128  PHE128      0.0534
     34  CG       -37.2200  -17.7580   17.7470 C.ar  128  PHE128     -0.0203
     35  CD1      -36.1750  -18.5930   17.3860 C.ar  128  PHE128     -0.0042
     36  CD2      -36.9290  -16.5810   18.4340 C.ar  128  PHE128     -0.0042
     37  CE1      -34.8540  -18.2780   17.7620 C.ar  128  PHE128     -0.0003
     38  CE2      -35.6120  -16.2750   18.8060 C.ar  128  PHE128     -0.0003
     39  CZ       -34.5920  -17.1150   18.4430 C.ar  128  PHE128     -0.0000
     40  N        -40.8040  -19.7790   11.8400 N.3   131  ILE131     -0.1245
     41  CA       -39.8200  -20.4940   10.9940 C.3   131  ILE131      0.1561
     42  C        -40.4020  -21.8520   10.5700 C.2   131  ILE131      0.2260
     43  O        -40.9490  -22.5820   11.4020 O.2   131  ILE131     -0.2867
     44  CB       -38.4920  -20.6460   11.7780 C.3   131  ILE131      0.0252
     45  CG1      -37.8260  -19.2610   11.8700 C.3   131  ILE131      0.0019
     46  CG2      -37.5580  -21.6530   11.0350 C.3   131  ILE131      0.0019
     47  CD1      -36.6180  -19.1690   12.7480 C.3   131  ILE131      0.0001
     48  N        -26.3700  -18.1280   12.6860 N.3   180  ASN180     -0.1240
     49  CA       -26.0720  -18.6260   14.0410 C.3   180  ASN180      0.1653
     50  C        -24.6460  -18.2460   14.4050 C.2   180  ASN180      0.2266
     51  O        -23.7480  -18.4870   13.5990 O.2   180  ASN180     -0.2867
     52  CB       -26.2270  -20.1410   14.0820 C.3   180  ASN180      0.1155
     53  CG       -27.6340  -20.5690   13.7250 C.2   180  ASN180      0.2627
     54  OD1      -28.6100  -19.9780   14.1700 O.2   180  ASN180     -0.2716
     55  ND2      -27.7340  -21.5840   12.8720 N.am  180  ASN180     -0.0877
     56  N        -28.2410  -16.6210   23.1820 N.3   190  MET190     -0.1245
     57  CA       -28.2180  -17.4460   21.9730 C.3   190  MET190      0.1570
     58  C        -26.7640  -17.8500   21.7310 C.2   190  MET190      0.2261
     59  O        -26.0780  -17.1970   20.9500 O.2   190  MET190     -0.2867
     60  CB       -28.7020  -16.5870   20.7650 C.3   190  MET190      0.0387
     61  CG       -30.1940  -16.2400   20.7760 C.3   190  MET190      0.0595
     62  SD       -30.5930  -14.9310   19.5590 S.3   190  MET190     -0.1393
     63  CE       -30.5730  -15.7940   18.0300 C.3   190  MET190      0.0692
     64  N        -32.4930  -22.8540   22.5430 N.3   318  PHE318     -0.1241
     65  CA       -31.8880  -22.2430   21.3590 C.3   318  PHE318      0.1605
     66  C        -31.1280  -23.2710   20.5550 C.2   318  PHE318      0.2264
     67  O        -31.2790  -23.2990   19.3230 O.2   318  PHE318     -0.2867
     68  CB       -31.0270  -21.0290   21.7320 C.3   318  PHE318      0.0534
     69  CG       -30.3210  -20.4690   20.5210 C.ar  318  PHE318     -0.0203
     70  CD1      -31.0370  -19.8420   19.5120 C.ar  318  PHE318     -0.0042
     71  CD2      -28.9400  -20.6080   20.3720 C.ar  318  PHE318     -0.0042
     72  CE1      -30.3870  -19.3560   18.3680 C.ar  318  PHE318     -0.0003
     73  CE2      -28.3050  -20.1380   19.2320 C.ar  318  PHE318     -0.0003
     74  CZ       -29.0180  -19.4780   18.2560 C.ar  318  PHE318     -0.0000
     75  N        -33.7540  -25.1100   18.8070 N.3   321  ALA321     -0.1231
     76  CA       -34.3420  -24.3080   17.7310 C.3   321  ALA321      0.1694
     77  C        -33.4630  -24.2780   16.4960 C.2   321  ALA321      0.2591
     78  O        -34.0000  -24.3260   15.4000 O.2   321  ALA321     -0.2718
     79  CB       -34.6350  -22.8890   18.2140 C.3   321  ALA321      0.0304
     80  N        -32.1320  -24.2570   16.6590 N.am  322  VAL322     -0.1980
     81  CA       -31.1760  -24.2480   15.5390 C.3   322  VAL322      0.1595
     82  C        -31.1480  -25.6080   14.8790 C.2   322  VAL322      0.2287
     83  O        -31.1510  -25.6920   13.6570 O.2   322  VAL322     -0.2864
     84  CB       -29.6990  -23.9250   16.0090 C.3   322  VAL322      0.0276
     85  CG1      -28.6590  -24.2140   14.9100 C.3   322  VAL322      0.0022
     86  CG2      -29.5480  -22.5140   16.5120 C.3   322  VAL322      0.0022
     87  N        -33.0970  -28.2010   14.9400 N.3   324  ASP324     -0.1225
     88  CA       -34.3110  -28.8860   14.4990 C.3   324  ASP324      0.1805
     89  C        -34.8450  -28.3740   13.1520 C.2   324  ASP324      0.2597
     90  O        -35.9470  -28.7770   12.7210 O.2   324  ASP324     -0.2718
     91  CB       -35.3710  -28.8040   15.5960 C.3   324  ASP324      0.1424
     92  CG       -34.9880  -29.3950   16.9590 C.2   324  ASP324      0.3668
     93  OD1      -33.8420  -29.9650   17.0940 O.co2 324  ASP324     -0.2456
     94  OD2      -35.7560  -29.1920   17.9230 O.co2 324  ASP324     -0.2456
     95  N        -34.0660  -27.5010   12.4730 N.am  325  ILE325     -0.1980
     96  CA       -34.4670  -26.9580   11.1880 C.3   325  ILE325      0.1595
     97  C        -33.3610  -27.0600   10.1500 C.2   325  ILE325      0.2287
     98  O        -32.1710  -27.0750   10.5070 O.2   325  ILE325     -0.2864
     99  CB       -34.9270  -25.4620   11.3120 C.3   325  ILE325      0.0276
    100  CG1      -33.8170  -24.5700   11.9020 C.3   325  ILE325      0.0022
    101  CG2      -36.2170  -25.3290   12.1210 C.3   325  ILE325      0.0022
    102  CD1      -34.0680  -23.1110   11.5920 C.3   325  ILE325      0.0001
@<TRIPOS>BOND
     1    10     9    1
     2     7     8    1
     3     7     6    1
     4     9     8    2
     5     9    11    1
     6    21    22    1
     7     6     5    1
     8    22    23    1
     9    22    25    1
    10    26    25    1
    11    26    27    1
    12     4     3    2
    13    23    24    2
    14    27    28    1
    15     5     2    1
    16     2     3    1
    17     2     1    1
    18     3    12   am
    19    15    14    2
    20    14    13    1
    21    97    98    2
    22    97    96    1
    23    42    41    1
    24    42    43    2
    25    12    13    1
    26    13    16    1
    27    41    44    1
    28    41    40    1
    29    46    44    1
    30    96    99    1
    31    96    95    1
    32    99   100    1
    33    99   101    1
    34   102   100    1
    35    44    45    1
    36    45    47    1
    37    16    17    1
    38    95    89   am
    39    48    49    1
    40    90    89    2
    41    17    18    1
    42    55    53   am
    43    89    88    1
    44    51    50    2
    45    83    82    2
    46    53    52    1
    47    53    54    2
    48    49    52    1
    49    49    50    1
    50    18    19    1
    51    88    87    1
    52    88    91    1
    53    82    81    1
    54    85    84    1
    55    32    31    2
    56    19    20    1
    57    78    77    2
    58    29    30    1
    59    81    84    1
    60    81    80    1
    61    91    92    1
    62    31    30    1
    63    30    33    1
    64    84    86    1
    65    77    80   am
    66    77    76    1
    67    92    93   ar
    68    92    94   ar
    69    33    34    1
    70    35    34   ar
    71    35    37   ar
    72    76    79    1
    73    76    75    1
    74    34    36   ar
    75    37    39   ar
    76    63    62    1
    77    74    72   ar
    78    74    73   ar
    79    72    70   ar
    80    36    38   ar
    81    39    38   ar
    82    73    71   ar
    83    67    66    2
    84    70    69   ar
    85    62    61    1
    86    71    69   ar
    87    69    68    1
    88    66    65    1
    89    60    61    1
    90    60    57    1
    91    59    58    2
    92    65    68    1
    93    65    64    1
    94    58    57    1
    95    57    56    1
