@<TRIPOS>MOLECULE
tmp/5mlvR01.pdb
 149 137 0 0 0
SMALL
GASTEIGER

@<TRIPOS>ATOM
      1  N         95.5600   35.1780  270.8690 N.3    11  GLN11      -0.1231
      2  CA        94.2760   35.7150  271.2970 C.3    11  GLN11       0.1698
      3  C         93.7330   36.7010  270.2750 C.2    11  GLN11       0.2592
      4  O         92.5260   36.7340  270.0200 O.2    11  GLN11      -0.2718
      5  CB        94.4260   36.3720  272.6700 C.3    11  GLN11       0.0381
      6  CG        93.1250   36.6150  273.4160 C.3    11  GLN11       0.0905
      7  CD        92.4830   37.9250  273.0650 C.2    11  GLN11       0.2608
      8  OE1       93.1630   38.8760  272.7040 O.2    11  GLN11      -0.2717
      9  NE2       91.1670   37.9820  273.1560 N.am   11  GLN11      -0.0878
     10  N         94.6080   37.5060  269.6720 N.am   12  CYS12      -0.1970
     11  CA        94.1570   38.3930  268.6100 C.3    12  CYS12       0.1712
     12  C         93.8280   37.6240  267.3570 C.2    12  CYS12       0.2296
     13  O         93.0130   38.0810  266.5550 O.2    12  CYS12      -0.2864
     14  CB        95.2100   39.4310  268.2890 C.3    12  CYS12       0.0983
     15  SG        95.4740   40.5330  269.6310 S.3    12  CYS12      -0.0798
     16  N         90.0290   36.6630  267.9850 N.3    15  GLN15      -0.1231
     17  CA        89.0110   37.6860  267.8070 C.3    15  GLN15       0.1698
     18  C         89.0620   38.3680  266.4490 C.2    15  GLN15       0.2592
     19  O         88.1450   39.1300  266.1350 O.2    15  GLN15      -0.2718
     20  CB        89.1140   38.7340  268.9120 C.3    15  GLN15       0.0381
     21  CG        88.5790   38.2700  270.2540 C.3    15  GLN15       0.0905
     22  CD        88.8410   39.2720  271.3560 C.2    15  GLN15       0.2608
     23  OE1       89.5790   40.2320  271.1680 O.2    15  GLN15      -0.2717
     24  NE2       88.2220   39.0620  272.5090 N.am   15  GLN15      -0.0878
     25  N         90.0930   38.1450  265.6340 N.am   16  VAL16      -0.1980
     26  CA        89.9380   38.5880  264.2540 C.3    16  VAL16       0.1595
     27  C         89.2560   37.5260  263.4220 C.2    16  VAL16       0.2287
     28  O         88.6270   37.8600  262.4170 O.2    16  VAL16      -0.2864
     29  CB        91.2490   38.9900  263.5560 C.3    16  VAL16       0.0276
     30  CG1       91.9000   40.1360  264.2750 C.3    16  VAL16       0.0022
     31  CG2       92.1890   37.8240  263.4150 C.3    16  VAL16       0.0022
     32  N         95.8420   30.3420  276.0970 N.3    69  GLU69      -0.1245
     33  CA        94.9200   30.7670  277.1370 C.3    69  GLU69       0.1567
     34  C         93.5920   30.0710  276.8870 C.2    69  GLU69       0.2260
     35  O         92.9080   30.4050  275.9090 O.2    69  GLU69      -0.2867
     36  CB        94.7490   32.2780  277.1030 C.3    69  GLU69       0.0388
     37  CG        96.0490   33.0450  277.3090 C.3    69  GLU69       0.1160
     38  CD        95.8780   34.5430  277.1730 C.2    69  GLU69       0.3649
     39  OE1       94.7560   34.9850  276.8640 O.co2  69  GLU69      -0.2457
     40  OE2       96.8720   35.2760  277.3500 O.co2  69  GLU69      -0.2457
     41  N        100.5680   32.0630  278.5790 N.3    97  ALA97      -0.1245
     42  CA       101.9140   32.4400  278.1720 C.3    97  ALA97       0.1562
     43  C        102.5390   33.3800  279.1870 C.2    97  ALA97       0.2260
     44  O        103.5910   33.0880  279.7630 O.2    97  ALA97      -0.2867
     45  CB       101.8860   33.0870  276.7900 C.3    97  ALA97       0.0290
     46  N        102.3390   36.9840  278.3010 N.3    99  ASN99      -0.1240
     47  CA       102.7950   38.0180  277.3710 C.3    99  ASN99       0.1653
     48  C        104.3120   37.9870  277.2430 C.2    99  ASN99       0.2266
     49  O        105.0110   38.9700  277.4820 O.2    99  ASN99      -0.2867
     50  CB       102.2940   39.4010  277.7750 C.3    99  ASN99       0.1155
     51  CG       100.8030   39.5200  277.6570 C.2    99  ASN99       0.2627
     52  OD1      100.2000   38.9860  276.7310 O.2    99  ASN99      -0.2716
     53  ND2      100.1950   40.2280  278.5880 N.am   99  ASN99      -0.0877
     54  N         99.2000   38.2650  266.3210 N.3   138  SER138     -0.1217
     55  CA        99.6070   39.5460  266.8720 C.3   138  SER138      0.1889
     56  C        101.0910   39.5610  267.1990 C.2   138  SER138      0.2288
     57  O        101.7660   38.5330  267.2080 O.2   138  SER138     -0.2866
     58  CB        98.8240   39.8800  268.1330 C.3   138  SER138      0.2089
     59  OG        99.3330   41.0810  268.6650 O.3   138  SER138     -0.2183
     60  N        101.8970   41.8110  269.9940 N.3   140  GLY140     -0.1210
     61  CA       101.9010   42.3610  271.3320 C.3   140  GLY140      0.1956
     62  C        102.0910   41.3260  272.4140 C.2   140  GLY140      0.2612
     63  O        103.1040   41.3350  273.1130 O.2   140  GLY140     -0.2717
     64  N        101.1340   40.4160  272.5510 N.am  141  GLY141     -0.1942
     65  CA       101.1710   39.4220  273.5990 C.3   141  GLY141      0.2014
     66  C        102.1540   38.3050  273.3100 C.2   141  GLY141      0.2639
     67  O        102.9840   38.3720  272.4030 O.2   141  GLY141     -0.2714
     68  N        102.0460   37.2490  274.1070 N.am  142  GLY142     -0.1939
     69  CA       102.9650   36.1370  273.9860 C.3   142  GLY142      0.2014
     70  C        102.5260   35.0830  272.9950 C.2   142  GLY142      0.2640
     71  O        103.3300   34.6250  272.1810 O.2   142  GLY142     -0.2714
     72  N        101.2480   34.7060  273.0560 N.am  143  THR143     -0.1936
     73  CA       100.7500   33.5720  272.2850 C.3   143  THR143      0.2028
     74  C        100.7890   33.8480  270.7940 C.2   143  THR143      0.2642
     75  O        101.2470   33.0120  270.0100 O.2   143  THR143     -0.2714
     76  CB        99.3260   33.2570  272.6990 C.3   143  THR143      0.1808
     77  OG1       98.5100   34.4030  272.4330 O.3   143  THR143     -0.2208
     78  CG2       99.2770   32.9450  274.1640 C.3   143  THR143      0.0379
     79  N        100.3250   35.0270  270.3850 N.am  144  GLY144     -0.1954
     80  CA       100.3610   35.3790  268.9810 C.3   144  GLY144      0.1869
     81  C        101.7490   35.6470  268.4510 C.2   144  GLY144      0.2309
     82  O        101.9440   35.6730  267.2320 O.2   144  GLY144     -0.2863
     83  N         99.4960   42.3850  263.7440 N.3   169  VAL169     -0.1245
     84  CA        99.2090   43.7530  264.1380 C.3   169  VAL169      0.1561
     85  C        100.4080   44.3470  264.8710 C.2   169  VAL169      0.2260
     86  O        101.1920   43.6540  265.5210 O.2   169  VAL169     -0.2867
     87  CB        97.9350   43.8210  264.9890 C.3   169  VAL169      0.0252
     88  CG1       96.7630   43.3350  264.1770 C.3   169  VAL169      0.0019
     89  CG2       98.0810   42.9740  266.2200 C.3   169  VAL169      0.0019
     90  N         99.4370   48.8760  274.5850 N.3   177  ASP177     -0.1225
     91  CA        98.4740   48.2390  275.4640 C.3   177  ASP177      0.1805
     92  C         99.1320   47.4320  276.5700 C.2   177  ASP177      0.2598
     93  O         98.6450   47.4240  277.7040 O.2   177  ASP177     -0.2718
     94  CB        97.5500   47.3520  274.6250 C.3   177  ASP177      0.1424
     95  CG        96.2370   47.0640  275.3100 C.2   177  ASP177      0.3668
     96  OD1       96.0270   47.5480  276.4350 O.co2 177  ASP177     -0.2456
     97  OD2       95.4010   46.3600  274.7130 O.co2 177  ASP177     -0.2456
     98  N        100.2240   46.7440  276.2730 N.am  178  THR178     -0.1953
     99  CA       100.9520   46.0050  277.2840 C.3   178  THR178      0.1897
    100  C        102.2980   46.6680  277.5140 C.2   178  THR178      0.2313
    101  O        102.6670   47.6270  276.8390 O.2   178  THR178     -0.2863
    102  CB       101.1440   44.5550  276.8680 C.3   178  THR178      0.1794
    103  OG1      102.0800   44.5070  275.7920 O.3   178  THR178     -0.2208
    104  CG2       99.8230   43.9690  276.4040 C.3   178  THR178      0.0378
    105  N        105.9790   45.5390  275.1430 N.3   181  GLU181     -0.1245
    106  CA       105.8970   45.7480  273.6970 C.3   181  GLU181      0.1567
    107  C        107.2280   45.9480  272.9690 C.2   181  GLU181      0.2260
    108  O        107.3760   45.3530  271.8900 O.2   181  GLU181     -0.2867
    109  CB       104.9530   46.9180  273.3930 C.3   181  GLU181      0.0388
    110  CG       103.5240   46.6750  273.7950 C.3   181  GLU181      0.1160
    111  CD       102.8640   45.5930  272.9790 C.2   181  GLU181      0.3649
    112  OE1      103.1890   45.4640  271.7850 O.co2 181  GLU181     -0.2457
    113  OE2      102.0180   44.8660  273.5350 O.co2 181  GLU181     -0.2457
    114  N         96.7660   49.7880  266.0300 N.3   204  ASN204     -0.1240
    115  CA        95.4860   50.1590  266.6230 C.3   204  ASN204      0.1653
    116  C         95.3520   51.6630  266.7870 C.2   204  ASN204      0.2266
    117  O         94.2510   52.2080  266.6430 O.2   204  ASN204     -0.2867
    118  CB        95.3200   49.4750  267.9730 C.3   204  ASN204      0.1155
    119  CG        95.1940   47.9970  267.8450 C.2   204  ASN204      0.2627
    120  OD1       94.5140   47.4960  266.9560 O.2   204  ASN204     -0.2716
    121  ND2       95.8630   47.2750  268.7250 N.am  204  ASN204     -0.0877
    122  N         86.4600   46.6190  270.2810 N.3   222  TYR222     -0.1241
    123  CA        87.4220   45.8160  269.5380 C.3   222  TYR222      0.1605
    124  C         86.7200   44.9070  268.5470 C.2   222  TYR222      0.2264
    125  O         87.1790   44.7460  267.4110 O.2   222  TYR222     -0.2867
    126  CB        88.2910   45.0120  270.4980 C.3   222  TYR222      0.0534
    127  CG        89.3950   45.8240  271.1160 C.ar  222  TYR222     -0.0201
    128  CD1       89.7900   47.0220  270.5470 C.ar  222  TYR222     -0.0009
    129  CD2       90.0380   45.4020  272.2680 C.ar  222  TYR222     -0.0009
    130  CE1       90.7960   47.7740  271.0990 C.ar  222  TYR222      0.0417
    131  CE2       91.0480   46.1460  272.8300 C.ar  222  TYR222      0.0417
    132  CZ        91.4200   47.3360  272.2430 C.ar  222  TYR222      0.1957
    133  OH        92.4250   48.0950  272.7950 O.3   222  TYR222     -0.2866
    134  N         86.1360   46.9290  265.9190 N.3   225  LEU225     -0.1231
    135  CA        87.3720   47.3110  265.2550 C.3   225  LEU225      0.1693
    136  C         87.9440   46.1660  264.4420 C.2   225  LEU225      0.2592
    137  O         88.4190   46.3740  263.3210 O.2   225  LEU225     -0.2718
    138  CB        88.3850   47.7910  266.2830 C.3   225  LEU225      0.0284
    139  CG        89.6620   48.3190  265.6570 C.3   225  LEU225      0.0019
    140  CD1       89.3230   49.4320  264.6900 C.3   225  LEU225      0.0001
    141  CD2       90.5760   48.8060  266.7490 C.3   225  LEU225      0.0001
    142  N         87.8900   44.9490  264.9780 N.am  226  ASN226     -0.1974
    143  CA        88.2960   43.7990  264.1880 C.3   226  ASN226      0.1688
    144  C         87.3490   43.5550  263.0220 C.2   226  ASN226      0.2292
    145  O         87.7450   42.9250  262.0420 O.2   226  ASN226     -0.2864
    146  CB        88.3730   42.5400  265.0490 C.3   226  ASN226      0.1181
    147  CG        89.3440   42.6750  266.2110 C.2   226  ASN226      0.2629
    148  OD1       88.9500   42.5200  267.3610 O.2   226  ASN226     -0.2716
    149  ND2       90.6100   42.9710  265.9190 N.am  226  ASN226     -0.0877
@<TRIPOS>BOND
     1   145   144    2
     2    28    27    2
     3   144   143    1
     4   137   136    2
     5    31    29    1
     6    27    26    1
     7    29    26    1
     8    29    30    1
     9    83    84    1
    10    84    85    1
    11    84    87    1
    12    88    87    1
    13   143   142    1
    14   143   146    1
    15    26    25    1
    16   136   142   am
    17   136   135    1
    18   140   139    1
    19    85    86    2
    20    87    89    1
    21   146   147    1
    22   135   134    1
    23   135   138    1
    24    25    18   am
    25   139   138    1
    26   139   141    1
    27   149   147   am
    28   114   115    1
    29    19    18    2
    30   147   148    2
    31    54    55    1
    32    18    17    1
    33    13    12    2
    34   115   116    1
    35   115   118    1
    36   117   116    2
    37    55    56    1
    38    55    58    1
    39   120   119    2
    40    56    57    2
    41    82    81    2
    42    12    11    1
    43   125   124    2
    44    17    16    1
    45    17    20    1
    46   119   118    1
    47   119   121   am
    48    58    59    1
    49    14    11    1
    50    14    15    1
    51    81    80    1
    52   124   123    1
    53    11    10    1
    54    20    21    1
    55    80    79    1
    56   123   122    1
    57   123   126    1
    58    10     3   am
    59    60    61    1
    60    75    74    2
    61     4     3    2
    62    21    22    1
    63     3     2    1
    64    79    74   am
    65   126   127    1
    66   128   130   ar
    67   128   127   ar
    68    74    73    1
    69     1     2    1
    70   130   132   ar
    71   127   129   ar
    72    23    22    2
    73     2     5    1
    74    61    62    1
    75    22    24   am
    76   112   111   ar
    77   108   107    2
    78    71    70    2
    79   132   133    1
    80   132   131   ar
    81   129   131   ar
    82    73    76    1
    83    73    72    1
    84    67    66    2
    85    62    64   am
    86    62    63    2
    87    77    76    1
    88    64    65    1
    89     5     6    1
    90    76    78    1
    91     8     7    2
    92   107   106    1
    93   111   113   ar
    94   111   110    1
    95    70    72   am
    96    70    69    1
    97     7     9   am
    98     7     6    1
    99    66    65    1
   100    66    68   am
   101   109   106    1
   102   109   110    1
   103   106   105    1
   104    69    68    1
   105    90    91    1
   106    94    95    1
   107    94    91    1
   108    97    95   ar
   109    95    96   ar
   110    91    92    1
   111   103   102    1
   112    35    34    2
   113    32    33    1
   114    98    92   am
   115    98    99    1
   116   104   102    1
   117    92    93    2
   118    52    51    2
   119    45    42    1
   120   101   100    2
   121    39    38   ar
   122   102    99    1
   123    34    33    1
   124    36    33    1
   125    36    37    1
   126    38    37    1
   127    38    40   ar
   128    48    47    1
   129    48    49    2
   130    99   100    1
   131    47    50    1
   132    47    46    1
   133    51    50    1
   134    51    53   am
   135    42    41    1
   136    42    43    1
   137    43    44    2
