@<TRIPOS>MOLECULE
tmp/5mlvH00.pdb
 161 155 0 0 0
SMALL
GASTEIGER

@<TRIPOS>ATOM
      1  N        140.9600   32.2010  234.8860 N.3    11  ARG11      -0.1231
      2  CA       141.5660   31.0290  234.2560 C.3    11  ARG11       0.1694
      3  C        140.4470   30.1960  233.6510 C.2    11  ARG11       0.2592
      4  O        139.6570   29.5980  234.3850 O.2    11  ARG11      -0.2718
      5  CB       142.3640   30.1980  235.2590 C.3    11  ARG11       0.0321
      6  CG       143.6310   30.8510  235.7730 C.3    11  ARG11       0.0489
      7  CD       144.3030   29.9790  236.8150 C.3    11  ARG11       0.2205
      8  NE       144.7950   28.7110  236.2820 N.pl3  11  ARG11      -0.0865
      9  CZ       144.2610   27.5230  236.5570 C.cat  11  ARG11       0.5346
     10  NH1      143.2050   27.4340  237.3530 N.pl3  11  ARG11       0.1354
     11  NH2      144.7780   26.4240  236.0280 N.pl3  11  ARG11       0.1354
     12  N        140.3860   30.1440  232.3230 N.am   12  VAL12      -0.1966
     13  CA       139.3200   29.4190  231.6400 C.3    12  VAL12       0.1727
     14  C        139.6650   27.9380  231.6230 C.2    12  VAL12       0.2616
     15  O        140.7870   27.5460  231.9570 O.2    12  VAL12      -0.2715
     16  CB       139.1050   29.9450  230.2110 C.3    12  VAL12       0.0290
     17  CG1      138.9450   31.4500  230.2210 C.3    12  VAL12       0.0023
     18  CG2      140.2390   29.5260  229.3110 C.3    12  VAL12       0.0023
     19  N        138.7040   27.1060  231.2490 N.am   13  ARG13      -0.1963
     20  CA       138.9460   25.6810  231.1030 C.3    13  ARG13       0.1729
     21  C        139.3920   25.3860  229.6740 C.2    13  ARG13       0.2616
     22  O        139.6660   26.2920  228.8850 O.2    13  ARG13      -0.2715
     23  CB       137.6970   24.8940  231.4720 C.3    13  ARG13       0.0348
     24  CG       136.5180   25.1770  230.5680 C.3    13  ARG13       0.0492
     25  CD       135.3190   24.3430  230.9590 C.3    13  ARG13       0.2205
     26  NE       134.1450   24.6740  230.1600 N.pl3  13  ARG13      -0.0865
     27  CZ       133.8580   24.1180  228.9880 C.cat  13  ARG13       0.5346
     28  NH1      134.6620   23.1980  228.4740 N.pl3  13  ARG13       0.1354
     29  NH2      132.7670   24.4790  228.3290 N.pl3  13  ARG13       0.1354
     30  N        139.4660   24.1070  229.3240 N.am   14  GLY14      -0.1955
     31  CA       139.8140   23.6850  227.9820 C.3    14  GLY14       0.1869
     32  C        138.6400   23.0060  227.3040 C.2    14  GLY14       0.2309
     33  O        137.8230   22.3500  227.9550 O.2    14  GLY14      -0.2863
     34  N        143.6720   27.7190  228.4480 N.3    61  PRO61      -0.2116
     35  CA       143.7880   26.3040  228.8270 C.3    61  PRO61       0.1372
     36  C        145.2350   25.8130  228.9180 C.2    61  PRO61       0.2244
     37  O        145.5910   24.7640  228.3810 O.2    61  PRO61      -0.2868
     38  CB       143.0160   25.5940  227.7090 C.3    61  PRO61       0.0268
     39  CG       143.1650   26.4960  226.5290 C.3    61  PRO61       0.0207
     40  CD       143.1810   27.8920  227.0690 C.3    61  PRO61       0.0892
     41  N        128.5220   27.3360  235.9000 N.3    94  THR94      -0.1203
     42  CA       128.5980   25.9340  236.2800 C.3    94  THR94       0.1994
     43  C        129.3250   25.1170  235.2180 C.2    94  THR94       0.2618
     44  O        129.2870   25.4230  234.0230 O.2    94  THR94      -0.2717
     45  CB       127.1950   25.3690  236.5190 C.3    94  THR94       0.1784
     46  OG1      127.2900   23.9900  236.8940 O.3    94  THR94      -0.2211
     47  CG2      126.3040   25.5230  235.2860 C.3    94  THR94       0.0376
     48  N        130.0300   24.0870  235.6790 N.am   95  GLY95      -0.1942
     49  CA       130.7630   23.2210  234.7800 C.3    95  GLY95       0.2014
     50  C        131.9790   23.8400  234.1350 C.2    95  GLY95       0.2640
     51  O        132.3620   23.4220  233.0410 O.2    95  GLY95      -0.2714
     52  N        132.6020   24.8290  234.7730 N.am   96  THR96      -0.1936
     53  CA       133.7750   25.4720  234.1960 C.3    96  THR96       0.2028
     54  C        135.0670   25.1870  234.9390 C.2    96  THR96       0.2643
     55  O        136.1270   25.2210  234.3200 O.2    96  THR96      -0.2714
     56  CB       133.5840   26.9920  234.1180 C.3    96  THR96       0.1808
     57  OG1      133.3720   27.5200  235.4320 O.3    96  THR96      -0.2208
     58  CG2      132.4060   27.3370  233.2290 C.3    96  THR96       0.0379
     59  N        135.0220   24.8990  236.2360 N.am   97  GLY97      -0.1939
     60  CA       136.2580   24.5860  236.9270 C.3    97  GLY97       0.2014
     61  C        136.4530   25.2440  238.2730 C.2    97  GLY97       0.2639
     62  O        137.5420   25.1720  238.8500 O.2    97  GLY97      -0.2714
     63  N        135.4130   25.8790  238.7960 N.am   98  LYS98      -0.1963
     64  CA       135.5610   26.5600  240.0710 C.3    98  LYS98       0.1728
     65  C        135.4140   25.6280  241.2660 C.2    98  LYS98       0.2617
     66  O        135.7140   26.0450  242.3870 O.2    98  LYS98      -0.2715
     67  CB       134.5630   27.7040  240.1580 C.3    98  LYS98       0.0311
     68  CG       133.1430   27.2590  240.0870 C.3    98  LYS98       0.0038
     69  CD       132.2470   28.4570  240.0020 C.3    98  LYS98       0.0206
     70  CE       130.8160   28.0270  239.9330 C.3    98  LYS98       0.1093
     71  NZ       130.5470   27.2670  238.6920 N.3    98  LYS98      -0.1314
     72  N        134.9580   24.3910  241.0650 N.am   99  THR99      -0.1937
     73  CA       135.1920   23.3670  242.0780 C.3    99  THR99       0.2028
     74  C        136.5640   22.7360  241.8840 C.2    99  THR99       0.2642
     75  O        137.2390   22.3990  242.8640 O.2    99  THR99      -0.2714
     76  CB       134.0820   22.3110  242.0380 C.3    99  THR99       0.1808
     77  OG1      132.8170   22.9600  242.2060 O.3    99  THR99      -0.2208
     78  CG2      134.2340   21.2870  243.1540 C.3    99  THR99       0.0379
     79  N        137.0130   22.6320  240.6300 N.am  100  TYR100     -0.1973
     80  CA       138.3860   22.2280  240.3490 C.3   100  TYR100      0.1639
     81  C        139.3930   23.2480  240.8630 C.2   100  TYR100      0.2290
     82  O        140.5310   22.8880  241.1820 O.2   100  TYR100     -0.2864
     83  CB       138.5640   22.0190  238.8460 C.3   100  TYR100      0.0560
     84  CG       139.9670   21.6430  238.4340 C.ar  100  TYR100     -0.0198
     85  CD1      140.4660   20.3700  238.6860 C.ar  100  TYR100     -0.0009
     86  CD2      140.7930   22.5600  237.7930 C.ar  100  TYR100     -0.0009
     87  CE1      141.7520   20.0190  238.3130 C.ar  100  TYR100      0.0417
     88  CE2      142.0810   22.2190  237.4150 C.ar  100  TYR100      0.0417
     89  CZ       142.5540   20.9470  237.6780 C.ar  100  TYR100      0.1957
     90  OH       143.8330   20.5980  237.3060 O.3   100  TYR100     -0.2866
     91  N        129.5290   16.5400  251.3620 N.3   204  ARG204     -0.1245
     92  CA       128.6370   17.4840  250.7050 C.3   204  ARG204      0.1563
     93  C        127.6690   16.7490  249.7810 C.2   204  ARG204      0.2260
     94  O        127.6890   15.5210  249.6590 O.2   204  ARG204     -0.2867
     95  CB       129.4320   18.5270  249.9270 C.3   204  ARG204      0.0307
     96  CG       130.1990   17.9620  248.7520 C.3   204  ARG204      0.0489
     97  CD       130.9450   19.0510  248.0090 C.3   204  ARG204      0.2205
     98  NE       130.0340   19.9920  247.3670 N.pl3 204  ARG204     -0.0865
     99  CZ       130.4080   21.1620  246.8600 C.cat 204  ARG204      0.5346
    100  NH1      131.6780   21.5340  246.9170 N.pl3 204  ARG204      0.1354
    101  NH2      129.5160   21.9610  246.2940 N.pl3 204  ARG204      0.1354
    102  N        127.1960   18.0260  233.7000 N.3   212  ASN212     -0.1240
    103  CA       128.2590   17.3640  234.4390 C.3   212  ASN212      0.1653
    104  C        127.6950   16.5440  235.5850 C.2   212  ASN212      0.2266
    105  O        126.6790   16.8950  236.1900 O.2   212  ASN212     -0.2867
    106  CB       129.2590   18.3680  234.9880 C.3   212  ASN212      0.1155
    107  CG       129.9940   19.0900  233.8980 C.2   212  ASN212      0.2627
    108  OD1      129.8240   20.2900  233.7150 O.2   212  ASN212     -0.2716
    109  ND2      130.8110   18.3580  233.1520 N.am  212  ASN212     -0.0877
    110  N        129.6700   16.0940  238.1430 N.3   214  LEU214     -0.1231
    111  CA       130.5990   16.4760  239.1930 C.3   214  LEU214      0.1693
    112  C        130.3520   17.9160  239.6170 C.2   214  LEU214      0.2593
    113  O        130.6860   18.3040  240.7420 O.2   214  LEU214     -0.2718
    114  CB       132.0380   16.2760  238.7140 C.3   214  LEU214      0.0284
    115  CG       133.1810   16.5030  239.6990 C.3   214  LEU214      0.0019
    116  CD1      132.9950   15.6090  240.9060 C.3   214  LEU214      0.0001
    117  CD2      134.5020   16.2020  239.0300 C.3   214  LEU214      0.0001
    118  N        129.7450   18.7060  238.7340 N.am  215  SER215     -0.1938
    119  CA       129.4370   20.1020  239.0360 C.3   215  SER215      0.2055
    120  C        128.3470   20.1270  240.0950 C.2   215  SER215      0.2643
    121  O        127.1650   19.9450  239.8030 O.2   215  SER215     -0.2714
    122  CB       129.0120   20.8470  237.7780 C.3   215  SER215      0.2130
    123  OG       127.7980   20.3300  237.2690 O.3   215  SER215     -0.2179
    124  N        128.7530   20.3480  241.3380 N.am  216  SER216     -0.1949
    125  CA       127.8820   20.1460  242.4850 C.3   216  SER216      0.1924
    126  C        126.9640   21.3490  242.6700 C.2   216  SER216      0.2314
    127  O        126.8670   22.2350  241.8180 O.2   216  SER216     -0.2863
    128  CB       128.7190   19.8790  243.7280 C.3   216  SER216      0.2116
    129  OG       129.4960   18.7100  243.5660 O.3   216  SER216     -0.2180
    130  N        134.1660   27.6270  248.2120 N.3   239  ASP239     -0.1225
    131  CA       133.6180   27.2450  246.9190 C.3   239  ASP239      0.1805
    132  C        132.2500   27.8940  246.7390 C.2   239  ASP239      0.2598
    133  O        131.5090   28.1070  247.7020 O.2   239  ASP239     -0.2718
    134  CB       133.4880   25.7240  246.8200 C.3   239  ASP239      0.1424
    135  CG       133.1550   25.2390  245.4160 C.2   239  ASP239      0.3668
    136  OD1      133.0990   26.0520  244.4720 O.co2 239  ASP239     -0.2456
    137  OD2      132.9250   24.0230  245.2610 O.co2 239  ASP239     -0.2456
    138  N        131.9190   28.2070  245.4880 N.am  240  LEU240     -0.1966
    139  CA       130.6020   28.7090  245.1260 C.3   240  LEU240      0.1728
    140  C        130.0450   27.8660  243.9920 C.2   240  LEU240      0.2616
    141  O        130.7940   27.3390  243.1690 O.2   240  LEU240     -0.2715
    142  CB       130.6480   30.1740  244.7070 C.3   240  LEU240      0.0311
    143  CG       131.0570   31.1320  245.8220 C.3   240  LEU240      0.0022
    144  CD1      131.2020   32.5440  245.2970 C.3   240  LEU240      0.0001
    145  CD2      130.0470   31.0810  246.9470 C.3   240  LEU240      0.0001
    146  N        128.7250   27.7330  243.9580 N.am  241  ALA241     -0.1963
    147  CA       128.0930   26.9130  242.9400 C.3   241  ALA241      0.1728
    148  C        127.8180   27.7550  241.6980 C.2   241  ALA241      0.2616
    149  O        128.1040   28.9530  241.6540 O.2   241  ALA241     -0.2715
    150  CB       126.8220   26.2660  243.4830 C.3   241  ALA241      0.0334
    151  N        127.2590   27.1210  240.6690 N.am  242  GLY242     -0.1955
    152  CA       127.1810   27.7410  239.3670 C.3   242  GLY242      0.1869
    153  C        125.9140   28.5340  239.1220 C.2   242  GLY242      0.2309
    154  O        124.8850   28.3350  239.7610 O.2   242  GLY242     -0.2863
    155  N        136.2820   31.6840  236.8090 N.3   309  THR309     -0.1218
    156  CA       136.5140   30.5530  235.9150 C.3   309  THR309      0.1862
    157  C        135.3210   30.4230  234.9760 C.2   309  THR309      0.2287
    158  O        134.2300   30.0290  235.3990 O.2   309  THR309     -0.2866
    159  CB       136.7230   29.2640  236.7060 C.3   309  THR309      0.1770
    160  OG1      137.8840   29.3880  237.5350 O.3   309  THR309     -0.2211
    161  CG2      136.9130   28.1010  235.7700 C.3   309  THR309      0.0375
@<TRIPOS>BOND
     1    39    40    1
     2    39    38    1
     3    40    34    1
     4    32    33    2
     5    32    31    1
     6    38    35    1
     7    31    30    1
     8    29    27    1
     9    37    36    2
    10    34    35    1
    11    28    27    1
    12    35    36    1
    13    22    21    2
    14    27    26    2
    15    18    16    1
    16    30    21   am
    17    21    20    1
    18    26    25    1
    19    16    17    1
    20    16    13    1
    21    24    25    1
    22    24    23    1
    23    20    19    1
    24    20    23    1
    25    19    14   am
    26    14    13    1
    27    14    15    2
    28    13    12    1
    29    12     3   am
    30    51    50    2
    31   109   107   am
    32    58    56    1
    33     3     2    1
    34     3     4    2
    35   102   103    1
    36   108   107    2
    37   107   106    1
    38    44    43    2
    39    56    53    1
    40    56    57    1
    41    50    52   am
    42    50    49    1
    43    53    52    1
    44    53    54    1
    45     2     1    1
    46     2     5    1
    47    55    54    2
    48   103   106    1
    49   103   104    1
    50    49    48    1
    51    54    59   am
    52   157   158    2
    53   157   156    1
    54    43    48   am
    55    43    42    1
    56     5     6    1
    57    47    45    1
    58   104   105    2
    59   161   159    1
    60     6     7    1
    61    41    42    1
    62   156   159    1
    63   156   155    1
    64    11     9    1
    65    59    60    1
    66    42    45    1
    67     8     9    2
    68     8     7    1
    69    45    46    1
    70     9    10    1
    71   159   160    1
    72    60    61    1
    73   123   122    1
    74    90    89    1
    75    88    89   ar
    76    88    86   ar
    77    89    87   ar
    78   122   119    1
    79    86    84   ar
    80   110   111    1
    81    61    63   am
    82    61    62    2
    83    87    85   ar
    84    84    85   ar
    85    84    83    1
    86    71    70    1
    87   114   111    1
    88   114   115    1
    89   118   119    1
    90   118   112   am
    91    63    64    1
    92    83    80    1
    93   117   115    1
    94   119   120    1
    95   153   152    1
    96   153   154    2
    97   111   112    1
    98   152   151    1
    99   112   113    2
   100   115   116    1
   101   121   120    2
   102    70    69    1
   103    69    68    1
   104    64    67    1
   105    64    65    1
   106    68    67    1
   107   120   124   am
   108    80    79    1
   109    80    81    1
   110    79    74   am
   111   151   148   am
   112    81    82    2
   113    72    65   am
   114    72    73    1
   115    65    66    2
   116   124   125    1
   117   149   148    2
   118   148   147    1
   119   127   126    2
   120    74    73    1
   121    74    75    2
   122    76    73    1
   123    76    77    1
   124    76    78    1
   125   125   126    1
   126   125   128    1
   127   147   150    1
   128   147   146    1
   129   141   140    2
   130   129   128    1
   131   146   140   am
   132   140   139    1
   133   136   135   ar
   134   142   139    1
   135   142   143    1
   136   139   138    1
   137   137   135   ar
   138   144   143    1
   139   135   134    1
   140   138   132   am
   141   143   145    1
   142   101    99    1
   143   132   131    1
   144   132   133    2
   145   134   131    1
   146    99   100    1
   147    99    98    2
   148   131   130    1
   149    98    97    1
   150    97    96    1
   151    96    95    1
   152    94    93    2
   153    93    92    1
   154    95    92    1
   155    92    91    1
