@<TRIPOS>MOLECULE
tmp/5mlvR02.pdb
 155 147 0 0 0
SMALL
GASTEIGER

@<TRIPOS>ATOM
      1  N         87.8350   55.9170  263.1330 N.3   211  PHE211     -0.1241
      2  CA        86.5410   56.1110  263.7730 C.3   211  PHE211      0.1605
      3  C         86.4020   57.4980  264.3700 C.2   211  PHE211      0.2264
      4  O         85.2780   57.9830  264.5340 O.2   211  PHE211     -0.2867
      5  CB        86.3230   55.0710  264.8670 C.3   211  PHE211      0.0534
      6  CG        86.1210   53.6780  264.3590 C.ar  211  PHE211     -0.0203
      7  CD1       85.8270   53.4310  263.0380 C.ar  211  PHE211     -0.0042
      8  CD2       86.2180   52.6070  265.2160 C.ar  211  PHE211     -0.0042
      9  CE1       85.6480   52.1430  262.5960 C.ar  211  PHE211     -0.0003
     10  CE2       86.0290   51.3200  264.7730 C.ar  211  PHE211     -0.0003
     11  CZ        85.7450   51.0900  263.4620 C.ar  211  PHE211     -0.0000
     12  N         84.0550   57.9770  260.5690 N.3   215  LEU215     -0.1245
     13  CA        82.7500   57.4880  260.9850 C.3   215  LEU215      0.1561
     14  C         82.1660   58.2690  262.1480 C.2   215  LEU215      0.2260
     15  O         80.9650   58.1370  262.4050 O.2   215  LEU215     -0.2867
     16  CB        82.8260   56.0100  261.3520 C.3   215  LEU215      0.0270
     17  CG        82.9720   55.0500  260.1850 C.3   215  LEU215      0.0019
     18  CD1       83.0990   53.6600  260.6890 C.3   215  LEU215      0.0001
     19  CD2       81.7460   55.1410  259.3650 C.3   215  LEU215      0.0001
     20  N         82.5020   57.9290  265.3670 N.3   217  ILE217     -0.1245
     21  CA        82.1920   57.1870  266.5830 C.3   217  ILE217      0.1561
     22  C         83.3960   57.2790  267.5070 C.2   217  ILE217      0.2260
     23  O         84.5080   56.8920  267.1290 O.2   217  ILE217     -0.2867
     24  CB        81.8280   55.7230  266.3000 C.3   217  ILE217      0.0252
     25  CG1       80.4630   55.6190  265.6320 C.3   217  ILE217      0.0019
     26  CG2       81.8290   54.9130  267.5760 C.3   217  ILE217      0.0019
     27  CD1       80.5130   55.4550  264.1620 C.3   217  ILE217      0.0001
     28  N         84.0070   45.6910  267.1380 N.3   224  ASP224     -0.1239
     29  CA        83.7310   46.6020  266.0400 C.3   224  ASP224      0.1674
     30  C         84.9900   46.8870  265.2450 C.2   224  ASP224      0.2266
     31  O         84.9300   47.0550  264.0240 O.2   224  ASP224     -0.2867
     32  CB        83.1540   47.8990  266.5830 C.3   224  ASP224      0.1410
     33  CG        81.8940   47.6720  267.3660 C.2   224  ASP224      0.3668
     34  OD1       81.1990   46.6760  267.0750 O.co2 224  ASP224     -0.2456
     35  OD2       81.6060   48.4730  268.2790 O.co2 224  ASP224     -0.2456
     36  N         86.1110   44.0500  263.1000 N.3   227  HIS227     -0.1226
     37  CA        85.1960   43.9470  261.9740 C.3   227  HIS227      0.1752
     38  C         85.6780   44.7500  260.7810 C.2   227  HIS227      0.2595
     39  O         85.3590   44.4030  259.6410 O.2   227  HIS227     -0.2718
     40  CB        83.8130   44.4230  262.3880 C.3   227  HIS227      0.0759
     41  CG        82.7680   44.2200  261.3410 C.ar  227  HIS227      0.0818
     42  ND1       82.1810   42.9970  261.1040 N.ar  227  HIS227     -0.2268
     43  CD2       82.2120   45.0800  260.4580 C.ar  227  HIS227      0.1154
     44  CE1       81.2980   43.1150  260.1300 C.ar  227  HIS227      0.1986
     45  NE2       81.2980   44.3690  259.7190 N.ar  227  HIS227     -0.2212
     46  N         86.4580   45.8000  261.0150 N.am  228  LEU228     -0.1980
     47  CA        86.9060   46.6270  259.9080 C.3   228  LEU228      0.1596
     48  C         88.0830   46.0130  259.1720 C.2   228  LEU228      0.2287
     49  O         88.1920   46.1960  257.9560 O.2   228  LEU228     -0.2864
     50  CB        87.2570   48.0300  260.4040 C.3   228  LEU228      0.0297
     51  CG        87.5600   49.1090  259.3600 C.3   228  LEU228      0.0022
     52  CD1       86.9620   50.4080  259.7840 C.3   228  LEU228      0.0001
     53  CD2       89.0530   49.3130  259.1850 C.3   228  LEU228      0.0001
     54  N         87.5730   43.7310  256.0720 N.3   231  ALA231     -0.1245
     55  CA        87.4960   44.2240  254.7070 C.3   231  ALA231      0.1562
     56  C         88.7260   43.8010  253.9160 C.2   231  ALA231      0.2260
     57  O         88.6220   43.0670  252.9290 O.2   231  ALA231     -0.2867
     58  CB        87.3490   45.7420  254.7060 C.3   231  ALA231      0.0290
     59  N         91.7330   51.4320  252.8640 N.3   270  PHE270     -0.1241
     60  CA        90.4270   50.9680  252.4290 C.3   270  PHE270      0.1605
     61  C         89.5550   52.1660  252.0920 C.2   270  PHE270      0.2264
     62  O         89.7000   53.2390  252.6810 O.2   270  PHE270     -0.2867
     63  CB        89.7550   50.1060  253.4950 C.3   270  PHE270      0.0534
     64  CG        88.4600   49.5130  253.0500 C.ar  270  PHE270     -0.0203
     65  CD1       88.4420   48.4360  252.1900 C.ar  270  PHE270     -0.0042
     66  CD2       87.2590   50.0520  253.4650 C.ar  270  PHE270     -0.0042
     67  CE1       87.2480   47.8910  251.7680 C.ar  270  PHE270     -0.0003
     68  CE2       86.0630   49.5120  253.0460 C.ar  270  PHE270     -0.0003
     69  CZ        86.0600   48.4290  252.1970 C.ar  270  PHE270     -0.0000
     70  N         85.3800   52.8420  249.9200 N.3   272  PRO272     -0.2102
     71  CA        84.9110   54.0030  250.6700 C.3   272  PRO272      0.1504
     72  C         84.4560   53.6000  252.0440 C.2   272  PRO272      0.2576
     73  O         84.2560   52.4160  252.2860 O.2   272  PRO272     -0.2718
     74  CB        83.7240   54.4880  249.8560 C.3   272  PRO272      0.0282
     75  CG        83.1720   53.2570  249.2860 C.3   272  PRO272      0.0208
     76  CD        84.3440   52.3570  248.9960 C.3   272  PRO272      0.0893
     77  N         84.2870   54.5820  252.9230 N.am  273  LEU273     -0.1966
     78  CA        83.6780   54.3650  254.2270 C.3   273  LEU273      0.1728
     79  C         83.1970   55.7060  254.7400 C.2   273  LEU273      0.2616
     80  O         83.9360   56.6900  254.6820 O.2   273  LEU273     -0.2715
     81  CB        84.6600   53.6970  255.2030 C.3   273  LEU273      0.0311
     82  CG        86.0630   54.2460  255.4520 C.3   273  LEU273      0.0022
     83  CD1       86.1250   55.2060  256.6070 C.3   273  LEU273      0.0001
     84  CD2       87.0060   53.0930  255.6830 C.3   273  LEU273      0.0001
     85  N         81.9570   55.7470  255.2080 N.am  274  ALA274     -0.1963
     86  CA        81.3860   56.9890  255.7000 C.3   274  ALA274      0.1728
     87  C         80.2560   56.6570  256.6550 C.2   274  ALA274      0.2616
     88  O         79.6430   55.5920  256.5710 O.2   274  ALA274     -0.2715
     89  CB        80.8810   57.8730  254.5560 C.3   274  ALA274      0.0334
     90  N         80.0040   57.5790  257.5810 N.am  275  ALA275     -0.1963
     91  CA        78.9230   57.4120  258.5370 C.3   275  ALA275      0.1728
     92  C         77.5810   57.6200  257.8510 C.2   275  ALA275      0.2616
     93  O         77.4980   58.0040  256.6820 O.2   275  ALA275     -0.2715
     94  CB        79.0830   58.3830  259.6990 C.3   275  ALA275      0.0334
     95  N         76.5070   57.3790  258.6040 N.am  276  ILE276     -0.1977
     96  CA        75.1750   57.5140  258.0370 C.3   276  ILE276      0.1596
     97  C         74.8420   58.9670  257.7440 C.2   276  ILE276      0.2287
     98  O         74.0220   59.2450  256.8630 O.2   276  ILE276     -0.2864
     99  CB        74.1480   56.8430  258.9690 C.3   276  ILE276      0.0276
    100  CG1       74.1880   57.4170  260.3920 C.3   276  ILE276      0.0022
    101  CG2       74.4040   55.3530  259.0240 C.3   276  ILE276      0.0022
    102  CD1       73.1550   58.5070  260.6930 C.3   276  ILE276      0.0001
    103  N         76.5550   59.5020  254.5350 N.3   279  SER279     -0.1202
    104  CA        76.2330   58.3910  253.6540 C.3   279  SER279      0.2020
    105  C         75.7620   58.8430  252.2850 C.2   279  SER279      0.2619
    106  O         76.4440   58.6150  251.2830 O.2   279  SER279     -0.2717
    107  CB        75.1550   57.5290  254.2940 C.3   279  SER279      0.2103
    108  OG        73.9570   58.2690  254.4150 O.3   279  SER279     -0.2182
    109  N         74.6160   59.5120  252.2370 N.am  280  SER280     -0.1951
    110  CA        74.0120   59.8200  250.9500 C.3   280  SER280      0.1924
    111  C         74.7180   60.9710  250.2550 C.2   280  SER280      0.2314
    112  O         74.7230   61.0360  249.0230 O.2   280  SER280     -0.2863
    113  CB        72.5320   60.1380  251.1370 C.3   280  SER280      0.2116
    114  OG        71.8490   59.0170  251.6640 O.3   280  SER280     -0.2180
    115  N         77.9150   61.5320  250.2070 N.3   282  GLN282     -0.1245
    116  CA        78.9830   60.9130  249.4480 C.3   282  GLN282      0.1566
    117  C         78.4270   60.4270  248.1170 C.2   282  GLN282      0.2260
    118  O         77.2650   60.0240  248.0150 O.2   282  GLN282     -0.2867
    119  CB        79.5670   59.7410  250.2420 C.3   282  GLN282      0.0367
    120  CG        80.8150   59.0930  249.6700 C.3   282  GLN282      0.0905
    121  CD        82.0350   59.9690  249.7780 C.2   282  GLN282      0.2608
    122  OE1       82.4840   60.5470  248.7990 O.2   282  GLN282     -0.2717
    123  NE2       82.5910   60.0590  250.9760 N.am  282  GLN282     -0.0878
    124  N         79.7120   57.7660  244.7950 N.3   284  VAL284     -0.1245
    125  CA        80.5920   56.6180  244.6510 C.3   284  VAL284      0.1561
    126  C         81.1720   56.6310  243.2470 C.2   284  VAL284      0.2260
    127  O         80.5780   56.0920  242.3070 O.2   284  VAL284     -0.2867
    128  CB        79.8430   55.3080  244.9350 C.3   284  VAL284      0.0252
    129  CG1       80.7960   54.1360  244.8850 C.3   284  VAL284      0.0019
    130  CG2       79.1400   55.3780  246.2760 C.3   284  VAL284      0.0019
    131  N         75.4100   45.8030  250.0200 N.3   360  ASP360     -0.1225
    132  CA        74.9530   47.1180  250.4890 C.3   360  ASP360      0.1805
    133  C         75.9050   48.2420  250.0620 C.2   360  ASP360      0.2598
    134  O         76.0060   49.2780  250.7240 O.2   360  ASP360     -0.2718
    135  CB        74.7410   47.1090  252.0160 C.3   360  ASP360      0.1424
    136  CG        73.8130   48.2110  252.5050 C.2   360  ASP360      0.3668
    137  OD1       73.3210   49.0060  251.6790 O.co2 360  ASP360     -0.2456
    138  OD2       73.5770   48.2800  253.7270 O.co2 360  ASP360     -0.2456
    139  N         76.6270   48.0490  248.9620 N.am  361  LEU361     -0.1966
    140  CA        77.5810   49.0210  248.4510 C.3   361  LEU361      0.1728
    141  C         77.5240   48.9860  246.9360 C.2   361  LEU361      0.2616
    142  O         77.0220   48.0290  246.3450 O.2   361  LEU361     -0.2715
    143  CB        79.0180   48.7300  248.9050 C.3   361  LEU361      0.0311
    144  CG        79.3660   48.8110  250.3910 C.3   361  LEU361      0.0022
    145  CD1       80.7960   48.3600  250.6330 C.3   361  LEU361      0.0001
    146  CD2       79.1620   50.2110  250.9000 C.3   361  LEU361      0.0001
    147  N         78.0450   50.0300  246.3080 N.am  362  LYS362     -0.1977
    148  CA        78.0590   50.0220  244.8560 C.3   362  LYS362      0.1596
    149  C         79.4420   49.7110  244.3020 C.2   362  LYS362      0.2287
    150  O         79.5690   48.9350  243.3520 O.2   362  LYS362     -0.2864
    151  CB        77.5520   51.3600  244.3250 C.3   362  LYS362      0.0298
    152  CG        77.4250   51.4120  242.8190 C.3   362  LYS362      0.0038
    153  CD        76.3430   50.4660  242.3280 C.3   362  LYS362      0.0206
    154  CE        76.0920   50.6380  240.8370 C.3   362  LYS362      0.1093
    155  NZ        77.2570   50.2170  240.0130 N.3   362  LYS362     -0.1314
@<TRIPOS>BOND
     1   155   154    1
     2   154   153    1
     3   127   126    2
     4   153   152    1
     5   152   151    1
     6   126   125    1
     7   150   149    2
     8   149   148    1
     9   151   148    1
    10   125   124    1
    11   125   128    1
    12   148   147    1
    13   129   128    1
    14   128   130    1
    15   147   141   am
    16   142   141    2
    17   141   140    1
    18   118   117    2
    19   117   116    1
    20   140   143    1
    21   140   139    1
    22   122   121    2
    23   143   144    1
    24   139   133   am
    25    76    75    1
    26    76    70    1
    27   112   111    2
    28    75    74    1
    29   116   115    1
    30   116   119    1
    31   120   121    1
    32   120   119    1
    33   121   123   am
    34    74    71    1
    35    70    71    1
    36   131   132    1
    37   133   132    1
    38   133   134    2
    39   111   110    1
    40   144   145    1
    41   144   146    1
    42   132   135    1
    43    71    72    1
    44   110   113    1
    45   110   109    1
    46   113   114    1
    47   106   105    2
    48   137   136   ar
    49    67    65   ar
    50    67    69   ar
    51   135   136    1
    52    72    73    2
    53    72    77   am
    54    61    60    1
    55    61    62    2
    56    65    64   ar
    57    69    68   ar
    58   109   105   am
    59   105   104    1
    60    60    59    1
    61    60    63    1
    62   136   138   ar
    63    77    78    1
    64    57    56    2
    65    68    66   ar
    66    64    66   ar
    67    64    63    1
    68   104   107    1
    69   104   103    1
    70    56    55    1
    71    78    79    1
    72    78    81    1
    73   107   108    1
    74    89    86    1
    75    80    79    2
    76    58    55    1
    77    55    54    1
    78    79    85   am
    79    81    82    1
    80    85    86    1
    81    82    84    1
    82    82    83    1
    83    86    87    1
    84    88    87    2
    85    87    90   am
    86    93    92    2
    87    98    97    2
    88    90    91    1
    89    97    96    1
    90    92    91    1
    91    92    95   am
    92    49    48    2
    93    96    95    1
    94    96    99    1
    95    91    94    1
    96    99   101    1
    97    99   100    1
    98    48    47    1
    99    53    51    1
   100    51    52    1
   101    51    50    1
   102    19    17    1
   103    39    38    2
   104    45    44   ar
   105    45    43   ar
   106    47    50    1
   107    47    46    1
   108    44    42   ar
   109    17    18    1
   110    17    16    1
   111   100   102    1
   112    43    41   ar
   113    12    13    1
   114    38    46   am
   115    38    37    1
   116    13    16    1
   117    13    14    1
   118    42    41   ar
   119    41    40    1
   120    37    40    1
   121    37    36    1
   122    14    15    2
   123     9     7   ar
   124     9    11   ar
   125     7     6   ar
   126     1     2    1
   127    11    10   ar
   128     2     3    1
   129     2     5    1
   130    31    30    2
   131    27    25    1
   132     6     5    1
   133     6     8   ar
   134     3     4    2
   135    10     8   ar
   136    30    29    1
   137    20    21    1
   138    25    24    1
   139    29    32    1
   140    29    28    1
   141    24    21    1
   142    24    26    1
   143    32    33    1
   144    21    22    1
   145    34    33   ar
   146    23    22    2
   147    33    35   ar
