@<TRIPOS>MOLECULE
tmp/5mlzA00.pdb
 182 173 0 0 0
SMALL
GASTEIGER

@<TRIPOS>ATOM
      1  N          1.0020   30.6980   -5.2260 N.3    11  PRO11      -0.2102
      2  CA         0.4590   29.9400   -6.3550 C.3    11  PRO11       0.1504
      3  C         -0.7250   29.0870   -5.9200 C.2    11  PRO11       0.2576
      4  O         -0.6480   28.3870   -4.9100 O.2    11  PRO11      -0.2718
      5  CB         1.6420   29.0760   -6.8000 C.3    11  PRO11       0.0282
      6  CG         2.5790   29.0270   -5.6090 C.3    11  PRO11       0.0208
      7  CD         2.0890   29.9720   -4.5510 C.3    11  PRO11       0.0893
      8  N         -1.8180   29.1570   -6.6730 N.am   12  THR12      -0.1939
      9  CA        -3.0460   28.4890   -6.2720 C.3    12  THR12       0.2028
     10  C         -3.6700   27.6590   -7.3840 C.2    12  THR12       0.2642
     11  O         -3.8030   28.1110   -8.5210 O.2    12  THR12      -0.2714
     12  CB        -4.1000   29.5040   -5.7800 C.3    12  THR12       0.1808
     13  OG1       -4.2350   30.5600   -6.7410 O.3    12  THR12      -0.2208
     14  CG2       -3.6910   30.0950   -4.4410 C.3    12  THR12       0.0379
     15  N         -4.0280   26.4290   -7.0440 N.am   13  TYR13      -0.1973
     16  CA        -4.9390   25.6430   -7.8590 C.3    13  TYR13       0.1639
     17  C         -5.9250   25.0010   -6.9190 C.2    13  TYR13       0.2290
     18  O         -5.5490   24.2350   -6.0380 O.2    13  TYR13      -0.2864
     19  CB        -4.2220   24.5810   -8.6840 C.3    13  TYR13       0.0560
     20  CG        -5.0640   24.0460   -9.8260 C.ar   13  TYR13      -0.0198
     21  CD1       -5.9550   22.9930   -9.6340 C.ar   13  TYR13      -0.0009
     22  CD2       -4.9640   24.5930  -11.0980 C.ar   13  TYR13      -0.0009
     23  CE1       -6.7220   22.5040  -10.6820 C.ar   13  TYR13       0.0417
     24  CE2       -5.7230   24.1110  -12.1490 C.ar   13  TYR13       0.0417
     25  CZ        -6.6000   23.0670  -11.9370 C.ar   13  TYR13       0.1957
     26  OH        -7.3550   22.5910  -12.9860 O.3    13  TYR13      -0.2866
     27  N         -7.5420   26.3980   -4.4380 N.3    15  GLU15      -0.1245
     28  CA        -7.3150   26.7950   -3.0520 C.3    15  GLU15       0.1567
     29  C         -8.3620   27.8250   -2.6190 C.2    15  GLU15       0.2260
     30  O         -8.2490   29.0150   -2.8960 O.2    15  GLU15      -0.2867
     31  CB        -5.8890   27.3150   -2.8760 C.3    15  GLU15       0.0388
     32  CG        -4.8380   26.2430   -3.1860 C.3    15  GLU15       0.1160
     33  CD        -4.6850   25.2570   -2.0410 C.2    15  GLU15       0.3649
     34  OE1       -5.3710   25.4400   -1.0140 O.co2  15  GLU15      -0.2457
     35  OE2       -3.8850   24.3080   -2.1560 O.co2  15  GLU15      -0.2457
     36  N         -1.3780   33.8000   -7.8930 N.3    40  VAL40      -0.1245
     37  CA        -1.2640   33.3480   -9.2740 C.3    40  VAL40       0.1561
     38  C         -2.0280   32.0430   -9.4660 C.2    40  VAL40       0.2260
     39  O         -1.5920   30.9790   -9.0210 O.2    40  VAL40      -0.2867
     40  CB         0.2030   33.1570   -9.6940 C.3    40  VAL40       0.0252
     41  CG1        0.2830   32.7730  -11.1640 C.3    40  VAL40       0.0019
     42  CG2        0.9940   34.4290   -9.4330 C.3    40  VAL40       0.0019
     43  N         -4.1200   29.3750  -12.1320 N.3    42  ASP42      -0.1239
     44  CA        -4.1230   28.9430  -13.5240 C.3    42  ASP42       0.1674
     45  C         -5.5210   28.5860  -14.0050 C.2    42  ASP42       0.2266
     46  O         -5.7600   27.4550  -14.4350 O.2    42  ASP42      -0.2867
     47  CB        -3.2000   27.7450  -13.7170 C.3    42  ASP42       0.1410
     48  CG        -1.8330   27.9610  -13.1160 C.2    42  ASP42       0.3668
     49  OD1       -1.4750   29.1230  -12.8400 O.co2  42  ASP42      -0.2456
     50  OD2       -1.1100   26.9620  -12.9400 O.co2  42  ASP42      -0.2456
     51  N          0.1740   26.4190  -17.2410 N.3    70  LYS70      -0.1231
     52  CA        -0.0060   25.7010  -15.9950 C.3    70  LYS70       0.1693
     53  C          1.3330   25.2760  -15.3980 C.2    70  LYS70       0.2593
     54  O          2.3390   25.2660  -16.0840 O.2    70  LYS70      -0.2718
     55  CB        -0.9260   24.5080  -16.1890 C.3    70  LYS70       0.0285
     56  CG        -2.3450   24.7650  -15.7340 C.3    70  LYS70       0.0035
     57  CD        -3.3620   24.1100  -16.6470 C.3    70  LYS70       0.0206
     58  CE        -4.7570   24.6940  -16.4620 C.3    70  LYS70       0.1093
     59  NZ        -4.9970   25.9150  -17.2770 N.3    70  LYS70      -0.1314
     60  N          1.3530   24.9670  -14.1130 N.am   71  GLY71      -0.1942
     61  CA         2.5950   24.5460  -13.4870 C.3    71  GLY71       0.2014
     62  C          2.9650   25.4050  -12.2900 C.2    71  GLY71       0.2638
     63  O          2.8670   26.6310  -12.3410 O.2    71  GLY71      -0.2714
     64  N          3.4020   24.7560  -11.2130 N.am   72  LEU72      -0.1977
     65  CA         3.7180   25.4400   -9.9590 C.3    72  LEU72       0.1596
     66  C          4.8690   26.4360  -10.0940 C.2    72  LEU72       0.2287
     67  O          4.7170   27.6160   -9.7730 O.2    72  LEU72      -0.2864
     68  CB         4.0500   24.4140   -8.8710 C.3    72  LEU72       0.0297
     69  CG         4.5570   24.9560   -7.5330 C.3    72  LEU72       0.0022
     70  CD1        3.5740   25.9480   -6.9500 C.3    72  LEU72       0.0001
     71  CD2        4.8040   23.8190   -6.5580 C.3    72  LEU72       0.0001
     72  N          4.1210   29.4080  -12.1850 N.3    75  ALA75      -0.1245
     73  CA         3.3050   30.4030  -11.4980 C.3    75  ALA75       0.1562
     74  C          4.1670   31.3340  -10.6560 C.2    75  ALA75       0.2260
     75  O          3.9390   32.5440  -10.6180 O.2    75  ALA75      -0.2867
     76  CB         2.2590   29.7210  -10.6300 C.3    75  ALA75       0.0290
     77  N          2.9650   28.3450    0.1430 N.3    92  ASP92      -0.1225
     78  CA         1.7630   27.6280   -0.2720 C.3    92  ASP92       0.1805
     79  C          0.5250   28.2620    0.3590 C.2    92  ASP92       0.2598
     80  O          0.6380   29.0740    1.2760 O.2    92  ASP92      -0.2718
     81  CB         1.8510   26.1480    0.1110 C.3    92  ASP92       0.1424
     82  CG         3.0470   25.4510   -0.5120 C.2    92  ASP92       0.3668
     83  OD1        3.5500   25.9340   -1.5490 O.co2  92  ASP92      -0.2456
     84  OD2        3.4730   24.4050    0.0260 O.co2  92  ASP92      -0.2456
     85  N         -0.6540   27.8780   -0.1210 N.am   93  ALA93      -0.1966
     86  CA        -1.8960   28.5280    0.2970 C.3    93  ALA93       0.1728
     87  C         -2.6770   27.7430    1.3520 C.2    93  ALA93       0.2616
     88  O         -3.6120   28.2710    1.9540 O.2    93  ALA93      -0.2715
     89  CB        -2.7810   28.7770   -0.9170 C.3    93  ALA93       0.0334
     90  N         -2.3590   26.5610    1.5950 N.am   94  ASP94      -0.1971
     91  CA        -3.0700   25.5930    2.4290 C.3    94  ASP94       0.1709
     92  C         -2.7130   25.6500    3.9080 C.2    94  ASP94       0.2293
     93  O         -3.0370   24.7280    4.6600 O.2    94  ASP94      -0.2864
     94  CB        -2.8100   24.1810    1.9220 C.3    94  ASP94       0.1436
     95  CG        -1.3380   23.8000    1.9720 C.2    94  ASP94       0.3671
     96  OD1       -0.5870   24.3860    2.7800 O.co2  94  ASP94      -0.2456
     97  OD2       -0.9330   22.9010    1.2030 O.co2  94  ASP94      -0.2456
     98  N          0.0260   24.9420    5.3250 N.3    96  GLN96      -0.1245
     99  CA         1.1200   24.0600    5.7160 C.3    96  GLN96       0.1566
    100  C          2.3550   24.9170    5.9840 C.2    96  GLN96       0.2260
    101  O          3.1580   24.6170    6.8680 O.2    96  GLN96      -0.2867
    102  CB         1.3940   23.0070    4.6430 C.3    96  GLN96       0.0367
    103  CG         0.2100   22.0850    4.3880 C.3    96  GLN96       0.0905
    104  CD         0.6190   20.7380    3.8300 C.2    96  GLN96       0.2608
    105  OE1        0.5690   20.5130    2.6210 O.2    96  GLN96      -0.2717
    106  NE2        1.0210   19.8300    4.7120 N.am   96  GLN96      -0.0878
    107  N          7.9890    8.4350    4.7860 N.3   134  ARG134     -0.1245
    108  CA         7.8930    9.6230    3.9440 C.3   134  ARG134      0.1563
    109  C          9.0000   10.6140    4.2910 C.2   134  ARG134      0.2260
    110  O          9.5060   11.3210    3.4210 O.2   134  ARG134     -0.2867
    111  CB         6.5190   10.2890    4.0830 C.3   134  ARG134      0.0307
    112  CG         6.3680   11.5500    3.2370 C.3   134  ARG134      0.0489
    113  CD         5.1680   12.4000    3.6330 C.3   134  ARG134      0.2205
    114  NE         5.1600   13.6660    2.9020 N.pl3 134  ARG134     -0.0865
    115  CZ         4.1790   14.5620    2.9570 C.cat 134  ARG134      0.5346
    116  NH1        3.1180   14.3450    3.7220 N.pl3 134  ARG134      0.1354
    117  NH2        4.2660   15.6840    2.2540 N.pl3 134  ARG134      0.1354
    118  N          8.6530   21.9150  -10.1320 N.3   180  PHE180     -0.1241
    119  CA         7.9910   22.3420   -8.9070 C.3   180  PHE180      0.1605
    120  C          8.9770   23.0100   -7.9550 C.2   180  PHE180      0.2264
    121  O          8.6400   23.9800   -7.2750 O.2   180  PHE180     -0.2867
    122  CB         7.3270   21.1490   -8.2170 C.3   180  PHE180      0.0534
    123  CG         6.6180   20.2200   -9.1610 C.ar  180  PHE180     -0.0203
    124  CD1        5.3190   20.4800   -9.5650 C.ar  180  PHE180     -0.0042
    125  CD2        7.2530   19.0870   -9.6470 C.ar  180  PHE180     -0.0042
    126  CE1        4.6660   19.6270  -10.4350 C.ar  180  PHE180     -0.0003
    127  CE2        6.6040   18.2310  -10.5180 C.ar  180  PHE180     -0.0003
    128  CZ         5.3090   18.5010  -10.9120 C.ar  180  PHE180     -0.0000
    129  N          6.3950   22.3530    9.3870 N.3   202  PHE202     -0.1241
    130  CA         5.5620   22.0710    8.2250 C.3   202  PHE202      0.1605
    131  C          4.2560   21.4510    8.7070 C.2   202  PHE202      0.2264
    132  O          4.1960   20.2600    9.0120 O.2   202  PHE202     -0.2867
    133  CB         6.2890   21.1470    7.2470 C.3   202  PHE202      0.0534
    134  CG         5.6150   21.0230    5.9100 C.ar  202  PHE202     -0.0203
    135  CD1        5.5770   22.1000    5.0380 C.ar  202  PHE202     -0.0042
    136  CD2        5.0350   19.8280    5.5180 C.ar  202  PHE202     -0.0042
    137  CE1        4.9640   21.9890    3.8040 C.ar  202  PHE202     -0.0003
    138  CE2        4.4220   19.7110    4.2850 C.ar  202  PHE202     -0.0003
    139  CZ         4.3860   20.7930    3.4270 C.ar  202  PHE202     -0.0000
    140  N         -2.1710   20.2410    6.4840 N.3   205  ARG205     -0.1245
    141  CA        -3.0350   20.9330    5.5570 C.3   205  ARG205      0.1563
    142  C         -4.3840   20.9320    6.1890 C.2   205  ARG205      0.2260
    143  O         -4.8170   19.9200    6.7110 O.2   205  ARG205     -0.2867
    144  CB        -3.1230   20.1920    4.2400 C.3   205  ARG205      0.0307
    145  CG        -4.1370   20.7380    3.2620 C.3   205  ARG205      0.0489
    146  CD        -3.8970   20.1250    1.8970 C.3   205  ARG205      0.2205
    147  NE        -4.7100   20.6850    0.8350 N.pl3 205  ARG205     -0.0865
    148  CZ        -4.2520   21.4660   -0.1310 C.cat 205  ARG205      0.5346
    149  NH1       -2.9820   21.8110   -0.1700 N.pl3 205  ARG205      0.1354
    150  NH2       -5.0700   21.9100   -1.0600 N.pl3 205  ARG205      0.1354
    151  N         -4.9380   17.5370   -2.1760 N.3   210  SER210     -0.1202
    152  CA        -3.5300   17.7300   -2.5060 C.3   210  SER210      0.2020
    153  C         -3.3480   17.5090   -4.0060 C.2   210  SER210      0.2619
    154  O         -3.9360   16.5880   -4.5700 O.2   210  SER210     -0.2717
    155  CB        -2.6410   16.7800   -1.7010 C.3   210  SER210      0.2103
    156  OG        -1.2870   16.8800   -2.1070 O.3   210  SER210     -0.2182
    157  N         -2.6090   18.4220   -4.6150 N.am  211  LYS211     -0.1965
    158  CA        -2.4140   18.4500   -6.0370 C.3   211  LYS211      0.1728
    159  C         -1.0550   17.9430   -6.5260 C.2   211  LYS211      0.2616
    160  O         -0.8580   17.8080   -7.7140 O.2   211  LYS211     -0.2715
    161  CB        -2.6290   19.8750   -6.5320 C.3   211  LYS211      0.0311
    162  CG        -4.0800   20.2910   -6.7620 C.3   211  LYS211      0.0038
    163  CD        -4.8000   20.7480   -5.5020 C.3   211  LYS211      0.0206
    164  CE        -4.1770   22.0080   -4.9230 C.3   211  LYS211      0.1093
    165  NZ        -4.4420   22.1790   -3.4660 N.3   211  LYS211     -0.1314
    166  N         -0.1240   17.6620   -5.6230 N.am  212  LEU212     -0.1963
    167  CA         1.2170   17.2670   -6.0180 C.3   212  LEU212      0.1728
    168  C          1.7500   15.9910   -5.4330 C.2   212  LEU212      0.2616
    169  O          2.8590   15.5810   -5.7370 O.2   212  LEU212     -0.2715
    170  CB         2.2440   18.2180   -5.4270 C.3   212  LEU212      0.0311
    171  CG         2.3190   19.6250   -6.0020 C.3   212  LEU212      0.0022
    172  CD1        3.5560   20.2960   -5.4570 C.3   212  LEU212      0.0001
    173  CD2        2.3350   19.6030   -7.5110 C.3   212  LEU212      0.0001
    174  N          1.0220   15.5380   -4.4050 N.am  213  LYS213     -0.1977
    175  CA         1.4430   14.3030   -3.7860 C.3   213  LYS213      0.1596
    176  C          0.6590   13.1380   -4.3320 C.2   213  LYS213      0.2287
    177  O         -0.5330   13.0750   -4.1320 O.2   213  LYS213     -0.2864
    178  CB         1.2570   14.3920   -2.2670 C.3   213  LYS213      0.0298
    179  CG         1.9030   13.2680   -1.4680 C.3   213  LYS213      0.0038
    180  CD         1.4410   13.2650   -0.0150 C.3   213  LYS213      0.0206
    181  CE         1.5840   11.8960    0.6230 C.3   213  LYS213      0.1093
    182  NZ         2.5820   11.0310   -0.0590 N.3   213  LYS213     -0.1314
@<TRIPOS>BOND
     1    59    58    1
     2    51    52    1
     3    57    58    1
     4    57    56    1
     5    55    52    1
     6    55    56    1
     7    54    53    2
     8    52    53    1
     9    53    60   am
    10    46    45    2
    11    60    61    1
    12    45    44    1
    13    47    44    1
    14    47    48    1
    15    44    43    1
    16    61    62    1
    17    48    50   ar
    18    48    49   ar
    19    26    25    1
    20    63    62    2
    21    62    64   am
    22    72    73    1
    23    24    25   ar
    24    24    22   ar
    25    25    23   ar
    26    73    74    1
    27    73    76    1
    28    64    65    1
    29    41    40    1
    30    22    20   ar
    31   128   127   ar
    32   128   126   ar
    33    23    21   ar
    34    74    75    2
    35   127   125   ar
    36   126   124   ar
    37   118   119    1
    38    66    65    1
    39    66    67    2
    40    65    68    1
    41    20    21   ar
    42    20    19    1
    43    40    42    1
    44    40    37    1
    45   125   123   ar
    46   124   123   ar
    47    38    37    1
    48    38    39    2
    49    37    36    1
    50   123   122    1
    51   119   122    1
    52   119   120    1
    53    68    69    1
    54    19    16    1
    55    11    10    2
    56   120   121    2
    57    16    15    1
    58    16    17    1
    59   160   159    2
    60    69    70    1
    61    69    71    1
    62   173   171    1
    63    10    15   am
    64    10     9    1
    65    17    18    2
    66     5     2    1
    67     5     6    1
    68   162   161    1
    69   162   163    1
    70    13    12    1
    71     8     9    1
    72     8     3   am
    73   161   158    1
    74   159   158    1
    75   159   166   am
    76     2     3    1
    77     2     1    1
    78     9    12    1
    79   158   157    1
    80   167   166    1
    81   167   168    1
    82   167   170    1
    83   171   172    1
    84   171   170    1
    85     3     4    2
    86    12    14    1
    87   169   168    2
    88     6     7    1
    89   163   164    1
    90   168   174   am
    91     1     7    1
    92   164   165    1
    93   157   153   am
    94   154   153    2
    95    27    28    1
    96   174   175    1
    97   176   177    2
    98   176   175    1
    99   153   152    1
   100   175   178    1
   101    32    31    1
   102    32    33    1
   103    28    31    1
   104    28    29    1
   105    30    29    2
   106   152   151    1
   107   152   155    1
   108   178   179    1
   109    35    33   ar
   110   156   155    1
   111    33    34   ar
   112    83    82   ar
   113   179   180    1
   114   150   148    1
   115    89    86    1
   116    82    84   ar
   117    82    81    1
   118    78    81    1
   119    78    77    1
   120    78    79    1
   121   149   148    1
   122   148   147    2
   123    85    86    1
   124    85    79   am
   125   182   181    1
   126   180   181    1
   127    86    87    1
   128    79    80    2
   129   147   146    1
   130    97    95   ar
   131    87    90   am
   132    87    88    2
   133    90    91    1
   134   146   145    1
   135    94    95    1
   136    94    91    1
   137    95    96   ar
   138   117   115    1
   139    91    92    1
   140   105   104    2
   141   114   115    2
   142   114   113    1
   143   115   116    1
   144   112   113    1
   145   112   111    1
   146   145   144    1
   147   110   109    2
   148   139   137   ar
   149   139   138   ar
   150   137   135   ar
   151   104   103    1
   152   104   106   am
   153    92    93    2
   154   108   111    1
   155   108   109    1
   156   108   107    1
   157   144   141    1
   158   138   136   ar
   159   103   102    1
   160   102    99    1
   161   135   134   ar
   162    98    99    1
   163   136   134   ar
   164   141   142    1
   165   141   140    1
   166    99   100    1
   167   134   133    1
   168   100   101    2
   169   142   143    2
   170   133   130    1
   171   130   131    1
   172   130   129    1
   173   131   132    2
