@<TRIPOS>MOLECULE
tmp/5mlzA04.pdb
 93 84 0 0 0
SMALL
GASTEIGER

@<TRIPOS>ATOM
      1  N         39.1360    7.5450  -17.0390 N.3   244  GLY244     -0.1225
      2  CA        39.0000    6.2240  -16.4430 C.3   244  GLY244      0.1811
      3  C         39.1830    5.0960  -17.4420 C.2   244  GLY244      0.2280
      4  O         39.7330    4.0420  -17.1150 O.2   244  GLY244     -0.2866
      5  N         42.8170    4.7450  -18.2160 N.3   247  GLY247     -0.1210
      6  CA        43.4550    4.0600  -17.1080 C.3   247  GLY247      0.1956
      7  C         43.3690    2.5510  -17.2120 C.2   247  GLY247      0.2611
      8  O         44.3080    1.8450  -16.8440 O.2   247  GLY247     -0.2717
      9  N         42.2410    2.0530  -17.7090 N.am  248  ILE248     -0.1979
     10  CA        42.0780    0.6180  -17.9060 C.3   248  ILE248      0.1595
     11  C         43.0780    0.1150  -18.9440 C.2   248  ILE248      0.2287
     12  O         43.6860   -0.9430  -18.7740 O.2   248  ILE248     -0.2864
     13  CB        40.6410    0.2600  -18.3390 C.3   248  ILE248      0.0276
     14  CG1       39.6520    0.6320  -17.2340 C.3   248  ILE248      0.0022
     15  CG2       40.5300   -1.2270  -18.6560 C.3   248  ILE248      0.0022
     16  CD1       38.2150    0.2650  -17.5430 C.3   248  ILE248      0.0001
     17  N         46.6300    0.2020  -17.5220 N.3   251  ASN251     -0.1240
     18  CA        46.7910   -0.9060  -16.5870 C.3   251  ASN251      0.1653
     19  C         47.1320   -2.2110  -17.3010 C.2   251  ASN251      0.2266
     20  O         48.0720   -2.9090  -16.9200 O.2   251  ASN251     -0.2867
     21  CB        45.5250   -1.0940  -15.7510 C.3   251  ASN251      0.1155
     22  CG        45.6790   -2.1800  -14.7010 C.2   251  ASN251      0.2627
     23  OD1       46.7700   -2.4020  -14.1740 O.2   251  ASN251     -0.2716
     24  ND2       44.5860   -2.8680  -14.3970 N.am  251  ASN251     -0.0877
     25  N         48.7930   -1.5220  -11.8200 N.3   273  VAL273     -0.1245
     26  CA        47.6150   -0.8150  -11.3310 C.3   273  VAL273      0.1561
     27  C         47.9900    0.5420  -10.7350 C.2   273  VAL273      0.2260
     28  O         47.2900    1.5300  -10.9540 O.2   273  VAL273     -0.2867
     29  CB        46.8390   -1.6490  -10.2840 C.3   273  VAL273      0.0252
     30  CG1       47.7550   -2.1050   -9.1790 C.3   273  VAL273      0.0019
     31  CG2       45.6740   -0.8510   -9.7140 C.3   273  VAL273      0.0019
     32  N         48.4200    2.9800  -13.3750 N.3   276  SER276     -0.1202
     33  CA        47.1340    3.3770  -13.9440 C.3   276  SER276      0.2020
     34  C         46.4610    4.4330  -13.0690 C.2   276  SER276      0.2618
     35  O         45.8320    5.3630  -13.5790 O.2   276  SER276     -0.2717
     36  CB        46.2120    2.1670  -14.1190 C.3   276  SER276      0.2103
     37  OG        45.7630    1.6710  -12.8710 O.3   276  SER276     -0.2182
     38  N         46.6010    4.2900  -11.7540 N.am  277  ILE277     -0.1979
     39  CA        46.0740    5.2830  -10.8200 C.3   277  ILE277      0.1595
     40  C         46.7850    6.6210  -11.0000 C.2   277  ILE277      0.2287
     41  O         46.1470    7.6760  -11.0490 O.2   277  ILE277     -0.2864
     42  CB        46.2170    4.8240   -9.3580 C.3   277  ILE277      0.0276
     43  CG1       45.4030    3.5520   -9.1140 C.3   277  ILE277      0.0022
     44  CG2       45.7760    5.9260   -8.4040 C.3   277  ILE277      0.0022
     45  CD1       45.5870    2.9730   -7.7320 C.3   277  ILE277      0.0001
     46  N         45.5780    8.1440  -14.1200 N.3   280  ASN280     -0.1240
     47  CA        44.2440    8.6960  -13.9300 C.3   280  ASN280      0.1653
     48  C         44.2460    9.9880  -13.1270 C.2   280  ASN280      0.2266
     49  O         43.4850   10.9100  -13.4290 O.2   280  ASN280     -0.2867
     50  CB        43.3350    7.6680  -13.2600 C.3   280  ASN280      0.1155
     51  CG        42.8640    6.6080  -14.2250 C.2   280  ASN280      0.2627
     52  OD1       43.3380    6.5400  -15.3570 O.2   280  ASN280     -0.2716
     53  ND2       41.9170    5.7810  -13.7910 N.am  280  ASN280     -0.0877
     54  N         40.0210    5.8510   -5.4210 N.3   308  ALA308     -0.1231
     55  CA        40.2720    4.7070   -6.2920 C.3   308  ALA308      0.1694
     56  C         40.0560    3.3940   -5.5490 C.2   308  ALA308      0.2591
     57  O         39.4670    2.4540   -6.0850 O.2   308  ALA308     -0.2718
     58  CB        41.6770    4.7650   -6.8580 C.3   308  ALA308      0.0304
     59  N         40.5350    3.3360   -4.3120 N.am  309  LEU309     -0.1980
     60  CA        40.3700    2.1460   -3.4890 C.3   309  LEU309      0.1596
     61  C         38.9030    1.9490   -3.1110 C.2   309  LEU309      0.2287
     62  O         38.4000    0.8240   -3.1080 O.2   309  LEU309     -0.2864
     63  CB        41.2410    2.2380   -2.2350 C.3   309  LEU309      0.0297
     64  CG        42.7540    2.2370   -2.4790 C.3   309  LEU309      0.0022
     65  CD1       43.5120    2.3490   -1.1680 C.3   309  LEU309      0.0001
     66  CD2       43.1930    1.0050   -3.2550 C.3   309  LEU309      0.0001
     67  N         37.1090    0.3370   -5.9830 N.3   312  ALA312     -0.1245
     68  CA        37.3950   -1.0940   -6.0910 C.3   312  ALA312      0.1562
     69  C         36.5760   -1.9110   -5.0910 C.2   312  ALA312      0.2260
     70  O         36.1120   -3.0100   -5.4030 O.2   312  ALA312     -0.2867
     71  CB        38.8890   -1.3530   -5.8930 C.3   312  ALA312      0.0290
     72  N         32.5690    3.5890  -10.7310 N.3   341  PHE341     -0.1241
     73  CA        32.8280    4.8620  -11.3970 C.3   341  PHE341      0.1605
     74  C         32.0610    6.0020  -10.7290 C.2   341  PHE341      0.2264
     75  O         32.6000    7.1000  -10.5480 O.2   341  PHE341     -0.2867
     76  CB        32.4600    4.7840  -12.8820 C.3   341  PHE341      0.0534
     77  CG        33.6130    4.4210  -13.7830 C.ar  341  PHE341     -0.0203
     78  CD1       34.1520    3.1430  -13.7720 C.ar  341  PHE341     -0.0042
     79  CD2       34.1490    5.3590  -14.6520 C.ar  341  PHE341     -0.0042
     80  CE1       35.2090    2.8110  -14.6040 C.ar  341  PHE341     -0.0003
     81  CE2       35.2040    5.0330  -15.4870 C.ar  341  PHE341     -0.0003
     82  CZ        35.7360    3.7580  -15.4620 C.ar  341  PHE341     -0.0000
     83  N         33.6350    6.7480   -7.2630 N.3   344  ARG344     -0.1245
     84  CA        34.9310    7.4010   -7.4220 C.3   344  ARG344      0.1563
     85  C         34.7470    8.8580   -7.8230 C.2   344  ARG344      0.2260
     86  O         35.4690    9.7320   -7.3420 O.2   344  ARG344     -0.2867
     87  CB        35.8010    6.6830   -8.4540 C.3   344  ARG344      0.0307
     88  CG        36.2330    5.2900   -8.0320 C.3   344  ARG344      0.0489
     89  CD        37.4590    4.8150   -8.7900 C.3   344  ARG344      0.2205
     90  NE        37.4690    5.2510  -10.1830 N.pl3 344  ARG344     -0.0865
     91  CZ        36.8230    4.6350  -11.1670 C.cat 344  ARG344      0.5346
     92  NH1       36.0930    3.5590  -10.9150 N.pl3 344  ARG344      0.1354
     93  NH2       36.8990    5.1050  -12.4030 N.pl3 344  ARG344      0.1354
@<TRIPOS>BOND
     1    11    12    2
     2    11    10    1
     3    15    13    1
     4    13    10    1
     5    13    14    1
     6     5     6    1
     7    10     9    1
     8     9     7   am
     9    16    14    1
    10    17    18    1
    11     3     4    2
    12     3     2    1
    13    19    20    2
    14    19    18    1
    15     7     6    1
    16     7     8    2
    17     1     2    1
    18    18    21    1
    19    21    22    1
    20    81    82   ar
    21    81    79   ar
    22    82    80   ar
    23    52    51    2
    24    22    24   am
    25    22    23    2
    26    79    77   ar
    27    80    78   ar
    28    51    53   am
    29    51    50    1
    30    46    47    1
    31    36    33    1
    32    36    37    1
    33    33    32    1
    34    33    34    1
    35    47    50    1
    36    47    48    1
    37    77    78   ar
    38    77    76    1
    39    35    34    2
    40    49    48    2
    41    34    38   am
    42    76    73    1
    43    93    91    1
    44    25    26    1
    45    38    39    1
    46    73    72    1
    47    73    74    1
    48    26    27    1
    49    26    29    1
    50    91    92    1
    51    91    90    2
    52    41    40    2
    53    40    39    1
    54    28    27    2
    55    39    42    1
    56    74    75    2
    57    29    31    1
    58    29    30    1
    59    90    89    1
    60    42    43    1
    61    42    44    1
    62    43    45    1
    63    89    88    1
    64    87    88    1
    65    87    84    1
    66    85    84    1
    67    85    86    2
    68    84    83    1
    69    58    55    1
    70    55    56    1
    71    55    54    1
    72    68    67    1
    73    68    71    1
    74    68    69    1
    75    57    56    2
    76    56    59   am
    77    70    69    2
    78    59    60    1
    79    60    61    1
    80    60    63    1
    81    66    64    1
    82    61    62    2
    83    64    63    1
    84    64    65    1
