@<TRIPOS>MOLECULE
tmp/5mlzA05.pdb
 78 71 0 0 0
SMALL
GASTEIGER

@<TRIPOS>ATOM
      1  N         46.6300    0.2020  -17.5220 N.3   251  ASN251     -0.1240
      2  CA        46.7910   -0.9060  -16.5870 C.3   251  ASN251      0.1653
      3  C         47.1320   -2.2110  -17.3010 C.2   251  ASN251      0.2266
      4  O         48.0720   -2.9090  -16.9200 O.2   251  ASN251     -0.2867
      5  CB        45.5250   -1.0940  -15.7510 C.3   251  ASN251      0.1155
      6  CG        45.6790   -2.1800  -14.7010 C.2   251  ASN251      0.2627
      7  OD1       46.7700   -2.4020  -14.1740 O.2   251  ASN251     -0.2716
      8  ND2       44.5860   -2.8680  -14.3970 N.am  251  ASN251     -0.0877
      9  N         51.1900   -7.1830  -11.4120 N.3   269  VAL269     -0.1231
     10  CA        49.8850   -6.5460  -11.2770 C.3   269  VAL269      0.1692
     11  C         49.9570   -5.2850  -10.4260 C.2   269  VAL269      0.2591
     12  O         49.2280   -4.3280  -10.6700 O.2   269  VAL269     -0.2718
     13  CB        48.8430   -7.5010  -10.6560 C.3   269  VAL269      0.0266
     14  CG1       48.3730   -8.5200  -11.6820 C.3   269  VAL269      0.0020
     15  CG2       49.4090   -8.1860   -9.4190 C.3   269  VAL269      0.0020
     16  N         50.8510   -5.2860   -9.4430 N.am  270  ILE270     -0.1980
     17  CA        50.9470   -4.1910   -8.4850 C.3   270  ILE270      0.1595
     18  C         51.4940   -2.8980   -9.1110 C.2   270  ILE270      0.2287
     19  O         50.8610   -1.8520   -8.9840 O.2   270  ILE270     -0.2864
     20  CB        51.8140   -4.5910   -7.2680 C.3   270  ILE270      0.0276
     21  CG1       51.4140   -5.9790   -6.7660 C.3   270  ILE270      0.0022
     22  CG2       51.6930   -3.5550   -6.1610 C.3   270  ILE270      0.0022
     23  CD1       52.3290   -6.5300   -5.6950 C.3   270  ILE270      0.0001
     24  N         48.7930   -1.5220  -11.8200 N.3   273  VAL273     -0.1231
     25  CA        47.6150   -0.8150  -11.3310 C.3   273  VAL273      0.1692
     26  C         47.9900    0.5420  -10.7350 C.2   273  VAL273      0.2591
     27  O         47.2900    1.5300  -10.9540 O.2   273  VAL273     -0.2718
     28  CB        46.8390   -1.6490  -10.2840 C.3   273  VAL273      0.0266
     29  CG1       47.7550   -2.1050   -9.1790 C.3   273  VAL273      0.0020
     30  CG2       45.6740   -0.8510   -9.7140 C.3   273  VAL273      0.0020
     31  N         49.1000    0.5990  -10.0040 N.am  274  GLU274     -0.1979
     32  CA        49.5250    1.8530   -9.3910 C.3   274  GLU274      0.1602
     33  C         49.8730    2.8860  -10.4570 C.2   274  GLU274      0.2287
     34  O         49.6230    4.0770  -10.2800 O.2   274  GLU274     -0.2864
     35  CB        50.7170    1.6360   -8.4560 C.3   274  GLU274      0.0415
     36  CG        51.2950    2.9260   -7.8750 C.3   274  GLU274      0.1163
     37  CD        50.2550    3.7800   -7.1650 C.2   274  GLU274      0.3649
     38  OE1       49.3180    3.2160   -6.5640 O.co2 274  GLU274     -0.2457
     39  OE2       50.3740    5.0220   -7.2130 O.co2 274  GLU274     -0.2457
     40  N         46.6010    4.2900  -11.7540 N.3   277  ILE277     -0.1245
     41  CA        46.0740    5.2830  -10.8200 C.3   277  ILE277      0.1561
     42  C         46.7850    6.6210  -11.0000 C.2   277  ILE277      0.2260
     43  O         46.1470    7.6760  -11.0490 O.2   277  ILE277     -0.2867
     44  CB        46.2170    4.8240   -9.3580 C.3   277  ILE277      0.0252
     45  CG1       45.4030    3.5520   -9.1140 C.3   277  ILE277      0.0019
     46  CG2       45.7760    5.9260   -8.4040 C.3   277  ILE277      0.0019
     47  CD1       45.5870    2.9730   -7.7320 C.3   277  ILE277      0.0001
     48  N         43.8770    8.3500   -4.3100 N.3   305  HIS305     -0.1241
     49  CA        44.0890    6.9310   -4.0340 C.3   305  HIS305      0.1621
     50  C         42.9700    6.3720   -3.1640 C.2   305  HIS305      0.2264
     51  O         42.5370    5.2370   -3.3530 O.2   305  HIS305     -0.2867
     52  CB        45.4450    6.7020   -3.3660 C.3   305  HIS305      0.0745
     53  CG        46.5780    6.5730   -4.3330 C.ar  305  HIS305      0.0817
     54  ND1       47.1790    7.6620   -4.9280 N.ar  305  HIS305     -0.2268
     55  CD2       47.2170    5.4810   -4.8190 C.ar  305  HIS305      0.1154
     56  CE1       48.1410    7.2480   -5.7320 C.ar  305  HIS305      0.1986
     57  NE2       48.1850    5.9260   -5.6830 N.ar  305  HIS305     -0.2212
     58  N         40.5350    3.3360   -4.3120 N.3   309  LEU309     -0.1245
     59  CA        40.3700    2.1460   -3.4890 C.3   309  LEU309      0.1561
     60  C         38.9030    1.9490   -3.1110 C.2   309  LEU309      0.2260
     61  O         38.4000    0.8240   -3.1080 O.2   309  LEU309     -0.2867
     62  CB        41.2410    2.2380   -2.2350 C.3   309  LEU309      0.0270
     63  CG        42.7540    2.2370   -2.4790 C.3   309  LEU309      0.0019
     64  CD1       43.5120    2.3490   -1.1680 C.3   309  LEU309      0.0001
     65  CD2       43.1930    1.0050   -3.2550 C.3   309  LEU309      0.0001
     66  N         37.1090    0.3370   -5.9830 N.3   312  ALA312     -0.1245
     67  CA        37.3950   -1.0940   -6.0910 C.3   312  ALA312      0.1562
     68  C         36.5760   -1.9110   -5.0910 C.2   312  ALA312      0.2260
     69  O         36.1120   -3.0100   -5.4030 O.2   312  ALA312     -0.2867
     70  CB        38.8890   -1.3530   -5.8930 C.3   312  ALA312      0.0290
     71  N         32.8680   -1.9660   -6.1680 N.3   315  ASN315     -0.1240
     72  CA        32.7740   -2.8710   -7.3040 C.3   315  ASN315      0.1653
     73  C         32.7190   -4.3280   -6.8360 C.2   315  ASN315      0.2266
     74  O         31.9080   -5.1150   -7.3240 O.2   315  ASN315     -0.2867
     75  CB        33.9600   -2.6450   -8.2470 C.3   315  ASN315      0.1155
     76  CG        33.8380   -3.4160   -9.5500 C.2   315  ASN315      0.2627
     77  OD1       32.8350   -4.0810   -9.8080 O.2   315  ASN315     -0.2716
     78  ND2       34.8640   -3.3140  -10.3880 N.am  315  ASN315     -0.0877
@<TRIPOS>BOND
     1     1     2    1
     2     3     4    2
     3     3     2    1
     4     2     5    1
     5     5     6    1
     6     6     8   am
     7     6     7    2
     8    24    25    1
     9    40    41    1
    10    14    13    1
    11     9    10    1
    12    25    26    1
    13    25    28    1
    14    10    13    1
    15    10    11    1
    16    43    42    2
    17    42    41    1
    18    27    26    2
    19    41    44    1
    20    26    31   am
    21    12    11    2
    22    13    15    1
    23    33    34    2
    24    33    32    1
    25    11    16   am
    26    78    76   am
    27    28    30    1
    28    28    29    1
    29    31    32    1
    30    77    76    2
    31    76    75    1
    32    16    17    1
    33    32    35    1
    34    44    45    1
    35    44    46    1
    36    45    47    1
    37    18    19    2
    38    18    17    1
    39    17    20    1
    40    35    36    1
    41    75    72    1
    42    36    37    1
    43    74    73    2
    44    72    73    1
    45    72    71    1
    46    20    21    1
    47    20    22    1
    48    39    37   ar
    49    37    38   ar
    50    21    23    1
    51    67    66    1
    52    67    70    1
    53    67    68    1
    54    56    57   ar
    55    56    54   ar
    56    57    55   ar
    57    69    68    2
    58    54    53   ar
    59    55    53   ar
    60    53    52    1
    61    58    59    1
    62    48    49    1
    63    49    52    1
    64    49    50    1
    65    59    60    1
    66    59    62    1
    67    51    50    2
    68    65    63    1
    69    60    61    2
    70    63    62    1
    71    63    64    1
