@<TRIPOS>MOLECULE
tmp/5mm0A00.pdb
 232 224 0 0 0
SMALL
GASTEIGER

@<TRIPOS>ATOM
      1  N          1.0280   30.5530   -5.1620 N.3    11  PRO11      -0.2102
      2  CA         0.4710   29.8030   -6.2820 C.3    11  PRO11       0.1504
      3  C         -0.7320   29.0270   -5.7740 C.2    11  PRO11       0.2576
      4  O         -0.6630   28.4420   -4.6780 O.2    11  PRO11      -0.2718
      5  CB         1.6170   28.8730   -6.6960 C.3    11  PRO11       0.0282
      6  CG         2.3590   28.6150   -5.3990 C.3    11  PRO11       0.0208
      7  CD         2.2090   29.8920   -4.5670 C.3    11  PRO11       0.0893
      8  N         -1.8260   29.0370   -6.5230 N.am   12  THR12      -0.1939
      9  CA        -2.9980   28.2730   -6.0960 C.3    12  THR12       0.2028
     10  C         -3.6030   27.4130   -7.2040 C.2    12  THR12       0.2642
     11  O         -3.5280   27.7390   -8.3930 O.2    12  THR12      -0.2714
     12  CB        -4.0980   29.1910   -5.5280 C.3    12  THR12       0.1808
     13  OG1       -4.3450   30.2610   -6.4430 O.3    12  THR12      -0.2208
     14  CG2       -3.6890   29.7510   -4.1820 C.3    12  THR12       0.0379
     15  N         -4.1810   26.2920   -6.7920 N.am   13  TYR13      -0.1973
     16  CA        -5.0320   25.5080   -7.6680 C.3    13  TYR13       0.1639
     17  C         -6.0380   24.7630   -6.8180 C.2    13  TYR13       0.2290
     18  O         -5.6690   23.8930   -6.0310 O.2    13  TYR13      -0.2864
     19  CB        -4.2250   24.5430   -8.5290 C.3    13  TYR13       0.0560
     20  CG        -5.0140   24.0450   -9.7120 C.ar   13  TYR13      -0.0198
     21  CD1       -5.3250   24.8990  -10.7650 C.ar   13  TYR13      -0.0009
     22  CD2       -5.4590   22.7240   -9.7790 C.ar   13  TYR13      -0.0009
     23  CE1       -6.0570   24.4590  -11.8540 C.ar   13  TYR13       0.0417
     24  CE2       -6.1930   22.2720  -10.8690 C.ar   13  TYR13       0.0417
     25  CZ        -6.4880   23.1440  -11.9030 C.ar   13  TYR13       0.1957
     26  OH        -7.2150   22.7120  -12.9880 O.3    13  TYR13      -0.2866
     27  N         -7.5360   25.9920   -4.2940 N.3    15  GLU15      -0.1245
     28  CA        -7.4950   26.4260   -2.8970 C.3    15  GLU15       0.1567
     29  C         -8.6030   27.4370   -2.6880 C.2    15  GLU15       0.2260
     30  O         -8.8540   28.3210   -3.5210 O.2    15  GLU15      -0.2867
     31  CB        -6.1480   27.0060   -2.4950 C.3    15  GLU15       0.0388
     32  CG        -4.9830   26.2100   -3.0530 C.3    15  GLU15       0.1160
     33  CD        -4.5990   25.0500   -2.1410 C.2    15  GLU15       0.3649
     34  OE1       -5.2020   24.9120   -1.0560 O.co2  15  GLU15      -0.2457
     35  OE2       -3.7080   24.2690   -2.5310 O.co2  15  GLU15      -0.2457
     36  N         -1.3960   33.6840   -7.8280 N.3    40  VAL40      -0.1245
     37  CA        -1.2910   33.2990   -9.2400 C.3    40  VAL40       0.1561
     38  C         -1.9770   31.9560   -9.4920 C.2    40  VAL40       0.2260
     39  O         -1.4290   30.8970   -9.1740 O.2    40  VAL40      -0.2867
     40  CB         0.1730   33.2350   -9.7200 C.3    40  VAL40       0.0252
     41  CG1        0.2360   32.7810  -11.1740 C.3    40  VAL40       0.0019
     42  CG2        0.8430   34.5930   -9.5750 C.3    40  VAL40       0.0019
     43  N         -4.0700   29.1350  -11.9890 N.3    42  ASP42      -0.1239
     44  CA        -4.1410   28.6570  -13.3620 C.3    42  ASP42       0.1674
     45  C         -5.5680   28.2150  -13.6960 C.2    42  ASP42       0.2266
     46  O         -5.8270   27.0280  -13.9350 O.2    42  ASP42      -0.2867
     47  CB        -3.1350   27.5190  -13.5910 C.3    42  ASP42       0.1410
     48  CG        -1.6750   27.9720  -13.4190 C.2    42  ASP42       0.3668
     49  OD1       -1.2900   29.0570  -13.9070 O.co2  42  ASP42      -0.2456
     50  OD2       -0.9040   27.2420  -12.7750 O.co2  42  ASP42      -0.2456
     51  N          0.0800   26.6320  -17.3280 N.3    70  LYS70      -0.1231
     52  CA        -0.1350   25.8080  -16.1280 C.3    70  LYS70       0.1693
     53  C          1.1920   25.3050  -15.5320 C.2    70  LYS70       0.2593
     54  O          2.1860   25.1690  -16.2440 O.2    70  LYS70      -0.2718
     55  CB        -1.0520   24.6240  -16.4520 C.3    70  LYS70       0.0285
     56  CG        -2.4680   25.0390  -16.8410 C.3    70  LYS70       0.0035
     57  CD        -3.3520   23.8310  -17.1560 C.3    70  LYS70       0.0206
     58  CE        -4.7540   24.2600  -17.5930 C.3    70  LYS70       0.1093
     59  NZ        -5.5050   24.9890  -16.5330 N.3    70  LYS70      -0.1314
     60  N          1.2110   25.0420  -14.2260 N.am   71  GLY71      -0.1942
     61  CA         2.4370   24.6180  -13.5660 C.3    71  GLY71       0.2014
     62  C          2.8570   25.4510  -12.3610 C.2    71  GLY71       0.2638
     63  O          2.7660   26.6810  -12.3730 O.2    71  GLY71      -0.2714
     64  N          3.3400   24.7680  -11.3260 N.am   72  LEU72      -0.1977
     65  CA         3.6910   25.3830  -10.0450 C.3    72  LEU72       0.1596
     66  C          4.8470   26.3820  -10.1370 C.2    72  LEU72       0.2287
     67  O          4.6970   27.5550   -9.7900 O.2    72  LEU72      -0.2864
     68  CB         4.0460   24.2910   -9.0340 C.3    72  LEU72       0.0297
     69  CG         4.5680   24.7370   -7.6720 C.3    72  LEU72       0.0022
     70  CD1        3.5110   25.5400   -6.9560 C.3    72  LEU72       0.0001
     71  CD2        4.9910   23.5330   -6.8410 C.3    72  LEU72       0.0001
     72  N          4.0580   29.3310  -12.2950 N.3    75  ALA75      -0.1245
     73  CA         3.2330   30.3060  -11.5770 C.3    75  ALA75       0.1562
     74  C          4.0660   31.3000  -10.7640 C.2    75  ALA75       0.2260
     75  O          3.7710   32.5080  -10.7180 O.2    75  ALA75      -0.2867
     76  CB         2.2520   29.5840  -10.6570 C.3    75  ALA75       0.0290
     77  N          2.8150   28.4260    0.1800 N.3    92  ASP92      -0.1225
     78  CA         1.6220   27.7090   -0.2380 C.3    92  ASP92       0.1805
     79  C          0.3830   28.2210    0.4890 C.2    92  ASP92       0.2598
     80  O          0.4690   28.7680    1.5950 O.2    92  ASP92      -0.2718
     81  CB         1.7950   26.2180    0.0020 C.3    92  ASP92       0.1424
     82  CG         2.9430   25.6280   -0.7890 C.2    92  ASP92       0.3668
     83  OD1        3.3240   26.2170   -1.8220 O.co2  92  ASP92      -0.2456
     84  OD2        3.4390   24.5500   -0.3920 O.co2  92  ASP92      -0.2456
     85  N         -0.7640   28.0340   -0.1510 N.am   93  ALA93      -0.1966
     86  CA        -2.0410   28.5480    0.3500 C.3    93  ALA93       0.1728
     87  C         -2.6940   27.6700    1.4390 C.2    93  ALA93       0.2616
     88  O         -3.4970   28.1770    2.2330 O.2    93  ALA93      -0.2715
     89  CB        -2.9870   28.7240   -0.8050 C.3    93  ALA93       0.0334
     90  N         -2.3440   26.3790    1.4890 N.am   94  ASP94      -0.1971
     91  CA        -3.0550   25.4140    2.3380 C.3    94  ASP94       0.1709
     92  C         -2.7600   25.4670    3.8380 C.2    94  ASP94       0.2293
     93  O         -3.2810   24.6430    4.5870 O.2    94  ASP94      -0.2864
     94  CB        -2.7660   23.9980    1.8640 C.3    94  ASP94       0.1436
     95  CG        -1.2620   23.6640    1.8670 C.2    94  ASP94       0.3671
     96  OD1       -0.4400   24.4940    2.3280 O.co2  94  ASP94      -0.2456
     97  OD2       -0.9130   22.5490    1.4260 O.co2  94  ASP94      -0.2456
     98  N          0.0500   24.7550    5.3530 N.3    96  GLN96      -0.1231
     99  CA         1.1770   23.9320    5.7890 C.3    96  GLN96       0.1698
    100  C          2.3800   24.8170    6.1020 C.2    96  GLN96       0.2592
    101  O          3.1510   24.5230    7.0140 O.2    96  GLN96      -0.2718
    102  CB         1.5230   22.8980    4.7350 C.3    96  GLN96       0.0381
    103  CG         0.3400   22.0170    4.4290 C.3    96  GLN96       0.0905
    104  CD         0.7390   20.6750    3.9260 C.2    96  GLN96       0.2608
    105  OE1        0.6320   20.3910    2.7430 O.2    96  GLN96      -0.2717
    106  NE2        1.2090   19.8280    4.8300 N.am   96  GLN96      -0.0878
    107  N          2.5150   25.9110    5.3460 N.am   97  HIS97      -0.1976
    108  CA         3.4500   26.9840    5.6670 C.3    97  HIS97       0.1656
    109  C          2.7390   28.0310    6.5300 C.2    97  HIS97       0.2291
    110  O          1.7930   28.6950    6.0750 O.2    97  HIS97      -0.2864
    111  CB         3.9830   27.6500    4.4060 C.3    97  HIS97       0.0771
    112  CG         4.6790   26.7280    3.4510 C.ar   97  HIS97       0.0820
    113  ND1        4.6160   26.8910    2.0920 N.ar   97  HIS97      -0.2267
    114  CD2        5.4730   25.6460    3.6760 C.ar   97  HIS97       0.1154
    115  CE1        5.3320   25.9390    1.5010 C.ar   97  HIS97       0.1986
    116  NE2        5.8520   25.1790    2.4380 N.ar   97  HIS97      -0.2212
    117  N         12.4400   22.6410    7.0270 N.3   120  ARG120     -0.1245
    118  CA        12.0290   21.5490    7.8960 C.3   120  ARG120      0.1563
    119  C         13.1860   20.8490    8.6100 C.2   120  ARG120      0.2260
    120  O         12.9720   20.2230    9.6430 O.2   120  ARG120     -0.2867
    121  CB        11.2570   20.5100    7.0940 C.3   120  ARG120      0.0307
    122  CG         9.9580   21.0160    6.5350 C.3   120  ARG120      0.0489
    123  CD         9.4860   20.0820    5.4630 C.3   120  ARG120      0.2205
    124  NE        10.4070   20.0790    4.3320 N.pl3 120  ARG120     -0.0865
    125  CZ        10.2560   19.3140    3.2610 C.cat 120  ARG120      0.5346
    126  NH1        9.2420   18.4550    3.2000 N.pl3 120  ARG120      0.1354
    127  NH2       11.1200   19.4010    2.2580 N.pl3 120  ARG120      0.1354
    128  N          4.1990   13.0140   10.5400 N.3   130  TRP130     -0.1241
    129  CA         4.8090   12.2350    9.4670 C.3   130  TRP130      0.1605
    130  C          5.5350   11.0000    9.9990 C.2   130  TRP130      0.2264
    131  O          6.2780   11.0900   10.9860 O.2   130  TRP130     -0.2867
    132  CB         5.7940   13.0840    8.6600 C.3   130  TRP130      0.0550
    133  CG         5.1370   13.9400    7.6330 C.ar  130  TRP130      0.0003
    134  CD1        3.8170   14.2830    7.5760 C.ar  130  TRP130      0.0946
    135  CD2        5.7510   14.5180    6.4740 C.ar  130  TRP130      0.0152
    136  NE1        3.5770   15.0640    6.4720 N.ar  130  TRP130     -0.2442
    137  CE2        4.7460   15.2150    5.7740 C.ar  130  TRP130      0.0810
    138  CE3        7.0520   14.5100    5.9590 C.ar  130  TRP130      0.0012
    139  CZ2        5.0040   15.9150    4.6000 C.ar  130  TRP130      0.0191
    140  CZ3        7.3030   15.1950    4.7870 C.ar  130  TRP130      0.0001
    141  CH2        6.2850   15.8870    4.1200 C.ar  130  TRP130      0.0015
    142  N         14.4470   21.8360   -1.3280 N.3   159  VAL159     -0.1231
    143  CA        13.1970   21.5750   -2.0650 C.3   159  VAL159      0.1692
    144  C         11.9580   22.2860   -1.4670 C.2   159  VAL159      0.2593
    145  O         10.8260   22.0990   -1.9310 O.2   159  VAL159     -0.2718
    146  CB        12.8980   20.0680   -2.1300 C.3   159  VAL159      0.0266
    147  CG1       14.0180   19.3460   -2.8710 C.3   159  VAL159      0.0020
    148  CG2       12.7010   19.5150   -0.7270 C.3   159  VAL159      0.0020
    149  N         12.1960   23.0710   -0.4230 N.am  160  SER160     -0.1938
    150  CA        11.1710   23.8210    0.2780 C.3   160  SER160      0.2055
    151  C         10.4340   24.8230   -0.6280 C.2   160  SER160      0.2643
    152  O         11.0570   25.4890   -1.4660 O.2   160  SER160     -0.2714
    153  CB        11.8220   24.5460    1.4520 C.3   160  SER160      0.2130
    154  OG        10.9850   25.5840    1.9140 O.3   160  SER160     -0.2179
    155  N          9.1120   24.9310   -0.4570 N.am  161  GLY161     -0.1954
    156  CA         8.3080   25.8760   -1.2180 C.3   161  GLY161      0.1869
    157  C          8.0670   27.1640   -0.4370 C.2   161  GLY161      0.2309
    158  O          7.2490   28.0080   -0.8230 O.2   161  GLY161     -0.2863
    159  N          8.4650   21.6360  -10.2210 N.3   180  PHE180     -0.1227
    160  CA         7.8640   22.0070   -8.9470 C.3   180  PHE180      0.1736
    161  C          8.8880   22.6240   -7.9820 C.2   180  PHE180      0.2595
    162  O          8.5260   23.1580   -6.9370 O.2   180  PHE180     -0.2718
    163  CB         7.1990   20.7800   -8.3170 C.3   180  PHE180      0.0547
    164  CG         6.4890   19.9010   -9.3200 C.ar  180  PHE180     -0.0202
    165  CD1        5.1890   20.1810   -9.7230 C.ar  180  PHE180     -0.0042
    166  CD2        7.1290   18.7980   -9.8670 C.ar  180  PHE180     -0.0042
    167  CE1        4.5470   19.3770  -10.6550 C.ar  180  PHE180     -0.0003
    168  CE2        6.4940   17.9900  -10.7940 C.ar  180  PHE180     -0.0003
    169  CZ         5.2050   18.2790  -11.1900 C.ar  180  PHE180     -0.0000
    170  N         10.1640   22.5790   -8.3360 N.am  181  LYS181     -0.1980
    171  CA        11.1950   22.9690   -7.3860 C.3   181  LYS181      0.1596
    172  C         11.8670   24.2630   -7.8000 C.2   181  LYS181      0.2287
    173  O         13.0210   24.2490   -8.2640 O.2   181  LYS181     -0.2864
    174  CB        12.2550   21.8660   -7.2480 C.3   181  LYS181      0.0298
    175  CG        11.7270   20.4720   -7.0100 C.3   181  LYS181      0.0038
    176  CD        11.0750   20.3190   -5.6490 C.3   181  LYS181      0.0206
    177  CE        10.6150   18.8590   -5.4460 C.3   181  LYS181      0.1093
    178  NZ        10.0500   18.6320   -4.0890 N.3   181  LYS181     -0.1314
    179  N          6.3460   22.3630    9.5640 N.3   202  PHE202     -0.1241
    180  CA         5.4830   22.0290    8.4430 C.3   202  PHE202      0.1605
    181  C          4.1570   21.5490    9.0170 C.2   202  PHE202      0.2264
    182  O          4.1170   20.6030    9.8020 O.2   202  PHE202     -0.2867
    183  CB         6.1250   20.9630    7.5510 C.3   202  PHE202      0.0534
    184  CG         5.5610   20.9030    6.1540 C.ar  202  PHE202     -0.0203
    185  CD1        5.6460   21.9870    5.3040 C.ar  202  PHE202     -0.0042
    186  CD2        4.9550   19.7480    5.6910 C.ar  202  PHE202     -0.0042
    187  CE1        5.1390   21.9220    4.0160 C.ar  202  PHE202     -0.0003
    188  CE2        4.4470   19.6850    4.4070 C.ar  202  PHE202     -0.0003
    189  CZ         4.5330   20.7870    3.5740 C.ar  202  PHE202     -0.0000
    190  N         -2.0810   20.1740    6.2130 N.3   205  ARG205     -0.1245
    191  CA        -3.0350   20.8080    5.3290 C.3   205  ARG205      0.1563
    192  C         -4.3930   20.7410    5.9860 C.2   205  ARG205      0.2260
    193  O         -4.9400   19.6560    6.2090 O.2   205  ARG205     -0.2867
    194  CB        -3.0640   20.1310    3.9690 C.3   205  ARG205      0.0307
    195  CG        -4.1450   20.6090    3.0600 C.3   205  ARG205      0.0489
    196  CD        -4.0210   19.8920    1.7470 C.3   205  ARG205      0.2205
    197  NE        -4.6640   20.6130    0.6580 N.pl3 205  ARG205     -0.0865
    198  CZ        -4.0360   21.4430   -0.1640 C.cat 205  ARG205      0.5346
    199  NH1       -2.7320   21.3480   -0.3360 N.pl3 205  ARG205      0.1354
    200  NH2       -4.7210   22.3550   -0.8250 N.pl3 205  ARG205      0.1354
    201  N         -5.0720   16.9720   -2.2790 N.3   210  SER210     -0.1202
    202  CA        -3.6510   17.2320   -2.5050 C.3   210  SER210      0.2020
    203  C         -3.3740   17.0740   -3.9910 C.2   210  SER210      0.2619
    204  O         -3.7890   16.0890   -4.5920 O.2   210  SER210     -0.2717
    205  CB        -2.7680   16.2870   -1.6870 C.3   210  SER210      0.2103
    206  OG        -1.3960   16.4230   -2.0400 O.3   210  SER210     -0.2182
    207  N         -2.7330   18.2370   -4.5830 N.am  211  LYS211     -0.1965
    208  CA        -2.4470   18.1610   -5.9900 C.3   211  LYS211      0.1728
    209  C         -1.0100   17.8560   -6.3830 C.2   211  LYS211      0.2616
    210  O         -0.7120   17.8580   -7.5610 O.2   211  LYS211     -0.2715
    211  CB        -2.8590   19.4680   -6.6430 C.3   211  LYS211      0.0311
    212  CG        -4.2950   19.8830   -6.3680 C.3   211  LYS211      0.0038
    213  CD        -4.5820   20.0510   -4.8860 C.3   211  LYS211      0.0206
    214  CE        -5.1540   21.4280   -4.5830 C.3   211  LYS211      0.1093
    215  NZ        -4.6200   22.0230   -3.3240 N.3   211  LYS211     -0.1314
    216  N         -0.1510   17.2890   -5.5330 N.am  212  LEU212     -0.1963
    217  CA         1.1720   16.9570   -6.0070 C.3   212  LEU212      0.1728
    218  C          1.5590   15.5300   -5.7450 C.2   212  LEU212      0.2616
    219  O          2.3440   14.9580   -6.4860 O.2   212  LEU212     -0.2715
    220  CB         2.2040   17.9110   -5.4320 C.3   212  LEU212      0.0311
    221  CG         2.2960   19.2710   -6.1130 C.3   212  LEU212      0.0022
    222  CD1        3.6880   19.8230   -5.9240 C.3   212  LEU212      0.0001
    223  CD2        1.9460   19.2080   -7.5810 C.3   212  LEU212      0.0001
    224  N          1.3980   15.1910   -4.4830 N.am  213  LYS213     -0.1977
    225  CA         1.8120   13.8600   -4.1170 C.3   213  LYS213      0.1596
    226  C          1.0170   12.7880   -4.8260 C.2   213  LYS213      0.2287
    227  O         -0.1910   12.7080   -4.6370 O.2   213  LYS213     -0.2864
    228  CB         1.7250   13.6210   -2.6200 C.3   213  LYS213      0.0298
    229  CG         2.1370   12.2080   -2.2170 C.3   213  LYS213      0.0038
    230  CD         3.5910   11.8800   -2.5620 C.3   213  LYS213      0.0206
    231  CE         4.0190   10.5330   -1.9970 C.3   213  LYS213      0.1093
    232  NZ         5.3510   10.1040   -2.4990 N.3   213  LYS213     -0.1314
@<TRIPOS>BOND
     1    58    57    1
     2    58    59    1
     3    51    52    1
     4    57    56    1
     5    56    55    1
     6    55    52    1
     7    54    53    2
     8    52    53    1
     9    53    60   am
    10    60    61    1
    11    46    45    2
    12    49    48   ar
    13    45    44    1
    14    47    48    1
    15    47    44    1
    16    61    62    1
    17    48    50   ar
    18    44    43    1
    19    26    25    1
    20    63    62    2
    21    62    64   am
    22    72    73    1
    23    25    23   ar
    24    25    24   ar
    25    23    21   ar
    26    73    74    1
    27    73    76    1
    28    64    65    1
    29   169   168   ar
    30   169   167   ar
    31    41    40    1
    32    24    22   ar
    33   168   166   ar
    34    21    20   ar
    35    74    75    2
    36   167   165   ar
    37   159   160    1
    38    66    65    1
    39    66    67    2
    40    65    68    1
    41   166   164   ar
    42    22    20   ar
    43   165   164   ar
    44    40    42    1
    45    40    37    1
    46    20    19    1
    47    38    37    1
    48    38    39    2
    49   164   163    1
    50    37    36    1
    51    68    69    1
    52   160   163    1
    53   160   161    1
    54    19    16    1
    55    11    10    2
    56   170   161   am
    57   170   171    1
    58   173   172    2
    59   161   162    2
    60   172   171    1
    61    69    70    1
    62    69    71    1
    63    16    17    1
    64    16    15    1
    65   223   221    1
    66   210   209    2
    67   171   174    1
    68   174   175    1
    69    10    15   am
    70    10     9    1
    71   175   176    1
    72    17    18    2
    73     5     2    1
    74     5     6    1
    75   211   212    1
    76   211   208    1
    77     8     9    1
    78     8     3   am
    79   219   218    2
    80    13    12    1
    81   209   208    1
    82   209   216   am
    83   212   213    1
    84     2     3    1
    85     2     1    1
    86   221   222    1
    87   221   220    1
    88     9    12    1
    89   217   218    1
    90   217   216    1
    91   217   220    1
    92   208   207    1
    93     3     4    2
    94   218   224   am
    95   176   177    1
    96    12    14    1
    97   177   178    1
    98     6     7    1
    99     1     7    1
   100   213   214    1
   101   226   227    2
   102   226   225    1
   103   204   203    2
   104   214   215    1
   105   207   203   am
   106   224   225    1
   107    27    28    1
   108   225   228    1
   109   203   202    1
   110    30    29    2
   111    32    31    1
   112    32    33    1
   113    28    29    1
   114    28    31    1
   115   147   146    1
   116   228   229    1
   117   230   229    1
   118   230   231    1
   119    35    33   ar
   120   202   201    1
   121   202   205    1
   122   232   231    1
   123    33    34   ar
   124   146   143    1
   125   146   148    1
   126   143   144    1
   127   143   142    1
   128   206   205    1
   129   145   144    2
   130    83    82   ar
   131   144   149   am
   132   152   151    2
   133   156   155    1
   134   156   157    1
   135   200   198    1
   136   158   157    2
   137    89    86    1
   138    82    84   ar
   139    82    81    1
   140   151   155   am
   141   151   150    1
   142   149   150    1
   143   199   198    1
   144    78    81    1
   145    78    77    1
   146    78    79    1
   147   198   197    2
   148    85    86    1
   149    85    79   am
   150   150   153    1
   151    86    87    1
   152    79    80    2
   153   197   196    1
   154    97    95   ar
   155    87    90   am
   156    87    88    2
   157   153   154    1
   158    90    91    1
   159   115   113   ar
   160   115   116   ar
   161   196   195    1
   162    94    95    1
   163    94    91    1
   164    95    96   ar
   165   113   112   ar
   166   127   125    1
   167    91    92    1
   168   116   114   ar
   169   105   104    2
   170   195   194    1
   171   126   125    1
   172   125   124    2
   173   112   114   ar
   174   112   111    1
   175   189   187   ar
   176   189   188   ar
   177    92    93    2
   178   104   103    1
   179   104   106   am
   180   194   191    1
   181   187   185   ar
   182   141   139   ar
   183   141   140   ar
   184   124   123    1
   185   111   108    1
   186   188   186   ar
   187   103   102    1
   188   139   137   ar
   189   102    99    1
   190   140   138   ar
   191   185   184   ar
   192   191   192    1
   193   191   190    1
   194   107   108    1
   195   107   100   am
   196    98    99    1
   197   123   122    1
   198   108   109    1
   199   186   184   ar
   200   137   136   ar
   201   137   135   ar
   202    99   100    1
   203   138   135   ar
   204   192   193    2
   205   110   109    2
   206   100   101    2
   207   184   183    1
   208   136   134   ar
   209   135   133   ar
   210   122   121    1
   211   117   118    1
   212   121   118    1
   213   183   180    1
   214   134   133   ar
   215   133   132    1
   216   118   119    1
   217   180   181    1
   218   180   179    1
   219   119   120    2
   220   132   129    1
   221   181   182    2
   222   129   130    1
   223   129   128    1
   224   130   131    2
