@<TRIPOS>MOLECULE
tmp/5mm7A00.pdb
 175 171 0 0 0
SMALL
GASTEIGER

@<TRIPOS>ATOM
      1  N         72.7970   67.4190   53.9930 N.3    23  ARG23      -0.1231
      2  CA        74.0600   66.9600   53.4390 C.3    23  ARG23       0.1694
      3  C         73.8360   65.5710   52.8750 C.2    23  ARG23       0.2592
      4  O         73.3570   64.6820   53.5760 O.2    23  ARG23      -0.2718
      5  CB        75.1960   66.9120   54.4690 C.3    23  ARG23       0.0321
      6  CG        76.5030   66.4240   53.8560 C.3    23  ARG23       0.0489
      7  CD        77.6330   66.3300   54.8550 C.3    23  ARG23       0.2205
      8  NE        78.8290   65.7700   54.2320 N.pl3  23  ARG23      -0.0865
      9  CZ        79.9730   65.5530   54.8700 C.cat  23  ARG23       0.5346
     10  NH1       80.0830   65.8440   56.1580 N.pl3  23  ARG23       0.1354
     11  NH2       81.0070   65.0400   54.2170 N.pl3  23  ARG23       0.1354
     12  N         74.2100   65.3810   51.6140 N.am   24  VAL24      -0.1966
     13  CA        73.8330   64.2050   50.8550 C.3    24  VAL24       0.1727
     14  C         75.0720   63.3540   50.6060 C.2    24  VAL24       0.2616
     15  O         76.1800   63.6890   51.0270 O.2    24  VAL24      -0.2715
     16  CB        73.1480   64.5680   49.5230 C.3    24  VAL24       0.0290
     17  CG1       71.8970   65.3700   49.7890 C.3    24  VAL24       0.0023
     18  CG2       74.1050   65.3420   48.6290 C.3    24  VAL24       0.0023
     19  N         74.8540   62.2270   49.9320 N.am   25  ARG25      -0.1963
     20  CA        75.9080   61.3130   49.5240 C.3    25  ARG25       0.1732
     21  C         76.8490   62.0150   48.5390 C.2    25  ARG25       0.2656
     22  O         76.4960   63.0170   47.9110 O.2    25  ARG25      -0.2711
     23  CB        75.2820   60.0650   48.8990 C.3    25  ARG25       0.0348
     24  CG        76.1640   58.8350   48.8320 C.3    25  ARG25       0.0492
     25  CD        75.4340   57.6840   48.1790 C.3    25  ARG25       0.2205
     26  NE        75.2030   57.9390   46.7630 N.pl3  25  ARG25      -0.0865
     27  CZ        74.4300   57.1910   45.9850 C.cat  25  ARG25       0.5346
     28  NH1       73.8060   56.1350   46.4880 N.pl3  25  ARG25       0.1354
     29  NH2       74.2840   57.4980   44.7040 N.pl3  25  ARG25       0.1354
     30  N         78.0590   61.4820   48.3890 N.am   26  GLY26      -0.1716
     31  CA        79.0190   62.1960   47.5740 C.2    26  GLY26       0.1480
     32  C         80.4470   61.6960   47.5280 C.2    26  GLY26       0.2820
     33  O         80.6960   60.5220   47.2380 O.2    26  GLY26      -0.2669
     34  N         81.3890   62.6110   47.7740 N.am   27  GLN27      -0.1929
     35  CA        82.8050   62.4390   47.4700 C.3    27  GLN27       0.1736
     36  C         83.4480   61.3010   48.2500 C.2    27  GLN27       0.2616
     37  O         83.7050   61.4130   49.4520 O.2    27  GLN27      -0.2715
     38  CB        83.5550   63.7460   47.7350 C.3    27  GLN27       0.0408
     39  CG        85.0220   63.6960   47.3610 C.3    27  GLN27       0.0908
     40  CD        85.2290   63.3790   45.8950 C.2    27  GLN27       0.2608
     41  OE1       85.6430   62.2760   45.5390 O.2    27  GLN27      -0.2717
     42  NE2       84.9260   64.3420   45.0330 N.am   27  GLN27      -0.0878
     43  N         83.7180   60.2090   47.5500 N.am   28  ALA28      -0.1964
     44  CA        84.2330   58.9600   48.0750 C.3    28  ALA28       0.1713
     45  C         85.3820   58.4930   47.1930 C.2    28  ALA28       0.2458
     46  O         85.6150   59.0700   46.1270 O.2    28  ALA28      -0.2730
     47  CB        83.1180   57.9000   48.1100 C.3    28  ALA28       0.0333
     48  N         86.1470   57.4850   47.6200 N.am   29  PRO29      -0.2727
     49  CA        87.0510   56.8310   46.6600 C.3    29  PRO29       0.1402
     50  C         86.3290   56.0330   45.5860 C.2    29  PRO29       0.2269
     51  O         86.9230   55.7520   44.5380 O.2    29  PRO29      -0.2865
     52  CB        87.9140   55.9270   47.5510 C.3    29  PRO29       0.0296
     53  CG        87.9030   56.5950   48.8700 C.3    29  PRO29       0.0237
     54  CD        86.5310   57.1810   49.0130 C.3    29  PRO29       0.0939
     55  N         82.5590   56.3970   44.8500 N.3    31  GLU31      -0.1245
     56  CA        81.2840   56.8950   44.3320 C.3    31  GLU31       0.1567
     57  C         81.4310   57.8920   43.1780 C.2    31  GLU31       0.2260
     58  O         80.6880   57.7540   42.1910 O.2    31  GLU31      -0.2867
     59  CB        80.4270   57.4330   45.4870 C.3    31  GLU31       0.0388
     60  CG        79.9530   56.3530   46.4420 C.3    31  GLU31       0.1160
     61  CD        79.1910   56.9140   47.6220 C.2    31  GLU31       0.3649
     62  OE1       79.1720   58.1500   47.7740 O.co2  31  GLU31      -0.2457
     63  OE2       78.6120   56.1220   48.3940 O.co2  31  GLU31      -0.2457
     64  N         76.5700   69.3130   49.8360 N.3    89  GLY89      -0.1210
     65  CA        76.8680   68.2780   48.8780 C.3    89  GLY89       0.1940
     66  C         78.1510   67.5290   49.1760 C.2    89  GLY89       0.2453
     67  O         78.5840   67.4160   50.3280 O.2    89  GLY89      -0.2732
     68  N         78.7720   66.9820   48.1260 N.am   90  PRO90      -0.2728
     69  CA        80.0370   66.2520   48.3090 C.3    90  PRO90       0.1401
     70  C         81.1950   67.1360   48.7070 C.2    90  PRO90       0.2269
     71  O         82.1340   66.6490   49.3490 O.2    90  PRO90      -0.2865
     72  CB        80.2850   65.6330   46.9280 C.3    90  PRO90       0.0296
     73  CG        78.9560   65.6000   46.2860 C.3    90  PRO90       0.0237
     74  CD        78.2490   66.8250   46.7600 C.3    90  PRO90       0.0939
     75  N         69.1520   53.5540   52.5330 N.3   123  THR123     -0.1203
     76  CA        70.2000   52.7220   53.1080 C.3   123  THR123      0.1994
     77  C         71.5040   52.8240   52.3160 C.2   123  THR123      0.2618
     78  O         71.5130   53.1030   51.1130 O.2   123  THR123     -0.2717
     79  CB        69.7410   51.2610   53.1950 C.3   123  THR123      0.1784
     80  OG1       70.7330   50.4830   53.8790 O.3   123  THR123     -0.2211
     81  CG2       69.4820   50.6690   51.8120 C.3   123  THR123      0.0376
     82  N         72.6160   52.6430   53.0270 N.am  124  GLY124     -0.1942
     83  CA        73.9210   52.6690   52.3990 C.3   124  GLY124      0.2014
     84  C         74.3810   54.0280   51.9320 C.2   124  GLY124      0.2640
     85  O         75.2670   54.1120   51.0800 O.2   124  GLY124     -0.2714
     86  N         73.8020   55.1010   52.4690 N.am  125  THR125     -0.1936
     87  CA        74.0400   56.4280   51.9190 C.3   125  THR125      0.2028
     88  C         75.1660   57.1640   52.6390 C.2   125  THR125      0.2643
     89  O         75.8730   57.9620   52.0160 O.2   125  THR125     -0.2714
     90  CB        72.7420   57.2300   51.9800 C.3   125  THR125      0.1808
     91  OG1       71.6840   56.4380   51.4290 O.3   125  THR125     -0.2208
     92  CG2       72.8470   58.4680   51.1470 C.3   125  THR125      0.0379
     93  N         75.3950   56.8700   53.9120 N.am  126  GLY126     -0.1939
     94  CA        76.3760   57.6100   54.6770 C.3   126  GLY126      0.2014
     95  C         75.8830   58.1670   55.9960 C.2   126  GLY126      0.2639
     96  O         76.3940   59.1900   56.4560 O.2   126  GLY126     -0.2714
     97  N         74.8880   57.5180   56.6090 N.am  127  LYS127     -0.1963
     98  CA        74.5190   57.8650   57.9810 C.3   127  LYS127      0.1728
     99  C         75.6510   57.5510   58.9500 C.2   127  LYS127      0.2617
    100  O         75.8640   58.2800   59.9260 O.2   127  LYS127     -0.2715
    101  CB        73.2680   57.1070   58.4250 C.3   127  LYS127      0.0311
    102  CG        71.9390   57.6900   57.9940 C.3   127  LYS127      0.0038
    103  CD        71.5730   57.2440   56.6040 C.3   127  LYS127      0.0206
    104  CE        71.2710   55.7700   56.6030 C.3   127  LYS127      0.1093
    105  NZ        70.9300   55.2900   55.2510 N.3   127  LYS127     -0.1314
    106  N         76.3670   56.4510   58.7100 N.am  128  THR128     -0.1937
    107  CA        77.5020   56.1000   59.5540 C.3   128  THR128      0.2028
    108  C         78.6710   57.0570   59.3420 C.2   128  THR128      0.2642
    109  O         79.3430   57.4380   60.3070 O.2   128  THR128     -0.2714
    110  CB        77.9160   54.6520   59.2720 C.3   128  THR128      0.1808
    111  OG1       76.7880   53.7890   59.4600 O.3   128  THR128     -0.2208
    112  CG2       79.0330   54.1980   60.1980 C.3   128  THR128      0.0379
    113  N         78.8980   57.4900   58.1000 N.am  129  HIS129     -0.1959
    114  CA        80.0520   58.3340   57.8050 C.3   129  HIS129      0.1787
    115  C         79.8700   59.7510   58.3390 C.2   129  HIS129      0.2620
    116  O         80.8480   60.4060   58.7210 O.2   129  HIS129     -0.2715
    117  CB        80.3080   58.3680   56.3030 C.3   129  HIS129      0.0785
    118  CG        81.5050   59.1790   55.9220 C.ar  129  HIS129      0.0821
    119  ND1       82.7950   58.7330   56.1070 N.ar  129  HIS129     -0.2267
    120  CD2       81.6080   60.4220   55.3950 C.ar  129  HIS129      0.1154
    121  CE1       83.6430   59.6590   55.6950 C.ar  129  HIS129      0.1986
    122  NE2       82.9480   60.6950   55.2600 N.ar  129  HIS129     -0.2212
    123  N         78.6330   60.2500   58.3560 N.am  130  THR130     -0.1951
    124  CA        78.3860   61.5810   58.9030 C.3   130  THR130      0.1897
    125  C         78.5650   61.6000   60.4170 C.2   130  THR130      0.2313
    126  O         79.1920   62.5140   60.9640 O.2   130  THR130     -0.2863
    127  CB        76.9880   62.0660   58.5120 C.3   130  THR130      0.1794
    128  OG1       76.0150   61.0700   58.8520 O.3   130  THR130     -0.2208
    129  CG2       76.9210   62.3830   57.0250 C.3   130  THR130      0.0378
    130  N         74.5880   47.6470   50.8890 N.3   256  ASN256     -0.1240
    131  CA        75.8440   48.1050   51.4710 C.3   256  ASN256      0.1653
    132  C         76.3170   47.0690   52.4760 C.2   256  ASN256      0.2266
    133  O         75.5090   46.5150   53.2270 O.2   256  ASN256     -0.2867
    134  CB        75.6780   49.4660   52.1460 C.3   256  ASN256      0.1155
    135  CG        77.0050   50.1190   52.4930 C.2   256  ASN256      0.2627
    136  OD1       78.0780   49.5800   52.2200 O.2   256  ASN256     -0.2716
    137  ND2       76.9330   51.2890   53.1040 N.am  256  ASN256     -0.0877
    138  N         78.9360   48.1780   54.3490 N.3   258  GLN258     -0.1231
    139  CA        79.4390   49.1070   55.3550 C.3   258  GLN258      0.1698
    140  C         78.2940   49.7600   56.1160 C.2   258  GLN258      0.2593
    141  O         78.5200   50.6080   56.9870 O.2   258  GLN258     -0.2718
    142  CB        80.3150   50.1670   54.6940 C.3   258  GLN258      0.0381
    143  CG        81.5780   49.6280   54.0630 C.3   258  GLN258      0.0905
    144  CD        82.3850   50.7120   53.3880 C.2   258  GLN258      0.2608
    145  OE1       81.9730   51.8720   53.3470 O.2   258  GLN258     -0.2717
    146  NE2       83.5390   50.3420   52.8480 N.am  258  GLN258     -0.0878
    147  N         77.0590   49.3930   55.7870 N.am  259  SER259     -0.1938
    148  CA        75.9080   49.9290   56.4940 C.3   259  SER259      0.2055
    149  C         75.7740   49.2840   57.8670 C.2   259  SER259      0.2643
    150  O         75.7950   48.0570   58.0010 O.2   259  SER259     -0.2714
    151  CB        74.6370   49.6950   55.6800 C.3   259  SER259      0.2130
    152  OG        74.3590   48.3110   55.5610 O.3   259  SER259     -0.2179
    153  N         75.6420   50.1200   58.8930 N.am  260  SER260     -0.1949
    154  CA        75.3650   49.6300   60.2320 C.3   260  SER260      0.1924
    155  C         73.9390   49.1020   60.3110 C.2   260  SER260      0.2314
    156  O         72.9960   49.7110   59.7960 O.2   260  SER260     -0.2863
    157  CB        75.5690   50.7330   61.2700 C.3   260  SER260      0.2116
    158  OG        74.6250   51.7760   61.0920 O.3   260  SER260     -0.2180
    159  N         71.4970   56.6790   63.0180 N.3   293  LEU293     -0.1231
    160  CA        70.4170   55.8270   62.5530 C.3   293  LEU293      0.1693
    161  C         70.9490   54.8250   61.5390 C.2   293  LEU293      0.2592
    162  O         71.9950   55.0250   60.9160 O.2   293  LEU293     -0.2718
    163  CB        69.2680   56.6430   61.9440 C.3   293  LEU293      0.0284
    164  CG        68.1170   57.0670   62.8640 C.3   293  LEU293      0.0019
    165  CD1       67.4230   55.8350   63.4290 C.3   293  LEU293      0.0001
    166  CD2       68.5520   57.9970   63.9810 C.3   293  LEU293      0.0001
    167  N         70.2140   53.7280   61.3950 N.am  294  ALA294     -0.1966
    168  CA        70.5290   52.7320   60.3890 C.3   294  ALA294      0.1728
    169  C         69.7910   53.0510   59.0900 C.2   294  ALA294      0.2616
    170  O         69.0310   54.0190   58.9960 O.2   294  ALA294     -0.2715
    171  CB        70.1800   51.3340   60.8910 C.3   294  ALA294      0.0334
    172  N         70.0180   52.2210   58.0760 N.am  295  GLY295     -0.1955
    173  CA        69.5160   52.5280   56.7470 C.3   295  GLY295      0.1869
    174  C         68.1150   51.9880   56.5010 C.2   295  GLY295      0.2309
    175  O         67.7570   50.8950   56.9390 O.2   295  GLY295     -0.2863
@<TRIPOS>BOND
     1    58    57    2
     2    57    56    1
     3    56    55    1
     4    56    59    1
     5    51    50    2
     6    29    27    1
     7    42    40   am
     8    59    60    1
     9    41    40    2
    10    50    49    1
    11    40    39    1
    12    27    28    1
    13    27    26    2
    14    46    45    2
    15    73    74    1
    16    73    72    1
    17    60    61    1
    18    49    52    1
    19    49    48    1
    20    74    68    1
    21    26    25    1
    22    72    69    1
    23    45    48   am
    24    45    44    1
    25    33    32    2
    26    39    38    1
    27    35    38    1
    28    35    34    1
    29    35    36    1
    30    32    31    1
    31    32    34   am
    32    43    44    1
    33    43    36   am
    34    52    53    1
    35    31    30    2
    36    48    54    1
    37    61    62   ar
    38    61    63   ar
    39    22    21    2
    40    44    47    1
    41    68    69    1
    42    68    66   am
    43    25    24    1
    44    36    37    2
    45    69    70    1
    46    30    21    1
    47    21    20    1
    48    18    16    1
    49    70    71    2
    50    24    23    1
    51    53    54    1
    52    65    66    1
    53    65    64    1
    54    23    20    1
    55    66    67    2
    56    16    17    1
    57    16    13    1
    58    20    19    1
    59    19    14   am
    60    14    13    1
    61    14    15    2
    62    13    12    1
    63   130   131    1
    64    85    84    2
    65    78    77    2
    66    92    90    1
    67    91    90    1
    68   131   134    1
    69   131   132    1
    70    12     3   am
    71    81    79    1
    72    87    90    1
    73    87    86    1
    74    87    88    1
    75    84    83    1
    76    84    86   am
    77    89    88    2
    78   134   135    1
    79   136   135    2
    80    77    82   am
    81    77    76    1
    82    83    82    1
    83   132   133    2
    84   135   137   am
    85    75    76    1
    86    88    93   am
    87   146   144   am
    88     3     2    1
    89     3     4    2
    90    76    79    1
    91    79    80    1
    92   145   144    2
    93   144   143    1
    94     2     1    1
    95     2     5    1
    96     6     5    1
    97     6     7    1
    98    93    94    1
    99   143   142    1
   100    11     9    1
   101     8     7    1
   102     8     9    2
   103   138   139    1
   104    94    95    1
   105   142   139    1
   106     9    10    1
   107   105   104    1
   108   122   120   ar
   109   122   121   ar
   110   139   140    1
   111   120   118   ar
   112   152   151    1
   113   151   148    1
   114   121   119   ar
   115   147   140   am
   116   147   148    1
   117   118   119   ar
   118   118   117    1
   119    95    96    2
   120    95    97   am
   121   140   141    2
   122   117   114    1
   123   148   149    1
   124   174   173    1
   125   174   175    2
   126   104   103    1
   127   103   102    1
   128    97    98    1
   129   173   172    1
   130   129   127    1
   131   114   113    1
   132   114   115    1
   133   149   150    2
   134   149   153   am
   135    98   101    1
   136    98    99    1
   137   102   101    1
   138   172   169   am
   139   113   108   am
   140   115   123   am
   141   115   116    2
   142   123   124    1
   143   127   128    1
   144   127   124    1
   145   106    99   am
   146   106   107    1
   147   153   154    1
   148   124   125    1
   149    99   100    2
   150   170   169    2
   151   169   168    1
   152   110   111    1
   153   110   107    1
   154   110   112    1
   155   108   107    1
   156   108   109    2
   157   156   155    2
   158   154   155    1
   159   154   157    1
   160   168   171    1
   161   168   167    1
   162   125   126    2
   163   162   161    2
   164   158   157    1
   165   167   161   am
   166   161   160    1
   167   163   160    1
   168   163   164    1
   169   160   159    1
   170   164   165    1
   171   164   166    1
