@<TRIPOS>MOLECULE
tmp/5mm9B00.pdb
 138 136 0 0 0
SMALL
GASTEIGER

@<TRIPOS>ATOM
      1  N         36.7070   17.7870   -8.9120 N.3    31  PHE31      -0.1241
      2  CA        35.5200   18.1740   -9.6480 C.3    31  PHE31       0.1605
      3  C         34.4280   17.1510   -9.3890 C.2    31  PHE31       0.2264
      4  O         34.6250   15.9660   -9.6440 O.2    31  PHE31      -0.2867
      5  CB        35.8450   18.2860  -11.1440 C.3    31  PHE31       0.0534
      6  CG        34.7760   18.9740  -11.9610 C.ar   31  PHE31      -0.0203
      7  CD1       34.9280   20.2900  -12.3620 C.ar   31  PHE31      -0.0042
      8  CD2       33.6300   18.2950  -12.3360 C.ar   31  PHE31      -0.0042
      9  CE1       33.9460   20.9220  -13.1230 C.ar   31  PHE31      -0.0003
     10  CE2       32.6510   18.9110  -13.0920 C.ar   31  PHE31      -0.0003
     11  CZ        32.8060   20.2250  -13.4850 C.ar   31  PHE31      -0.0000
     12  N         41.0780   14.8100  -10.7400 N.3    36  TYR36      -0.1228
     13  CA        41.5710   14.6580  -12.1030 C.3    36  TYR36       0.1721
     14  C         42.9580   15.2540  -12.2230 C.2    36  TYR36       0.2437
     15  O         43.1900   16.3320  -11.6950 O.2    36  TYR36      -0.2733
     16  CB        40.6280   15.3520  -13.0970 C.3    36  TYR36       0.0547
     17  CG        39.2220   14.8230  -13.0410 C.ar   36  TYR36      -0.0200
     18  CD1       38.8020   13.8340  -13.9120 C.ar   36  TYR36      -0.0009
     19  CD2       38.3190   15.3020  -12.1020 C.ar   36  TYR36      -0.0009
     20  CE1       37.5040   13.3500  -13.8610 C.ar   36  TYR36       0.0417
     21  CE2       37.0350   14.8200  -12.0320 C.ar   36  TYR36       0.0417
     22  CZ        36.6320   13.8400  -12.9070 C.ar   36  TYR36       0.1957
     23  OH        35.3420   13.3550  -12.8480 O.3    36  TYR36      -0.2866
     24  N         43.8670   14.5730  -12.9300 N.am   37  PRO37      -0.2729
     25  CA        45.1750   15.1490  -13.2290 C.3    37  PRO37       0.1401
     26  C         45.1090   16.0190  -14.4820 C.2    37  PRO37       0.2269
     27  O         44.1800   15.8660  -15.2780 O.2    37  PRO37      -0.2865
     28  CB        46.0200   13.9280  -13.4950 C.3    37  PRO37       0.0296
     29  CG        45.0640   13.0230  -14.2080 C.3    37  PRO37       0.0237
     30  CD        43.7190   13.2620  -13.5870 C.3    37  PRO37       0.0939
     31  N         45.2420   24.7430  -14.2590 N.3    56  TRP56      -0.1241
     32  CA        43.8360   24.4980  -13.8760 C.3    56  TRP56       0.1605
     33  C         43.4710   25.1880  -12.5530 C.2    56  TRP56       0.2264
     34  O         43.1530   24.5390  -11.5330 O.2    56  TRP56      -0.2867
     35  CB        43.5430   23.0050  -13.8040 C.3    56  TRP56       0.0550
     36  CG        42.0700   22.6500  -13.8010 C.ar   56  TRP56       0.0003
     37  CD1       40.9970   23.4940  -13.6800 C.ar   56  TRP56       0.0946
     38  CD2       41.5370   21.3350  -13.9180 C.ar   56  TRP56       0.0152
     39  NE1       39.8230   22.7740  -13.7260 N.ar   56  TRP56      -0.2442
     40  CE2       40.1290   21.4430  -13.8760 C.ar   56  TRP56       0.0810
     41  CE3       42.1140   20.0830  -14.0600 C.ar   56  TRP56       0.0012
     42  CZ2       39.2930   20.3270  -13.9520 C.ar   56  TRP56       0.0191
     43  CZ3       41.2810   18.9680  -14.1440 C.ar   56  TRP56       0.0001
     44  CH2       39.8910   19.1020  -14.1040 C.ar   56  TRP56       0.0015
     45  N         42.9540   25.7000  -25.4730 N.3    83  HIS83      -0.1241
     46  CA        41.5180   25.9020  -25.7390 C.3    83  HIS83       0.1621
     47  C         40.9140   26.6090  -24.5420 C.2    83  HIS83       0.2264
     48  O         41.6390   26.9960  -23.6080 O.2    83  HIS83      -0.2867
     49  CB        40.7570   24.5960  -26.1160 C.3    83  HIS83       0.0745
     50  CG        40.6220   23.5750  -25.0240 C.ar   83  HIS83       0.0817
     51  ND1       41.6340   22.7020  -24.6990 N.ar   83  HIS83      -0.2268
     52  CD2       39.5660   23.2240  -24.2470 C.ar   83  HIS83       0.1154
     53  CE1       41.2320   21.8980  -23.7290 C.ar   83  HIS83       0.1986
     54  NE2       39.9780   22.1880  -23.4400 N.ar   83  HIS83      -0.2212
     55  N         38.6650   26.0300  -22.0930 N.3    85  HIS85      -0.1226
     56  CA        38.2270   25.4320  -20.8390 C.3    85  HIS85       0.1752
     57  C         39.1150   25.8810  -19.6840 C.2    85  HIS85       0.2596
     58  O         40.2690   26.2800  -19.8790 O.2    85  HIS85      -0.2718
     59  CB        38.2300   23.9040  -20.9340 C.3    85  HIS85       0.0759
     60  CG        37.1000   23.3550  -21.7480 C.ar   85  HIS85       0.0818
     61  ND1       37.1240   22.0860  -22.2890 N.ar   85  HIS85      -0.2268
     62  CD2       35.9200   23.9030  -22.1070 C.ar   85  HIS85       0.1154
     63  CE1       35.9990   21.8810  -22.9560 C.ar   85  HIS85       0.1986
     64  NE2       35.2520   22.9610  -22.8580 N.ar   85  HIS85      -0.2212
     65  N         38.5780   25.7620  -18.4700 N.am   86  ASP86      -0.1960
     66  CA        39.2500   26.2750  -17.2870 C.3    86  ASP86       0.1840
     67  C         40.5540   25.5820  -16.9320 C.2    86  ASP86       0.2622
     68  O         41.3940   26.1750  -16.2280 O.2    86  ASP86      -0.2715
     69  CB        38.2980   26.1690  -16.0910 C.3    86  ASP86       0.1450
     70  CG        38.5410   27.2260  -15.0440 C.2    86  ASP86       0.3671
     71  OD1       38.4820   26.8780  -13.8490 O.co2  86  ASP86      -0.2456
     72  OD2       38.7710   28.3910  -15.4120 O.co2  86  ASP86      -0.2456
     73  N         40.7540   24.3560  -17.4020 N.am   87  ASP87      -0.1971
     74  CA        41.9950   23.6480  -17.1430 C.3    87  ASP87       0.1709
     75  C         43.1340   24.1910  -18.0280 C.2    87  ASP87       0.2293
     76  O         44.2960   23.8120  -17.8170 O.2    87  ASP87      -0.2864
     77  CB        41.8370   22.1240  -17.3320 C.3    87  ASP87       0.1436
     78  CG        41.3780   21.7070  -18.7230 C.2    87  ASP87       0.3671
     79  OD1       40.5960   22.4170  -19.3750 O.co2  87  ASP87      -0.2456
     80  OD2       41.8190   20.6150  -19.1450 O.co2  87  ASP87      -0.2456
     81  N         38.0480   17.9620  -29.5550 N.3   148  HIS148     -0.1241
     82  CA        37.5550   18.1370  -28.2060 C.3   148  HIS148      0.1621
     83  C         36.7800   19.4490  -28.0470 C.2   148  HIS148      0.2264
     84  O         35.8330   19.5100  -27.2880 O.2   148  HIS148     -0.2867
     85  CB        38.7520   18.0490  -27.2570 C.3   148  HIS148      0.0745
     86  CG        38.4640   18.5230  -25.8740 C.ar  148  HIS148      0.0817
     87  ND1       37.9060   17.7090  -24.9090 N.ar  148  HIS148     -0.2268
     88  CD2       38.6550   19.7310  -25.2960 C.ar  148  HIS148      0.1154
     89  CE1       37.7750   18.4050  -23.7880 C.ar  148  HIS148      0.1986
     90  NE2       38.2190   19.6330  -23.9960 N.ar  148  HIS148     -0.2212
     91  N         43.8470   18.4490  -24.8960 N.3   167  CYS167     -0.1235
     92  CA        42.6950   17.6300  -24.5530 C.3   167  CYS167      0.1677
     93  C         41.9980   16.9860  -25.7600 C.2   167  CYS167      0.2270
     94  O         41.0500   16.1940  -25.5860 O.2   167  CYS167     -0.2867
     95  CB        41.7240   18.4710  -23.7310 C.3   167  CYS167      0.0956
     96  SG        42.6240   19.1780  -22.2660 S.3   167  CYS167     -0.0801
     97  N         44.7780    9.9080  -23.0450 N.3   171  GLU171     -0.1245
     98  CA        45.7370    8.9140  -22.5560 C.3   171  GLU171      0.1567
     99  C         45.1290    7.5390  -22.7780 C.2   171  GLU171      0.2260
    100  O         43.9110    7.3920  -22.8880 O.2   171  GLU171     -0.2867
    101  CB        46.0910    9.0970  -21.0650 C.3   171  GLU171      0.0388
    102  CG        44.9370    8.8130  -20.0820 C.3   171  GLU171      0.1160
    103  CD        45.3910    8.7720  -18.6350 C.2   171  GLU171      0.3649
    104  OE1       46.5080    8.2860  -18.3640 O.co2 171  GLU171     -0.2457
    105  OE2       44.6240    9.2350  -17.7710 O.co2 171  GLU171     -0.2457
    106  N         42.1730    5.9660  -20.5320 N.3   174  ARG174     -0.1245
    107  CA        40.8190    6.4560  -20.7160 C.3   174  ARG174      0.1563
    108  C         40.2000    5.7740  -21.9190 C.2   174  ARG174      0.2260
    109  O         40.6560    5.9750  -23.0200 O.2   174  ARG174     -0.2867
    110  CB        40.7950    7.9710  -20.9230 C.3   174  ARG174      0.0307
    111  CG        41.2850    8.7310  -19.7020 C.3   174  ARG174      0.0489
    112  CD        41.2910   10.2280  -19.9400 C.3   174  ARG174      0.2205
    113  NE        39.9490   10.7140  -20.2090 N.pl3 174  ARG174     -0.0865
    114  CZ        39.6810   11.9080  -20.7360 C.cat 174  ARG174      0.5346
    115  NH1       40.6660   12.7520  -21.0440 N.pl3 174  ARG174      0.1354
    116  NH2       38.4270   12.2690  -20.9510 N.pl3 174  ARG174      0.1354
    117  N         35.3310   11.9230  -22.1390 N.3   178  GLY178     -0.1210
    118  CA        35.3030   12.8450  -21.0100 C.3   178  GLY178      0.1956
    119  C         34.3140   13.9750  -21.2320 C.2   178  GLY178      0.2611
    120  O         33.1390   13.7340  -21.4740 O.2   178  GLY178     -0.2717
    121  N         34.7790   15.2150  -21.1380 N.am  179  ASN179     -0.1974
    122  CA        33.9150   16.3540  -21.4280 C.3   179  ASN179      0.1688
    123  C         33.8040   16.5120  -22.9310 C.2   179  ASN179      0.2292
    124  O         34.7300   16.9970  -23.5840 O.2   179  ASN179     -0.2864
    125  CB        34.4580   17.6310  -20.7720 C.3   179  ASN179      0.1181
    126  CG        33.6350   18.8800  -21.1140 C.2   179  ASN179      0.2629
    127  OD1       32.6610   18.8240  -21.8670 O.2   179  ASN179     -0.2716
    128  ND2       34.0280   20.0140  -20.5430 N.am  179  ASN179     -0.0877
    129  N         45.4370   15.2200  -20.2020 N.3   209  HIS209     -0.1241
    130  CA        45.2090   14.6100  -18.8870 C.3   209  HIS209      0.1621
    131  C         45.8390   13.2320  -18.9080 C.2   209  HIS209      0.2264
    132  O         45.5360   12.4420  -19.7870 O.2   209  HIS209     -0.2867
    133  CB        43.7210   14.5340  -18.5930 C.3   209  HIS209      0.0745
    134  CG        43.0480   15.8680  -18.6620 C.ar  209  HIS209      0.0817
    135  ND1       43.0110   16.7210  -17.5860 N.ar  209  HIS209     -0.2268
    136  CD2       42.4400   16.5250  -19.6860 C.ar  209  HIS209      0.1154
    137  CE1       42.3790   17.8290  -17.9250 C.ar  209  HIS209      0.1986
    138  NE2       42.0110   17.7310  -19.1910 N.ar  209  HIS209     -0.2212
@<TRIPOS>BOND
     1    81    82    1
     2    82    83    1
     3    82    85    1
     4    83    84    2
     5    85    86    1
     6    49    46    1
     7    49    50    1
     8    86    88   ar
     9    86    87   ar
    10    93    94    2
    11    93    92    1
    12    46    45    1
    13    46    47    1
    14    88    90   ar
    15    50    51   ar
    16    50    52   ar
    17    87    89   ar
    18    91    92    1
    19    51    53   ar
    20    92    95    1
    21    47    48    2
    22    52    54   ar
    23    90    89   ar
    24    95    96    1
    25    53    54   ar
    26   124   123    2
    27    97    98    1
    28   109   108    2
    29    63    64   ar
    30    63    61   ar
    31   123   122    1
    32   100    99    2
    33    64    62   ar
    34    99    98    1
    35    98   101    1
    36    61    60   ar
    37   117   118    1
    38    62    60   ar
    39    55    56    1
    40   108   107    1
    41   127   126    2
    42    60    59    1
    43   120   119    2
    44   122   121    1
    45   122   125    1
    46   119   121   am
    47   119   118    1
    48   126   125    1
    49   126   128   am
    50   101   102    1
    51   115   114    1
    52   116   114    1
    53    59    56    1
    54   110   107    1
    55   110   111    1
    56    56    57    1
    57   114   113    2
    58   107   106    1
    59   113   112    1
    60   129   130    1
    61   102   103    1
    62   112   111    1
    63    58    57    2
    64   132   131    2
    65   136   138   ar
    66   136   134   ar
    67    57    65   am
    68    79    78   ar
    69   138   137   ar
    70    80    78   ar
    71   131   130    1
    72   130   133    1
    73    78    77    1
    74   134   133    1
    75   134   135   ar
    76   103   104   ar
    77   103   105   ar
    78    65    66    1
    79    75    76    2
    80    75    74    1
    81   137   135   ar
    82    73    74    1
    83    73    67   am
    84    77    74    1
    85    66    67    1
    86    66    69    1
    87    67    68    2
    88    69    70    1
    89    72    70   ar
    90    27    26    2
    91    70    71   ar
    92    26    25    1
    93    31    32    1
    94    29    30    1
    95    29    28    1
    96    43    44   ar
    97    43    41   ar
    98    44    42   ar
    99    41    38   ar
   100    42    40   ar
   101    38    40   ar
   102    38    36   ar
   103    18    20   ar
   104    18    17   ar
   105    32    35    1
   106    32    33    1
   107    40    39   ar
   108    20    22   ar
   109    35    36    1
   110    36    37   ar
   111    39    37   ar
   112    30    24    1
   113    28    25    1
   114    11     9   ar
   115    11    10   ar
   116    25    24    1
   117     9     7   ar
   118    16    17    1
   119    16    13    1
   120    10     8   ar
   121    17    19   ar
   122    24    14   am
   123    22    23    1
   124    22    21   ar
   125    33    34    2
   126     7     6   ar
   127     8     6   ar
   128    14    13    1
   129    14    15    2
   130    13    12    1
   131    19    21   ar
   132     6     5    1
   133     5     2    1
   134     2     3    1
   135     2     1    1
   136     4     3    2
