@<TRIPOS>MOLECULE
tmp/5mmaA02.pdb
 109 103 0 0 0
SMALL
GASTEIGER

@<TRIPOS>ATOM
      1  N        -33.3000   53.3260   -5.9690 N.3   249  TYR249     -0.1241
      2  CA       -34.6610   53.8400   -5.9620 C.3   249  TYR249      0.1605
      3  C        -35.4100   53.4110   -7.2160 C.2   249  TYR249      0.2264
      4  O        -34.8650   53.4260   -8.3230 O.2   249  TYR249     -0.2867
      5  CB       -34.6560   55.3660   -5.8680 C.3   249  TYR249      0.0534
      6  CG       -34.4710   55.9020   -4.4690 C.ar  249  TYR249     -0.0201
      7  CD1      -35.5650   56.1200   -3.6400 C.ar  249  TYR249     -0.0009
      8  CD2      -33.2050   56.1950   -3.9760 C.ar  249  TYR249     -0.0009
      9  CE1      -35.4030   56.6090   -2.3560 C.ar  249  TYR249      0.0417
     10  CE2      -33.0340   56.6870   -2.6920 C.ar  249  TYR249      0.0417
     11  CZ       -34.1380   56.8910   -1.8870 C.ar  249  TYR249      0.1957
     12  OH       -33.9800   57.3800   -0.6100 O.3   249  TYR249     -0.2866
     13  N        -40.6920   55.6690   -5.4970 N.3   254  LYS254     -0.1231
     14  CA       -39.9770   56.5880   -4.6100 C.3   254  LYS254      0.1693
     15  C        -39.3180   55.8800   -3.4330 C.2   254  LYS254      0.2592
     16  O        -39.0520   56.5100   -2.4040 O.2   254  LYS254     -0.2718
     17  CB       -40.8820   57.7070   -4.0790 C.3   254  LYS254      0.0285
     18  CG       -41.6530   58.4580   -5.1370 C.3   254  LYS254      0.0035
     19  CD       -40.7340   59.2500   -6.0350 C.3   254  LYS254      0.0206
     20  CE       -41.5490   60.1100   -6.9700 C.3   254  LYS254      0.1093
     21  NZ       -42.5540   60.9050   -6.2070 N.3   254  LYS254     -0.1314
     22  N        -39.0500   54.5800   -3.5500 N.am  255  TYR255     -0.1976
     23  CA       -38.3970   53.8300   -2.4890 C.3   255  TYR255      0.1639
     24  C        -37.4640   52.7960   -3.1000 C.2   255  TYR255      0.2290
     25  O        -37.6140   52.3980   -4.2590 O.2   255  TYR255     -0.2864
     26  CB       -39.4120   53.1370   -1.5680 C.3   255  TYR255      0.0560
     27  CG       -40.3510   54.0920   -0.8740 C.ar  255  TYR255     -0.0198
     28  CD1      -39.9560   54.7860    0.2620 C.ar  255  TYR255     -0.0009
     29  CD2      -41.6350   54.2990   -1.3540 C.ar  255  TYR255     -0.0009
     30  CE1      -40.8150   55.6650    0.8960 C.ar  255  TYR255      0.0417
     31  CE2      -42.4990   55.1750   -0.7300 C.ar  255  TYR255      0.0417
     32  CZ       -42.0860   55.8530    0.3950 C.ar  255  TYR255      0.1957
     33  OH       -42.9500   56.7230    1.0170 O.3   255  TYR255     -0.2866
     34  N        -35.5460   49.7290    1.5590 N.3   259  GLN259     -0.1245
     35  CA       -36.4520   50.5310    2.3760 C.3   259  GLN259      0.1566
     36  C        -37.8000   49.8430    2.5500 C.2   259  GLN259      0.2260
     37  O        -38.3790   49.8710    3.6410 O.2   259  GLN259     -0.2867
     38  CB       -36.6270   51.9170    1.7550 C.3   259  GLN259      0.0367
     39  CG       -35.3820   52.7830    1.8490 C.3   259  GLN259      0.0905
     40  CD       -35.3880   53.9330    0.8650 C.2   259  GLN259      0.2608
     41  OE1      -36.3000   54.0610    0.0480 O.2   259  GLN259     -0.2717
     42  NE2      -34.3640   54.7780    0.9350 N.am  259  GLN259     -0.0878
     43  N        -37.6790   49.3960    6.2450 N.3   263  GLY263     -0.1210
     44  CA       -38.1850   50.6790    6.6840 C.3   263  GLY263      0.1956
     45  C        -37.1290   51.6860    7.0810 C.2   263  GLY263      0.2612
     46  O        -37.4820   52.7680    7.5620 O.2   263  GLY263     -0.2717
     47  N        -35.8510   51.3720    6.8940 N.am  264  ILE264     -0.1965
     48  CA       -34.7680   52.2860    7.2380 C.3   264  ILE264      0.1727
     49  C        -33.5260   51.8550    6.4710 C.2   264  ILE264      0.2616
     50  O        -33.2590   50.6610    6.3170 O.2   264  ILE264     -0.2715
     51  CB       -34.5200   52.3120    8.7650 C.3   264  ILE264      0.0290
     52  CG1      -33.3870   53.2760    9.1160 C.3   264  ILE264      0.0022
     53  CG2      -34.2140   50.9150    9.2790 C.3   264  ILE264      0.0023
     54  CD1      -33.0700   53.3230   10.6010 C.3   264  ILE264      0.0001
     55  N        -32.7730   52.8360    5.9810 N.am  265  ASP265     -0.1971
     56  CA       -31.5270   52.5350    5.2930 C.3   265  ASP265      0.1709
     57  C        -30.4600   52.0820    6.2830 C.2   265  ASP265      0.2293
     58  O        -30.4180   52.5240    7.4340 O.2   265  ASP265     -0.2864
     59  CB       -31.0270   53.7550    4.5200 C.3   265  ASP265      0.1436
     60  CG       -31.7630   53.9560    3.2090 C.2   265  ASP265      0.3671
     61  OD1      -32.3310   52.9730    2.6910 O.co2 265  ASP265     -0.2456
     62  OD2      -31.7650   55.0940    2.6910 O.co2 265  ASP265     -0.2456
     63  N        -30.9590   57.6220    3.5140 N.3   272  ASN272     -0.1240
     64  CA       -32.0350   58.5280    3.8860 C.3   272  ASN272      0.1653
     65  C        -32.1470   58.6130    5.4040 C.2   272  ASN272      0.2266
     66  O        -32.0330   57.6060    6.1060 O.2   272  ASN272     -0.2867
     67  CB       -33.3610   58.0670    3.2860 C.3   272  ASN272      0.1155
     68  CG       -34.4970   59.0210    3.5890 C.2   272  ASN272      0.2627
     69  OD1      -35.1090   58.9570    4.6550 O.2   272  ASN272     -0.2716
     70  ND2      -34.7910   59.9110    2.6480 N.am  272  ASN272     -0.0877
     71  N        -34.7540   60.5880    7.0590 N.3   274  ASP274     -0.1225
     72  CA       -35.9760   61.3250    7.3600 C.3   274  ASP274      0.1805
     73  C        -36.6340   60.8480    8.6500 C.2   274  ASP274      0.2598
     74  O        -37.2830   61.6430    9.3380 O.2   274  ASP274     -0.2718
     75  CB       -36.9560   61.2210    6.1910 C.3   274  ASP274      0.1424
     76  CG       -36.4410   61.9020    4.9360 C.2   274  ASP274      0.3668
     77  OD1      -35.5570   62.7770    5.0530 O.co2 274  ASP274     -0.2456
     78  OD2      -36.9260   61.5670    3.8330 O.co2 274  ASP274     -0.2456
     79  N        -36.4870   59.5690    8.9970 N.am  275  THR275     -0.1953
     80  CA       -37.0880   59.0130   10.2030 C.3   275  THR275      0.1897
     81  C        -36.1020   58.9500   11.3650 C.2   275  THR275      0.2313
     82  O        -36.2360   58.0990   12.2510 O.2   275  THR275     -0.2863
     83  CB       -37.6640   57.6250    9.9230 C.3   275  THR275      0.1794
     84  OG1      -36.6240   56.7620    9.4500 O.3   275  THR275     -0.2208
     85  CG2      -38.7700   57.7070    8.8800 C.3   275  THR275      0.0378
     86  N        -45.0360   53.9180   10.0100 N.3   286  LEU286     -0.1231
     87  CA       -44.9530   54.5680    8.7090 C.3   286  LEU286      0.1693
     88  C        -44.6520   53.5640    7.6030 C.2   286  LEU286      0.2591
     89  O        -45.1450   53.7110    6.4770 O.2   286  LEU286     -0.2718
     90  CB       -43.8850   55.6610    8.7440 C.3   286  LEU286      0.0284
     91  CG       -43.6350   56.4220    7.4430 C.3   286  LEU286      0.0019
     92  CD1      -44.9010   57.1340    6.9930 C.3   286  LEU286      0.0001
     93  CD2      -42.4860   57.4060    7.6110 C.3   286  LEU286      0.0001
     94  N        -43.8560   52.5350    7.9050 N.am  287  LEU287     -0.1980
     95  CA       -43.5280   51.5310    6.8990 C.3   287  LEU287      0.1596
     96  C        -44.7630   50.7450    6.4750 C.2   287  LEU287      0.2287
     97  O        -44.9150   50.4050    5.2950 O.2   287  LEU287     -0.2864
     98  CB       -42.4510   50.5890    7.4330 C.3   287  LEU287      0.0297
     99  CG       -42.1280   49.3740    6.5600 C.3   287  LEU287      0.0022
    100  CD1      -41.5110   49.8110    5.2400 C.3   287  LEU287      0.0001
    101  CD2      -41.2130   48.4110    7.3010 C.3   287  LEU287      0.0001
    102  N        -46.6870   52.8410    4.0520 N.3   290  ILE290     -0.1245
    103  CA       -46.0190   52.9300    2.7580 C.3   290  ILE290      0.1561
    104  C        -46.2660   51.6710    1.9370 C.2   290  ILE290      0.2260
    105  O        -46.5140   51.7400    0.7270 O.2   290  ILE290     -0.2867
    106  CB       -44.5140   53.1920    2.9550 C.3   290  ILE290      0.0252
    107  CG1      -44.2750   54.6370    3.4010 C.3   290  ILE290      0.0019
    108  CG2      -43.7350   52.8740    1.6810 C.3   290  ILE290      0.0019
    109  CD1      -42.8380   54.9250    3.7890 C.3   290  ILE290      0.0001
@<TRIPOS>BOND
     1     4     3    2
     2     3     2    1
     3    20    21    1
     4    20    19    1
     5    19    18    1
     6     1     2    1
     7     2     5    1
     8     5     6    1
     9    13    14    1
    10    18    17    1
    11    14    17    1
    12    14    15    1
    13     6     8   ar
    14     6     7   ar
    15    25    24    2
    16     8    10   ar
    17     7     9   ar
    18    22    15   am
    19    22    23    1
    20    15    16    2
    21    24    23    1
    22    10    11   ar
    23    23    26    1
    24     9    11   ar
    25    11    12    1
    26    26    27    1
    27    29    27   ar
    28    29    31   ar
    29    27    28   ar
    30    31    32   ar
    31    41    40    2
    32    28    30   ar
    33    32    30   ar
    34    32    33    1
    35   105   104    2
    36    40    42   am
    37    40    39    1
    38    34    35    1
    39   108   106    1
    40    38    39    1
    41    38    35    1
    42   104   103    1
    43    35    36    1
    44    36    37    2
    45    70    68   am
    46    61    60   ar
    47    62    60   ar
    48   103   106    1
    49   103   102    1
    50   106   107    1
    51    60    59    1
    52    67    68    1
    53    67    64    1
    54   107   109    1
    55    63    64    1
    56    68    69    2
    57    78    76   ar
    58    64    65    1
    59    59    56    1
    60    76    77   ar
    61    76    75    1
    62   100    99    1
    63    56    55    1
    64    56    57    1
    65    97    96    2
    66    65    66    2
    67    55    49   am
    68    75    72    1
    69    43    44    1
    70    57    58    2
    71    50    49    2
    72    49    48    1
    73    96    95    1
    74    89    88    2
    75    99   101    1
    76    99    98    1
    77    44    45    1
    78    47    45   am
    79    47    48    1
    80    95    98    1
    81    95    94    1
    82    92    91    1
    83    71    72    1
    84    45    46    2
    85    48    51    1
    86    72    73    1
    87    91    93    1
    88    91    90    1
    89    88    94   am
    90    88    87    1
    91    73    79   am
    92    73    74    2
    93    87    90    1
    94    87    86    1
    95    51    52    1
    96    51    53    1
    97    85    83    1
    98    79    80    1
    99    52    54    1
   100    84    83    1
   101    83    80    1
   102    80    81    1
   103    81    82    2
