@<TRIPOS>MOLECULE
tmp/5mmaA00.pdb
 82 79 0 0 0
SMALL
GASTEIGER

@<TRIPOS>ATOM
      1  N        -35.5030   32.1460  -10.2660 N.3   120  ASP120     -0.1225
      2  CA       -35.1600   31.8250  -11.6430 C.3   120  ASP120      0.1805
      3  C        -33.6450   31.7460  -11.7370 C.2   120  ASP120      0.2597
      4  O        -32.9280   32.2140  -10.8470 O.2   120  ASP120     -0.2718
      5  CB       -35.7150   32.8710  -12.6170 C.3   120  ASP120      0.1424
      6  CG       -35.5190   32.4860  -14.0640 C.2   120  ASP120      0.3668
      7  OD1      -35.5910   31.2780  -14.3680 O.co2 120  ASP120     -0.2456
      8  OD2      -35.2890   33.3930  -14.8930 O.co2 120  ASP120     -0.2456
      9  N        -33.1650   31.1390  -12.8160 N.am  121  TYR121     -0.1976
     10  CA       -31.7400   31.0560  -13.0870 C.3   121  TYR121      0.1639
     11  C        -31.3640   31.9730  -14.2420 C.2   121  TYR121      0.2290
     12  O        -32.1630   32.2240  -15.1510 O.2   121  TYR121     -0.2864
     13  CB       -31.3110   29.6200  -13.4020 C.3   121  TYR121      0.0560
     14  CG       -30.9420   28.8270  -12.1700 C.ar  121  TYR121     -0.0198
     15  CD1      -29.7020   28.9900  -11.5660 C.ar  121  TYR121     -0.0009
     16  CD2      -31.8330   27.9240  -11.6050 C.ar  121  TYR121     -0.0009
     17  CE1      -29.3590   28.2730  -10.4350 C.ar  121  TYR121      0.0417
     18  CE2      -31.4990   27.2030  -10.4720 C.ar  121  TYR121      0.0417
     19  CZ       -30.2600   27.3840   -9.8920 C.ar  121  TYR121      0.1957
     20  OH       -29.9180   26.6720   -8.7670 O.3   121  TYR121     -0.2866
     21  N        -40.6270   29.2440  -12.8020 N.3   177  ASP177     -0.1225
     22  CA       -41.0030   28.6130  -14.0580 C.3   177  ASP177      0.1805
     23  C        -40.8830   27.0970  -13.9200 C.2   177  ASP177      0.2598
     24  O        -40.5620   26.5640  -12.8540 O.2   177  ASP177     -0.2718
     25  CB       -40.1540   29.1480  -15.2150 C.3   177  ASP177      0.1424
     26  CG       -38.6550   28.9390  -15.0110 C.2   177  ASP177      0.3668
     27  OD1      -38.2440   27.9070  -14.4350 O.co2 177  ASP177     -0.2456
     28  OD2      -37.8790   29.8170  -15.4460 O.co2 177  ASP177     -0.2456
     29  N        -41.1260   26.3890  -15.0220 N.am  178  GLN178     -0.1965
     30  CA       -41.0960   24.9320  -15.0060 C.3   178  GLN178      0.1733
     31  C        -39.7440   24.3630  -15.4180 C.2   178  GLN178      0.2616
     32  O        -39.6800   23.2520  -15.9630 O.2   178  GLN178     -0.2715
     33  CB       -42.2210   24.3780  -15.8790 C.3   178  GLN178      0.0408
     34  CG       -43.6010   24.6630  -15.2920 C.3   178  GLN178      0.0908
     35  CD       -44.7230   23.9870  -16.0490 C.2   178  GLN178      0.2608
     36  OE1      -44.5120   22.9900  -16.7380 O.2   178  GLN178     -0.2717
     37  NE2      -45.9270   24.5300  -15.9260 N.am  178  GLN178     -0.0878
     38  N        -38.6580   25.0860  -15.1530 N.am  179  GLY179     -0.1955
     39  CA       -37.3350   24.5260  -15.3450 C.3   179  GLY179      0.1869
     40  C        -37.0890   23.3200  -14.4570 C.2   179  GLY179      0.2309
     41  O        -37.7440   23.1150  -13.4320 O.2   179  GLY179     -0.2863
     42  N        -43.6390   27.6040  -20.8180 N.3   204  TYR204     -0.1241
     43  CA       -43.1320   28.4090  -21.9310 C.3   204  TYR204      0.1605
     44  C        -43.7530   29.8050  -21.9540 C.2   204  TYR204      0.2264
     45  O        -44.2370   30.2800  -22.9830 O.2   204  TYR204     -0.2867
     46  CB       -43.3610   27.6920  -23.2640 C.3   204  TYR204      0.0534
     47  CG       -42.7830   26.2950  -23.3110 C.ar  204  TYR204     -0.0201
     48  CD1      -41.4160   26.0940  -23.4320 C.ar  204  TYR204     -0.0009
     49  CD2      -43.6050   25.1770  -23.2290 C.ar  204  TYR204     -0.0009
     50  CE1      -40.8800   24.8210  -23.4730 C.ar  204  TYR204      0.0417
     51  CE2      -43.0780   23.8980  -23.2710 C.ar  204  TYR204      0.0417
     52  CZ       -41.7120   23.7270  -23.3920 C.ar  204  TYR204      0.1957
     53  OH       -41.1730   22.4600  -23.4360 O.3   204  TYR204     -0.2866
     54  N        -42.3990   33.0560  -19.9380 N.3   206  PRO206     -0.2102
     55  CA       -41.5920   33.7860  -18.9440 C.3   206  PRO206      0.1504
     56  C        -42.2380   35.0650  -18.4300 C.2   206  PRO206      0.2575
     57  O        -41.7810   35.5930  -17.4060 O.2   206  PRO206     -0.2718
     58  CB       -40.2870   34.0760  -19.6970 C.3   206  PRO206      0.0282
     59  CG       -40.6490   33.9720  -21.1560 C.3   206  PRO206      0.0208
     60  CD       -41.6990   32.9090  -21.2260 C.3   206  PRO206      0.0893
     61  N        -43.2740   35.5850  -19.1020 N.am  207  GLN207     -0.1980
     62  CA       -44.0030   36.7230  -18.5530 C.3   207  GLN207      0.1601
     63  C        -44.4910   36.4360  -17.1360 C.2   207  GLN207      0.2287
     64  O        -44.5120   37.3350  -16.2880 O.2   207  GLN207     -0.2864
     65  CB       -45.1840   37.0810  -19.4580 C.3   207  GLN207      0.0394
     66  CG       -44.8020   37.5580  -20.8510 C.3   207  GLN207      0.0908
     67  CD       -44.5930   36.4210  -21.8370 C.2   207  GLN207      0.2608
     68  OE1      -43.9130   35.4370  -21.5430 O.2   207  GLN207     -0.2717
     69  NE2      -45.1780   36.5560  -23.0200 N.am  207  GLN207     -0.0878
     70  N        -42.3450   37.4610  -14.5720 N.3   210  GLY210     -0.1225
     71  CA       -41.8430   38.7710  -14.9630 C.3   210  GLY210      0.1811
     72  C        -41.1990   39.5520  -13.8350 C.2   210  GLY210      0.2280
     73  O        -40.3500   40.4150  -14.0780 O.2   210  GLY210     -0.2866
     74  N        -37.6670   38.0460  -13.9400 N.3   213  GLU213     -0.1245
     75  CA       -37.1010   38.3130  -15.2580 C.3   213  GLU213      0.1567
     76  C        -36.6750   39.7690  -15.3720 C.2   213  GLU213      0.2260
     77  O        -35.5590   40.0700  -15.8080 O.2   213  GLU213     -0.2867
     78  CB       -38.1070   37.9510  -16.3550 C.3   213  GLU213      0.0388
     79  CG       -38.6200   36.5100  -16.3040 C.3   213  GLU213      0.1160
     80  CD       -37.5400   35.4670  -16.5650 C.2   213  GLU213      0.3649
     81  OE1      -36.3810   35.8350  -16.8550 O.co2 213  GLU213     -0.2457
     82  OE2      -37.8560   34.2640  -16.4830 O.co2 213  GLU213     -0.2457
@<TRIPOS>BOND
     1    50    48   ar
     2    50    52   ar
     3    53    52    1
     4    48    47   ar
     5    52    51   ar
     6    47    46    1
     7    47    49   ar
     8    51    49   ar
     9    46    43    1
    10    69    67   am
    11    45    44    2
    12    44    43    1
    13    43    42    1
    14    67    68    2
    15    67    66    1
    16    60    59    1
    17    60    54    1
    18    59    58    1
    19    66    65    1
    20    54    55    1
    21    58    55    1
    22    65    62    1
    23    61    62    1
    24    61    56   am
    25    55    56    1
    26    62    63    1
    27    56    57    2
    28    63    64    2
    29    81    80   ar
    30    36    35    2
    31    80    82   ar
    32    80    79    1
    33    78    79    1
    34    78    75    1
    35    35    37   am
    36    35    34    1
    37    32    31    2
    38    33    34    1
    39    33    30    1
    40    77    76    2
    41    28    26   ar
    42    31    38   am
    43    31    30    1
    44    76    75    1
    45    39    38    1
    46    39    40    1
    47    75    74    1
    48    25    26    1
    49    25    22    1
    50    12    11    2
    51    29    30    1
    52    29    23   am
    53    26    27   ar
    54    71    70    1
    55    71    72    1
    56     8     6   ar
    57    40    41    2
    58     7     6   ar
    59    11    10    1
    60    73    72    2
    61     6     5    1
    62    22    23    1
    63    22    21    1
    64    23    24    2
    65    13    10    1
    66    13    14    1
    67    10     9    1
    68     9     3   am
    69     5     2    1
    70    14    16   ar
    71    14    15   ar
    72     3     2    1
    73     3     4    2
    74     2     1    1
    75    16    18   ar
    76    15    17   ar
    77    18    19   ar
    78    17    19   ar
    79    19    20    1
