@<TRIPOS>MOLECULE
tmp/5mmbA00.pdb
 105 102 0 0 0
SMALL
GASTEIGER

@<TRIPOS>ATOM
      1  N        -36.1690   32.6740  -10.3800 N.3   120  ASP120     -0.1225
      2  CA       -35.8370   32.3810  -11.7670 C.3   120  ASP120      0.1805
      3  C        -34.3210   32.3080  -11.8720 C.2   120  ASP120      0.2597
      4  O        -33.6010   32.7880  -10.9910 O.2   120  ASP120     -0.2718
      5  CB       -36.3950   33.4490  -12.7210 C.3   120  ASP120      0.1424
      6  CG       -36.2580   33.0630  -14.1830 C.2   120  ASP120      0.3668
      7  OD1      -36.4540   31.8730  -14.5050 O.co2 120  ASP120     -0.2456
      8  OD2      -35.9440   33.9460  -15.0110 O.co2 120  ASP120     -0.2456
      9  N        -33.8440   31.6960  -12.9510 N.am  121  TYR121     -0.1976
     10  CA       -32.4190   31.6020  -13.2220 C.3   121  TYR121      0.1639
     11  C        -32.0450   32.4960  -14.3960 C.2   121  TYR121      0.2290
     12  O        -32.8120   32.6400  -15.3530 O.2   121  TYR121     -0.2864
     13  CB       -32.0000   30.1610  -13.5220 C.3   121  TYR121      0.0560
     14  CG       -31.6240   29.3720  -12.2920 C.ar  121  TYR121     -0.0198
     15  CD1      -30.4080   29.5810  -11.6530 C.ar  121  TYR121     -0.0009
     16  CD2      -32.4830   28.4150  -11.7680 C.ar  121  TYR121     -0.0009
     17  CE1      -30.0610   28.8630  -10.5250 C.ar  121  TYR121      0.0417
     18  CE2      -32.1440   27.6920  -10.6420 C.ar  121  TYR121      0.0417
     19  CZ       -30.9320   27.9200  -10.0250 C.ar  121  TYR121      0.1957
     20  OH       -30.5870   27.2020   -8.9020 O.3   121  TYR121     -0.2866
     21  N        -41.2730   29.8470  -12.8000 N.3   177  ASP177     -0.1225
     22  CA       -41.7300   29.2830  -14.0590 C.3   177  ASP177      0.1805
     23  C        -41.6000   27.7620  -13.9960 C.2   177  ASP177      0.2598
     24  O        -41.2170   27.1880  -12.9740 O.2   177  ASP177     -0.2718
     25  CB       -40.9690   29.8910  -15.2420 C.3   177  ASP177      0.1424
     26  CG       -39.4590   29.6660  -15.1740 C.2   177  ASP177      0.3668
     27  OD1      -39.0030   28.6250  -14.6600 O.co2 177  ASP177     -0.2456
     28  OD2      -38.7170   30.5460  -15.6630 O.co2 177  ASP177     -0.2456
     29  N        -41.9180   27.0880  -15.1000 N.am  178  GLN178     -0.1965
     30  CA       -41.8950   25.6310  -15.1160 C.3   178  GLN178      0.1733
     31  C        -40.5540   25.0660  -15.5670 C.2   178  GLN178      0.2617
     32  O        -40.5120   24.0230  -16.2350 O.2   178  GLN178     -0.2715
     33  CB       -43.0410   25.0950  -15.9720 C.3   178  GLN178      0.0408
     34  CG       -44.3960   25.2520  -15.2850 C.3   178  GLN178      0.0908
     35  CD       -45.5270   24.5610  -16.0160 C.2   178  GLN178      0.2608
     36  OE1      -45.3170   23.5740  -16.7220 O.2   178  GLN178     -0.2717
     37  NE2      -46.7390   25.0770  -15.8490 N.am  178  GLN178     -0.0878
     38  N        -39.4520   25.7200  -15.2080 N.am  179  GLY179     -0.1940
     39  CA       -38.1440   25.1440  -15.4530 C.3   179  GLY179      0.2014
     40  C        -37.9180   23.8950  -14.6230 C.2   179  GLY179      0.2638
     41  O        -38.6140   23.6300  -13.6420 O.2   179  GLY179     -0.2714
     42  N        -36.9060   23.1250  -15.0240 N.am  180  ALA180     -0.1977
     43  CA       -36.7030   21.8000  -14.4480 C.3   180  ALA180      0.1597
     44  C        -36.3390   21.8680  -12.9690 C.2   180  ALA180      0.2287
     45  O        -36.7740   21.0190  -12.1810 O.2   180  ALA180     -0.2864
     46  CB       -35.6230   21.0510  -15.2300 C.3   180  ALA180      0.0319
     47  N        -47.1420   27.4780  -18.6640 N.3   203  PRO203     -0.2102
     48  CA       -45.9190   27.1190  -19.3820 C.3   203  PRO203      0.1504
     49  C        -45.6170   28.0680  -20.5290 C.2   203  PRO203      0.2575
     50  O        -46.5150   28.5750  -21.2040 O.2   203  PRO203     -0.2718
     51  CB       -46.2150   25.7060  -19.9000 C.3   203  PRO203      0.0282
     52  CG       -47.7030   25.6490  -19.9930 C.3   203  PRO203      0.0208
     53  CD       -48.2060   26.4740  -18.8420 C.3   203  PRO203      0.0893
     54  N        -44.3180   28.3100  -20.7310 N.am  204  TYR204     -0.1977
     55  CA       -43.8110   29.0810  -21.8660 C.3   204  TYR204      0.1639
     56  C        -44.4880   30.4480  -21.9500 C.2   204  TYR204      0.2290
     57  O        -44.9860   30.8660  -22.9980 O.2   204  TYR204     -0.2864
     58  CB       -43.9650   28.2960  -23.1630 C.3   204  TYR204      0.0560
     59  CG       -43.3550   26.9130  -23.0850 C.ar  204  TYR204     -0.0198
     60  CD1      -41.9960   26.7210  -23.2920 C.ar  204  TYR204     -0.0009
     61  CD2      -44.1350   25.8040  -22.7830 C.ar  204  TYR204     -0.0009
     62  CE1      -41.4320   25.4630  -23.2100 C.ar  204  TYR204      0.0417
     63  CE2      -43.5810   24.5430  -22.6990 C.ar  204  TYR204      0.0417
     64  CZ       -42.2290   24.3780  -22.9130 C.ar  204  TYR204      0.1957
     65  OH       -41.6690   23.1240  -22.8320 O.3   204  TYR204     -0.2866
     66  N        -43.1680   33.7790  -19.9590 N.3   206  PRO206     -0.2102
     67  CA       -42.3680   34.4710  -18.9340 C.3   206  PRO206      0.1504
     68  C        -43.0060   35.7370  -18.3850 C.2   206  PRO206      0.2575
     69  O        -42.5580   36.2190  -17.3350 O.2   206  PRO206     -0.2718
     70  CB       -41.0460   34.7730  -19.6580 C.3   206  PRO206      0.0282
     71  CG       -41.3220   34.5630  -21.1210 C.3   206  PRO206      0.0208
     72  CD       -42.4050   33.5370  -21.1930 C.3   206  PRO206      0.0893
     73  N        -44.0200   36.2970  -19.0560 N.am  207  GLN207     -0.1980
     74  CA       -44.7150   37.4530  -18.4990 C.3   207  GLN207      0.1601
     75  C        -45.2120   37.1590  -17.0900 C.2   207  GLN207      0.2287
     76  O        -45.2170   38.0450  -16.2260 O.2   207  GLN207     -0.2864
     77  CB       -45.8790   37.8580  -19.4080 C.3   207  GLN207      0.0394
     78  CG       -45.4790   38.2840  -20.8210 C.3   207  GLN207      0.0908
     79  CD       -45.3440   37.1070  -21.7670 C.2   207  GLN207      0.2608
     80  OE1      -44.6110   36.1580  -21.4930 O.2   207  GLN207     -0.2717
     81  NE2      -46.0650   37.1570  -22.8810 N.am  207  GLN207     -0.0878
     82  N        -43.0770   38.0400  -14.4630 N.3   210  GLY210     -0.1225
     83  CA       -42.5650   39.3230  -14.9230 C.3   210  GLY210      0.1811
     84  C        -41.8550   40.1300  -13.8560 C.2   210  GLY210      0.2280
     85  O        -40.9920   40.9540  -14.1710 O.2   210  GLY210     -0.2866
     86  N        -38.3500   38.5470  -13.8180 N.3   213  GLU213     -0.1245
     87  CA       -37.7780   38.7540  -15.1460 C.3   213  GLU213      0.1567
     88  C        -37.3500   40.2040  -15.3370 C.2   213  GLU213      0.2260
     89  O        -36.2820   40.4730  -15.8950 O.2   213  GLU213     -0.2867
     90  CB       -38.7730   38.3420  -16.2350 C.3   213  GLU213      0.0388
     91  CG       -39.2030   36.8740  -16.2110 C.3   213  GLU213      0.1160
     92  CD       -38.0870   35.9040  -16.5690 C.2   213  GLU213      0.3649
     93  OE1      -36.9820   36.3490  -16.9460 O.co2 213  GLU213     -0.2457
     94  OE2      -38.3220   34.6820  -16.4730 O.co2 213  GLU213     -0.2457
     95  N        -41.5790   23.9280  -28.8710 N.3   321  ARG321     -0.1245
     96  CA       -40.3290   24.0660  -29.6160 C.3   321  ARG321      0.1563
     97  C        -40.5100   23.3680  -30.9600 C.2   321  ARG321      0.2260
     98  O        -39.9950   22.2600  -31.1860 O.2   321  ARG321     -0.2867
     99  CB       -39.1530   23.5150  -28.8060 C.3   321  ARG321      0.0307
    100  CG       -38.6070   24.5720  -27.8570 C.3   321  ARG321      0.0489
    101  CD       -38.0880   24.0270  -26.5430 C.3   321  ARG321      0.2205
    102  NE       -37.5820   25.1300  -25.7300 N.pl3 321  ARG321     -0.0865
    103  CZ       -37.4650   25.1050  -24.4070 C.cat 321  ARG321      0.5346
    104  NH1      -37.8240   24.0270  -23.7250 N.pl3 321  ARG321      0.1354
    105  NH2      -36.9960   26.1660  -23.7640 N.pl3 321  ARG321      0.1354
@<TRIPOS>BOND
     1    98    97    2
     2    97    96    1
     3    96    95    1
     4    96    99    1
     5    99   100    1
     6   100   101    1
     7   101   102    1
     8   102   103    2
     9   103   105    1
    10   103   104    1
    11    60    62   ar
    12    60    59   ar
    13    62    64   ar
    14    58    59    1
    15    58    55    1
    16    59    61   ar
    17    57    56    2
    18    64    65    1
    19    64    63   ar
    20    81    79   am
    21    61    63   ar
    22    56    55    1
    23    55    54    1
    24    79    80    2
    25    79    78    1
    26    50    49    2
    27    72    71    1
    28    72    66    1
    29    71    70    1
    30    78    77    1
    31    54    49   am
    32    49    48    1
    33    52    51    1
    34    52    53    1
    35    66    67    1
    36    51    48    1
    37    70    67    1
    38    77    74    1
    39    48    47    1
    40    73    74    1
    41    73    68   am
    42    67    68    1
    43    53    47    1
    44    74    75    1
    45    68    69    2
    46    75    76    2
    47    93    92   ar
    48    36    35    2
    49    92    94   ar
    50    92    91    1
    51    32    31    2
    52    90    91    1
    53    90    87    1
    54    35    37   am
    55    35    34    1
    56    33    34    1
    57    33    30    1
    58    89    88    2
    59    28    26   ar
    60    31    38   am
    61    31    30    1
    62    39    38    1
    63    39    40    1
    64    12    11    2
    65    88    87    1
    66    25    26    1
    67    25    22    1
    68    46    43    1
    69    26    27   ar
    70    87    86    1
    71    30    29    1
    72    29    23   am
    73    42    40   am
    74    42    43    1
    75     8     6   ar
    76    83    82    1
    77    83    84    1
    78    40    41    2
    79     7     6   ar
    80    43    44    1
    81    11    10    1
    82     6     5    1
    83    85    84    2
    84    22    23    1
    85    22    21    1
    86    23    24    2
    87    13    10    1
    88    13    14    1
    89    10     9    1
    90    44    45    2
    91     9     3   am
    92     5     2    1
    93    14    16   ar
    94    14    15   ar
    95     3     2    1
    96     3     4    2
    97    16    18   ar
    98     2     1    1
    99    15    17   ar
   100    18    19   ar
   101    17    19   ar
   102    19    20    1
