@<TRIPOS>MOLECULE
tmp/5mmeA00.pdb
 158 152 0 0 0
SMALL
GASTEIGER

@<TRIPOS>ATOM
      1  N          2.1270   -8.4190   13.1380 N.3    28  PRO28      -0.2116
      2  CA         3.3380   -9.0650   12.6150 C.3    28  PRO28       0.1372
      3  C          3.7270   -8.7250   11.1820 C.2    28  PRO28       0.2244
      4  O          4.7170   -9.2860   10.7130 O.2    28  PRO28      -0.2868
      5  CB         2.9680  -10.5490   12.6760 C.3    28  PRO28       0.0268
      6  CG         1.5070  -10.5520   12.3640 C.3    28  PRO28       0.0207
      7  CD         0.9450   -9.2940   13.0070 C.3    28  PRO28       0.0892
      8  N          7.3500   -8.0290   10.2570 N.3    31  LEU31      -0.1231
      9  CA         8.4050   -8.9120   10.7410 C.3    31  LEU31       0.1678
     10  C          9.2500   -9.5260    9.6360 C.2    31  LEU31       0.2434
     11  O         10.4760   -9.6110    9.8190 O.2    31  LEU31      -0.2733
     12  CB         7.8290   -9.9930   11.6650 C.3    31  LEU31       0.0284
     13  CG         7.2100   -9.4800   12.9620 C.3    31  LEU31       0.0019
     14  CD1        6.7640  -10.6510   13.8170 C.3    31  LEU31       0.0001
     15  CD2        8.1710   -8.5850   13.7210 C.3    31  LEU31       0.0001
     16  N          8.7040   -9.9690    8.5020 N.am   32  PRO32      -0.2718
     17  CA         9.5780  -10.5340    7.4610 C.3    32  PRO32       0.1535
     18  C         10.4840   -9.5190    6.7970 C.2    32  PRO32       0.2599
     19  O         11.3830   -9.9270    6.0420 O.2    32  PRO32      -0.2715
     20  CB         8.5880  -11.0860    6.4340 C.3    32  PRO32       0.0310
     21  CG         7.3020  -11.2860    7.1840 C.3    32  PRO32       0.0237
     22  CD         7.2760  -10.1350    8.1380 C.3    32  PRO32       0.0939
     23  N         10.2710   -8.2250    7.0390 N.am   33  PHE33      -0.1960
     24  CA        10.9000   -7.1550    6.2810 C.3    33  PHE33       0.1771
     25  C         11.8550   -6.3300    7.1230 C.2    33  PHE33       0.2619
     26  O         12.4620   -5.3870    6.6030 O.2    33  PHE33      -0.2715
     27  CB         9.8060   -6.2600    5.6830 C.3    33  PHE33       0.0574
     28  CG         8.8540   -7.0080    4.8200 C.ar   33  PHE33      -0.0200
     29  CD1        9.1760   -7.2800    3.5080 C.ar   33  PHE33      -0.0042
     30  CD2        7.6600   -7.4900    5.3300 C.ar   33  PHE33      -0.0042
     31  CE1        8.3020   -7.9870    2.7020 C.ar   33  PHE33      -0.0003
     32  CE2        6.7820   -8.2160    4.5220 C.ar   33  PHE33      -0.0003
     33  CZ         7.1150   -8.4660    3.2140 C.ar   33  PHE33      -0.0000
     34  N         12.0240   -6.6650    8.3990 N.am   34  ARG34      -0.1963
     35  CA        12.8110   -5.8160    9.2790 C.3    34  ARG34       0.1729
     36  C         14.3060   -6.0790    9.1940 C.2    34  ARG34       0.2616
     37  O         15.0820   -5.3370    9.8060 O.2    34  ARG34      -0.2715
     38  CB        12.3530   -5.9850   10.7240 C.3    34  ARG34       0.0348
     39  CG        11.0200   -5.3390   11.0300 C.3    34  ARG34       0.0492
     40  CD        10.6270   -5.6690   12.4460 C.3    34  ARG34       0.2205
     41  NE         9.3430   -5.0870   12.8020 N.pl3  34  ARG34      -0.0865
     42  CZ         8.8550   -5.1130   14.0380 C.cat  34  ARG34       0.5346
     43  NH1        9.5580   -5.6940   15.0040 N.pl3  34  ARG34       0.1354
     44  NH2        7.6730   -4.5600   14.3070 N.pl3  34  ARG34       0.1354
     45  N         14.7300   -7.0990    8.4610 N.am   35  GLN35      -0.1977
     46  CA        16.1340   -7.4510    8.3330 C.3    35  GLN35       0.1601
     47  C         16.3230   -8.0360    6.9480 C.2    35  GLN35       0.2287
     48  O         15.3530   -8.4810    6.3290 O.2    35  GLN35      -0.2864
     49  CB        16.5360   -8.4800    9.3970 C.3    35  GLN35       0.0394
     50  CG        15.7180   -9.7760    9.3440 C.3    35  GLN35       0.0908
     51  CD        14.2940   -9.5960    9.8650 C.2    35  GLN35       0.2608
     52  OE1       14.0840   -9.0580   10.9610 O.2    35  GLN35      -0.2717
     53  NE2       13.3110  -10.0010    9.0640 N.am   35  GLN35      -0.0878
     54  N         16.7950  -10.5630    4.0330 N.3    37  VAL37      -0.1245
     55  CA        16.5820  -11.9960    3.8620 C.3    37  VAL37       0.1561
     56  C         17.9190  -12.7200    3.9590 C.2    37  VAL37       0.2260
     57  O         18.8960  -12.3440    3.2950 O.2    37  VAL37      -0.2867
     58  CB        15.9210  -12.2490    2.5000 C.3    37  VAL37       0.0252
     59  CG1       15.9280  -13.7430    2.1770 C.3    37  VAL37       0.0019
     60  CG2       14.5110  -11.6720    2.4790 C.3    37  VAL37       0.0019
     61  N         16.8250  -18.9620    6.7070 N.3    42  LEU42      -0.1245
     62  CA        15.3820  -19.0570    6.5490 C.3    42  LEU42       0.1561
     63  C         14.9570  -20.3270    5.8320 C.2    42  LEU42       0.2260
     64  O         13.7610  -20.6240    5.8050 O.2    42  LEU42      -0.2867
     65  CB        14.8520  -17.8340    5.7830 C.3    42  LEU42       0.0270
     66  CG        14.9660  -16.5160    6.5390 C.3    42  LEU42       0.0019
     67  CD1       14.5860  -15.4180    5.5760 C.3    42  LEU42       0.0001
     68  CD2       14.0720  -16.4770    7.7840 C.3    42  LEU42       0.0001
     69  N         15.3840  -20.9450    2.4650 N.3    44  ILE44      -0.1245
     70  CA        14.9450  -20.6380    1.1020 C.3    44  ILE44       0.1561
     71  C         16.1750  -20.3790    0.2360 C.2    44  ILE44       0.2260
     72  O         16.4090  -19.2430   -0.2110 O.2    44  ILE44      -0.2867
     73  CB        13.9540  -19.4640    1.0870 C.3    44  ILE44       0.0252
     74  CG1       14.4590  -18.3070    1.9500 C.3    44  ILE44       0.0019
     75  CG2       12.5940  -19.9230    1.6030 C.3    44  ILE44       0.0019
     76  CD1       13.6530  -17.0410    1.7730 C.3    44  ILE44       0.0001
     77  N         16.7410  -18.0030   -3.0010 N.3    47  TYR47      -0.1241
     78  CA        16.2390  -16.6310   -2.9500 C.3    47  TYR47       0.1605
     79  C         16.9810  -15.7010   -3.9020 C.2    47  TYR47       0.2264
     80  O         16.3570  -14.9990   -4.7080 O.2    47  TYR47      -0.2867
     81  CB        16.3280  -16.1080   -1.5200 C.3    47  TYR47       0.0534
     82  CG        15.7470  -14.7230   -1.3770 C.ar   47  TYR47      -0.0201
     83  CD1       14.3680  -14.5260   -1.3710 C.ar   47  TYR47      -0.0009
     84  CD2       16.5770  -13.6050   -1.2870 C.ar   47  TYR47      -0.0009
     85  CE1       13.8270  -13.2620   -1.2600 C.ar   47  TYR47       0.0417
     86  CE2       16.0540  -12.3400   -1.1650 C.ar   47  TYR47       0.0417
     87  CZ        14.6780  -12.1760   -1.1560 C.ar   47  TYR47       0.1957
     88  OH        14.1580  -10.9130   -1.0450 O.3    47  TYR47      -0.2866
     89  N         16.3020   -5.7740   -0.6940 N.3    55  MET55      -0.1245
     90  CA        16.0490   -4.5610    0.0710 C.3    55  MET55       0.1570
     91  C         15.1540   -4.9140    1.2500 C.2    55  MET55       0.2261
     92  O         14.3310   -5.8260    1.1660 O.2    55  MET55      -0.2867
     93  CB        15.3780   -3.5060   -0.8190 C.3    55  MET55       0.0387
     94  CG        15.2460   -2.0970   -0.2190 C.3    55  MET55       0.0595
     95  SD        16.7640   -1.4340    0.4810 S.3    55  MET55      -0.1393
     96  CE        17.8660   -1.4960   -0.9300 C.3    55  MET55       0.0692
     97  N         11.5650   -3.3670   -2.1740 N.3    82  MET82      -0.1245
     98  CA        11.3410   -4.3500   -1.1230 C.3    82  MET82       0.1570
     99  C         10.0120   -5.0760   -1.3100 C.2    82  MET82       0.2261
    100  O          9.9510   -6.3060   -1.1890 O.2    82  MET82      -0.2867
    101  CB        11.3680   -3.6270    0.2200 C.3    82  MET82       0.0387
    102  CG        10.9600   -4.4750    1.4090 C.3    82  MET82       0.0595
    103  SD        10.9970   -3.5640    2.9700 S.3    82  MET82      -0.1393
    104  CE         9.5130   -2.5900    2.7760 C.3    82  MET82       0.0692
    105  N          9.3040   -9.2100   -2.5920 N.3    86  ALA86      -0.1245
    106  CA         8.5350  -10.1870   -1.8360 C.3    86  ALA86       0.1562
    107  C          7.3750  -10.7450   -2.6510 C.2    86  ALA86       0.2260
    108  O          7.0550  -11.9300   -2.5410 O.2    86  ALA86      -0.2867
    109  CB         8.0560   -9.5720   -0.5240 C.3    86  ALA86       0.0290
    110  N          8.9760  -13.2950   -5.1190 N.3    89  TYR89      -0.1227
    111  CA         9.5390  -14.5240   -4.5860 C.3    89  TYR89       0.1736
    112  C          8.5030  -15.4120   -3.9010 C.2    89  TYR89       0.2595
    113  O          8.6150  -16.6420   -3.9600 O.2    89  TYR89      -0.2718
    114  CB        10.6730  -14.2130   -3.5950 C.3    89  TYR89       0.0548
    115  CG        11.2730  -15.5000   -3.1020 C.ar   89  TYR89      -0.0200
    116  CD1       12.1180  -16.2360   -3.9230 C.ar   89  TYR89      -0.0009
    117  CD2       10.9090  -16.0490   -1.8720 C.ar   89  TYR89      -0.0009
    118  CE1       12.6270  -17.4550   -3.5230 C.ar   89  TYR89       0.0417
    119  CE2       11.4150  -17.2690   -1.4680 C.ar   89  TYR89       0.0417
    120  CZ        12.2710  -17.9590   -2.2970 C.ar   89  TYR89       0.1957
    121  OH        12.7760  -19.1890   -1.9070 O.3    89  TYR89      -0.2866
    122  N          7.5380  -14.8130   -3.2000 N.am   90  ASN90      -0.1974
    123  CA         6.5850  -15.5570   -2.3840 C.3    90  ASN90       0.1688
    124  C          5.2750  -15.7500   -3.1380 C.2    90  ASN90       0.2292
    125  O          4.8820  -14.9170   -3.9540 O.2    90  ASN90      -0.2864
    126  CB         6.3170  -14.7820   -1.0890 C.3    90  ASN90       0.1181
    127  CG         7.5730  -14.6030   -0.2670 C.2    90  ASN90       0.2629
    128  OD1        7.9870  -15.5080    0.4610 O.2    90  ASN90      -0.2716
    129  ND2        8.2080  -13.4590   -0.4090 N.am   90  ASN90      -0.0877
    130  N          1.9910  -16.3140    3.9720 N.3    95  ARG95      -0.1231
    131  CA         1.8060  -15.2060    4.8930 C.3    95  ARG95       0.1694
    132  C          2.6950  -14.0260    4.5290 C.2    95  ARG95       0.2591
    133  O          2.2710  -12.8700    4.6540 O.2    95  ARG95      -0.2718
    134  CB         1.9950  -15.6500    6.3420 C.3    95  ARG95       0.0321
    135  CG         3.3830  -16.0300    6.7100 C.3    95  ARG95       0.0489
    136  CD         3.4420  -16.3000    8.2020 C.3    95  ARG95       0.2205
    137  NE         2.5260  -17.3650    8.6060 N.pl3  95  ARG95      -0.0865
    138  CZ         2.8340  -18.6560    8.5650 C.cat  95  ARG95       0.5346
    139  NH1        4.0290  -19.0350    8.1310 N.pl3  95  ARG95       0.1354
    140  NH2        1.9470  -19.5660    8.9500 N.pl3  95  ARG95       0.1354
    141  N          3.9120  -14.2830    4.0280 N.am   96  VAL96      -0.1980
    142  CA         4.7930  -13.1660    3.6920 C.3    96  VAL96       0.1595
    143  C          4.1940  -12.3190    2.5770 C.2    96  VAL96       0.2287
    144  O          4.2270  -11.0860    2.6310 O.2    96  VAL96      -0.2864
    145  CB         6.2170  -13.6510    3.3610 C.3    96  VAL96       0.0276
    146  CG1        7.0600  -12.5090    2.8070 C.3    96  VAL96       0.0022
    147  CG2        6.8830  -14.2220    4.5980 C.3    96  VAL96       0.0022
    148  N          1.3640  -10.3300    4.0990 N.3    99  PHE99      -0.1241
    149  CA         1.9230   -9.2600    4.9190 C.3    99  PHE99       0.1605
    150  C          2.4500   -8.1310    4.0450 C.2    99  PHE99       0.2264
    151  O          2.2700   -6.9480    4.3600 O.2    99  PHE99      -0.2867
    152  CB         3.0600   -9.8130    5.7840 C.3    99  PHE99       0.0534
    153  CG         2.6120  -10.6730    6.9450 C.ar   99  PHE99      -0.0203
    154  CD1        1.2730  -10.9220    7.1950 C.ar   99  PHE99      -0.0042
    155  CD2        3.5580  -11.2100    7.8020 C.ar   99  PHE99      -0.0042
    156  CE1        0.8880  -11.7240    8.2750 C.ar   99  PHE99      -0.0003
    157  CE2        3.1780  -12.0090    8.8850 C.ar   99  PHE99      -0.0003
    158  CZ         1.8430  -12.2590    9.1140 C.ar   99  PHE99      -0.0000
@<TRIPOS>BOND
     1   110   111    1
     2    80    79    2
     3   111   112    1
     4   111   114    1
     5   113   112    2
     6   125   124    2
     7   116   118   ar
     8   116   115   ar
     9    79    78    1
    10   112   122   am
    11   114   115    1
    12   118   120   ar
    13   122   123    1
    14   124   123    1
    15   115   117   ar
    16    77    78    1
    17    78    81    1
    18   107   108    2
    19   107   106    1
    20   105   106    1
    21   123   126    1
    22   120   121    1
    23   120   119   ar
    24    97    98    1
    25   117   119   ar
    26   106   109    1
    27    81    82    1
    28    82    83   ar
    29    82    84   ar
    30    83    85   ar
    31    99   100    2
    32    99    98    1
    33    84    86   ar
    34    85    87   ar
    35    86    87   ar
    36    87    88    1
    37    98   101    1
    38   126   127    1
    39    96    95    1
    40    93    94    1
    41    93    90    1
    42    89    90    1
    43   129   127   am
    44   127   128    2
    45    94    95    1
    46    72    71    2
    47    90    91    1
    48   101   102    1
    49    71    70    1
    50    73    70    1
    51    73    75    1
    52    73    74    1
    53    70    69    1
    54    92    91    2
    55   102   103    1
    56    76    74    1
    57    59    58    1
    58    60    58    1
    59    58    55    1
    60   143   144    2
    61   143   142    1
    62    31    33   ar
    63    31    29   ar
    64   104   103    1
    65   146   145    1
    66    33    32   ar
    67    57    56    2
    68   145   142    1
    69   145   147    1
    70    29    28   ar
    71   142   141    1
    72    55    56    1
    73    55    54    1
    74   130   131    1
    75   141   132   am
    76   150   151    2
    77   150   149    1
    78   148   149    1
    79    32    30   ar
    80   132   133    2
    81   132   131    1
    82    28    30   ar
    83    28    27    1
    84   131   134    1
    85   149   152    1
    86    67    66    1
    87    27    24    1
    88    65    66    1
    89    65    62    1
    90   152   153    1
    91    64    63    2
    92    63    62    1
    93    19    18    2
    94    24    23    1
    95    24    25    1
    96    48    47    2
    97   134   135    1
    98    20    21    1
    99    20    17    1
   100    66    68    1
   101    62    61    1
   102    26    25    2
   103   135   136    1
   104    18    23   am
   105    18    17    1
   106   153   154   ar
   107   153   155   ar
   108    47    46    1
   109    25    34   am
   110    21    22    1
   111   154   156   ar
   112    17    16    1
   113   155   157   ar
   114   139   138    1
   115    22    16    1
   116   136   137    1
   117   156   158   ar
   118    46    45    1
   119    46    49    1
   120    34    35    1
   121    45    36   am
   122    16    10   am
   123   138   137    2
   124   138   140    1
   125   157   158   ar
   126    53    51   am
   127    36    35    1
   128    36    37    2
   129    35    38    1
   130    50    49    1
   131    50    51    1
   132    10    11    2
   133    10     9    1
   134    51    52    2
   135     8     9    1
   136     4     3    2
   137    38    39    1
   138     9    12    1
   139    39    40    1
   140     3     2    1
   141    12    13    1
   142     6     5    1
   143     6     7    1
   144    40    41    1
   145     2     5    1
   146     2     1    1
   147    41    42    2
   148    13    15    1
   149    13    14    1
   150     7     1    1
   151    42    44    1
   152    42    43    1
