@<TRIPOS>MOLECULE
tmp/5mmgA00.pdb
 124 119 0 0 0
SMALL
GASTEIGER

@<TRIPOS>ATOM
      1  N         -1.6290   -5.7490    5.0100 N.3    27  LEU27      -0.1231
      2  CA        -0.7730   -4.6100    4.6850 C.3    27  LEU27       0.1678
      3  C         -1.3930   -3.6570    3.6710 C.2    27  LEU27       0.2434
      4  O         -1.3150   -2.4340    3.8880 O.2    27  LEU27      -0.2733
      5  CB         0.6320   -5.0830    4.2880 C.3    27  LEU27       0.0284
      6  CG         1.6350   -5.3570    5.4160 C.3    27  LEU27       0.0019
      7  CD1        2.0460   -4.0650    6.0920 C.3    27  LEU27       0.0001
      8  CD2        1.1500   -6.3960    6.4380 C.3    27  LEU27       0.0001
      9  N         -2.0380   -4.1150    2.5910 N.am   28  PRO28      -0.2718
     10  CA        -2.6430   -3.1660    1.6410 C.3    28  PRO28       0.1535
     11  C         -3.8380   -2.4100    2.1830 C.2    28  PRO28       0.2598
     12  O         -4.2810   -1.4530    1.5320 O.2    28  PRO28      -0.2715
     13  CB        -3.0670   -4.0630    0.4720 C.3    28  PRO28       0.0310
     14  CG        -2.2310   -5.2860    0.6030 C.3    28  PRO28       0.0237
     15  CD        -2.1030   -5.4970    2.0750 C.3    28  PRO28       0.0939
     16  N         -4.3630   -2.8100    3.3410 N.am   29  PHE29      -0.1974
     17  CA        -5.5910   -2.2780    3.9150 C.3    29  PHE29       0.1639
     18  C         -5.3480   -1.3770    5.1170 C.2    29  PHE29       0.2290
     19  O         -6.3130   -0.8480    5.6890 O.2    29  PHE29      -0.2864
     20  CB        -6.5050   -3.4390    4.3270 C.3    29  PHE29       0.0560
     21  CG        -6.8630   -4.3360    3.1910 C.ar   29  PHE29      -0.0200
     22  CD1       -7.9580   -4.0510    2.3970 C.ar   29  PHE29      -0.0042
     23  CD2       -6.0910   -5.4450    2.8870 C.ar   29  PHE29      -0.0042
     24  CE1       -8.2820   -4.8730    1.3160 C.ar   29  PHE29      -0.0003
     25  CE2       -6.4030   -6.2660    1.8190 C.ar   29  PHE29      -0.0003
     26  CZ        -7.4940   -5.9810    1.0330 C.ar   29  PHE29      -0.0000
     27  N         -3.9600    1.5560    5.3230 N.3    31  GLN31      -0.1245
     28  CA        -3.9890    2.9790    5.0270 C.3    31  GLN31       0.1566
     29  C         -4.8840    3.1570    3.8180 C.2    31  GLN31       0.2260
     30  O         -5.0860    2.2040    3.0580 O.2    31  GLN31      -0.2867
     31  CB        -2.5740    3.5110    4.7430 C.3    31  GLN31       0.0367
     32  CG        -1.8570    2.8210    3.5800 C.3    31  GLN31       0.0905
     33  CD        -1.3360    1.4360    3.9380 C.2    31  GLN31       0.2608
     34  OE1       -0.7020    1.2430    4.9770 O.2    31  GLN31      -0.2717
     35  NE2       -1.6180    0.4570    3.0820 N.am   31  GLN31      -0.0878
     36  N         -6.1530    3.7030    0.1700 N.3    33  VAL33      -0.1245
     37  CA        -5.5370    3.5630   -1.1450 C.3    33  VAL33       0.1561
     38  C         -5.1110    4.9370   -1.6350 C.2    33  VAL33       0.2260
     39  O         -5.8990    5.8930   -1.6210 O.2    33  VAL33      -0.2867
     40  CB        -6.5230    2.9220   -2.1320 C.3    33  VAL33       0.0252
     41  CG1       -5.9340    2.9290   -3.5400 C.3    33  VAL33       0.0019
     42  CG2       -6.8830    1.5110   -1.6990 C.3    33  VAL33       0.0019
     43  N          0.5370    4.4720   -5.7200 N.3    38  LEU38      -0.1245
     44  CA         0.5220    3.0730   -6.1170 C.3    38  LEU38       0.1561
     45  C          0.5560    2.8850   -7.6250 C.2    38  LEU38       0.2260
     46  O          0.7170    1.7480   -8.0860 O.2    38  LEU38      -0.2867
     47  CB        -0.7180    2.3840   -5.5500 C.3    38  LEU38       0.0270
     48  CG        -0.7620    2.2670   -4.0320 C.3    38  LEU38       0.0019
     49  CD1       -2.1490    1.8350   -3.5910 C.3    38  LEU38       0.0001
     50  CD2        0.3050    1.3020   -3.5410 C.3    38  LEU38       0.0001
     51  N         -1.9920    3.4420   -9.7120 N.3    40  ILE40      -0.1245
     52  CA        -3.2960    2.9710  -10.1800 C.3    40  ILE40       0.1561
     53  C         -4.2670    4.1430  -10.3020 C.2    40  ILE40       0.2260
     54  O         -5.2770    4.2010   -9.5850 O.2    40  ILE40      -0.2867
     55  CB        -3.8300    1.8230   -9.3050 C.3    40  ILE40       0.0252
     56  CG1       -3.8260    2.1990   -7.8180 C.3    40  ILE40       0.0019
     57  CG2       -2.9940    0.5700   -9.5230 C.3    40  ILE40       0.0019
     58  CD1       -4.5530    1.1830   -6.9380 C.3    40  ILE40       0.0001
     59  N         -8.2550    4.1730   -9.9560 N.3    43  TYR43      -0.1241
     60  CA        -8.8940    3.5870   -8.7780 C.3    43  TYR43       0.1605
     61  C        -10.2030    4.2900   -8.4250 C.2    43  TYR43       0.2264
     62  O        -11.2450    3.6400   -8.2750 O.2    43  TYR43      -0.2867
     63  CB        -7.9360    3.5930   -7.5900 C.3    43  TYR43       0.0534
     64  CG        -8.5320    2.9250   -6.3730 C.ar   43  TYR43      -0.0201
     65  CD1       -8.5560    1.5410   -6.2620 C.ar   43  TYR43      -0.0009
     66  CD2       -9.0930    3.6760   -5.3470 C.ar   43  TYR43      -0.0009
     67  CE1       -9.1160    0.9190   -5.1500 C.ar   43  TYR43       0.0417
     68  CE2       -9.6510    3.0660   -4.2350 C.ar   43  TYR43       0.0417
     69  CZ        -9.6610    1.6910   -4.1420 C.ar   43  TYR43       0.1957
     70  OH       -10.2190    1.0880   -3.0330 O.3    43  TYR43      -0.2866
     71  N        -12.1930   -3.9270   -2.5970 N.3    82  ALA82      -0.1245
     72  CA       -10.9990   -4.6390   -3.0330 C.3    82  ALA82       0.1562
     73  C        -11.3450   -5.7270   -4.0370 C.2    82  ALA82       0.2260
     74  O        -10.6160   -5.9330   -5.0140 O.2    82  ALA82      -0.2867
     75  CB       -10.2650   -5.2270   -1.8300 C.3    82  ALA82       0.0290
     76  N        -12.2520   -3.8330   -7.4080 N.3    85  TYR85      -0.1227
     77  CA       -11.1830   -3.1840   -8.1550 C.3    85  TYR85       0.1736
     78  C        -10.1460   -4.1750   -8.6670 C.2    85  TYR85       0.2595
     79  O         -9.7100   -4.0770   -9.8190 O.2    85  TYR85      -0.2718
     80  CB       -10.4960   -2.0990   -7.3120 C.3    85  TYR85       0.0548
     81  CG        -9.3830   -1.4930   -8.1140 C.ar   85  TYR85      -0.0200
     82  CD1       -9.6710   -0.6030   -9.1360 C.ar   85  TYR85      -0.0009
     83  CD2       -8.0590   -1.8800   -7.9240 C.ar   85  TYR85      -0.0009
     84  CE1       -8.6710   -0.0870   -9.9430 C.ar   85  TYR85       0.0417
     85  CE2       -7.0480   -1.3670   -8.7230 C.ar   85  TYR85       0.0417
     86  CZ        -7.3650   -0.4740   -9.7320 C.ar   85  TYR85       0.1957
     87  OH        -6.3650    0.0260  -10.5360 O.3    85  TYR85      -0.2866
     88  N         -9.7320   -5.1230   -7.8440 N.am   86  ASN86      -0.1974
     89  CA        -8.5560   -5.9230   -8.1350 C.3    86  ASN86       0.1688
     90  C         -8.9200   -7.1950   -8.8890 C.2    86  ASN86       0.2292
     91  O        -10.0410   -7.7030   -8.7970 O.2    86  ASN86      -0.2864
     92  CB        -7.8460   -6.2600   -6.8290 C.3    86  ASN86       0.1181
     93  CG        -7.3490   -5.0220   -6.1320 C.2    86  ASN86       0.2629
     94  OD1       -6.3160   -4.4640   -6.4970 O.2    86  ASN86      -0.2716
     95  ND2       -8.1100   -4.5480   -5.1540 N.am   86  ASN86      -0.0877
     96  N         -2.5730  -10.1640   -5.4370 N.3    91  ARG91      -0.1231
     97  CA        -2.3560  -10.2220   -3.9960 C.3    91  ARG91       0.1694
     98  C         -3.5130   -9.5930   -3.2380 C.2    91  ARG91       0.2591
     99  O         -4.0240  -10.1750   -2.2760 O.2    91  ARG91      -0.2718
    100  CB        -1.0580   -9.5050   -3.6260 C.3    91  ARG91       0.0321
    101  CG         0.1990  -10.2230   -4.0720 C.3    91  ARG91       0.0489
    102  CD         1.4020   -9.3250   -3.9360 C.3    91  ARG91       0.2205
    103  NE         1.2620   -8.1620   -4.8010 N.pl3  91  ARG91      -0.0865
    104  CZ         1.9960   -7.0620   -4.7130 C.cat  91  ARG91       0.5346
    105  NH1        1.7670   -6.0510   -5.5480 N.pl3  91  ARG91       0.1354
    106  NH2        2.9590   -6.9610   -3.8020 N.pl3  91  ARG91       0.1354
    107  N         -3.9270   -8.3880   -3.6280 N.am   92  VAL92      -0.1980
    108  CA        -4.9240   -7.6970   -2.8190 C.3    92  VAL92       0.1595
    109  C         -6.2260   -8.4800   -2.7820 C.2    92  VAL92       0.2287
    110  O         -6.8820   -8.5550   -1.7430 O.2    92  VAL92      -0.2864
    111  CB        -5.1150   -6.2410   -3.2770 C.3    92  VAL92       0.0276
    112  CG1       -6.3060   -5.6180   -2.5650 C.3    92  VAL92       0.0022
    113  CG2       -3.8680   -5.4370   -3.0000 C.3    92  VAL92       0.0022
    114  N         -5.6670  -11.5530   -0.5790 N.3    95  PHE95      -0.1241
    115  CA        -5.5290  -11.0770    0.7910 C.3    95  PHE95       0.1605
    116  C         -6.8900  -10.6650    1.3470 C.2    95  PHE95       0.2264
    117  O         -7.2130  -10.9450    2.5110 O.2    95  PHE95      -0.2867
    118  CB        -4.5720   -9.8830    0.8290 C.3    95  PHE95       0.0534
    119  CG        -3.1080  -10.2160    0.6070 C.ar   95  PHE95      -0.0203
    120  CD1       -2.6440  -11.5100    0.4270 C.ar   95  PHE95      -0.0042
    121  CD2       -2.1900   -9.1830    0.5900 C.ar   95  PHE95      -0.0042
    122  CE1       -1.2800  -11.7500    0.2240 C.ar   95  PHE95      -0.0003
    123  CE2       -0.8420   -9.4160    0.3920 C.ar   95  PHE95      -0.0003
    124  CZ        -0.3840  -10.6990    0.2220 C.ar   95  PHE95      -0.0000
@<TRIPOS>BOND
     1    87    86    1
     2    53    52    1
     3    53    54    2
     4    52    51    1
     5    52    55    1
     6    59    60    1
     7    84    86   ar
     8    84    82   ar
     9    79    78    2
    10    86    85   ar
    11    57    55    1
    12    55    56    1
    13    82    81   ar
    14    90    91    2
    15    90    89    1
    16    60    61    1
    17    60    63    1
    18    85    83   ar
    19    78    77    1
    20    78    88   am
    21    61    62    2
    22    77    76    1
    23    77    80    1
    24    89    88    1
    25    89    92    1
    26    81    83   ar
    27    81    80    1
    28    46    45    2
    29    56    58    1
    30    45    44    1
    31    63    64    1
    32    92    93    1
    33    94    93    2
    34    64    65   ar
    35    64    66   ar
    36    65    67   ar
    37    93    95   am
    38    44    43    1
    39    44    47    1
    40    47    48    1
    41   105   104    1
    42    96    97    1
    43    66    68   ar
    44    67    69   ar
    45    74    73    2
    46   103   104    2
    47   103   102    1
    48   104   106    1
    49    68    69   ar
    50    69    70    1
    51   101   102    1
    52   101   100    1
    53    73    72    1
    54    48    49    1
    55    48    50    1
    56    97   100    1
    57    97    98    1
    58   107    98   am
    59   107   108    1
    60    41    40    1
    61   111   113    1
    62   111   108    1
    63   111   112    1
    64    98    99    2
    65    72    71    1
    66    72    75    1
    67   108   109    1
    68   109   110    2
    69    40    42    1
    70    40    37    1
    71    38    39    2
    72    38    37    1
    73    37    36    1
    74   114   115    1
    75   124   122   ar
    76   124   123   ar
    77   122   120   ar
    78   123   121   ar
    79   120   119   ar
    80    13    14    1
    81    13    10    1
    82   121   119   ar
    83    14    15    1
    84   119   118    1
    85   115   118    1
    86   115   116    1
    87    26    24   ar
    88    26    25   ar
    89    24    22   ar
    90   116   117    2
    91    12    11    2
    92    10    11    1
    93    10     9    1
    94    25    23   ar
    95    15     9    1
    96    11    16   am
    97    22    21   ar
    98     9     3   am
    99    23    21   ar
   100    30    29    2
   101    35    33   am
   102    21    20    1
   103    16    17    1
   104    32    33    1
   105    32    31    1
   106     3     4    2
   107     3     2    1
   108    29    28    1
   109    17    20    1
   110    17    18    1
   111    33    34    2
   112     5     2    1
   113     5     6    1
   114     2     1    1
   115    31    28    1
   116    28    27    1
   117    18    19    2
   118     6     7    1
   119     6     8    1
