@<TRIPOS>MOLECULE
tmp/5mmnA00.pdb
 127 118 0 0 0
SMALL
GASTEIGER

@<TRIPOS>ATOM
      1  N        -40.2990    6.5620    9.8990 N.3    37  VAL37      -0.1245
      2  CA       -40.9580    6.8490    8.6340 C.3    37  VAL37       0.1561
      3  C        -40.5150    5.8600    7.5750 C.2    37  VAL37       0.2260
      4  O        -41.3270    5.2930    6.8330 O.2    37  VAL37      -0.2867
      5  CB       -40.7130    8.2900    8.1900 C.3    37  VAL37       0.0252
      6  CG1      -41.4130    8.5400    6.8560 C.3    37  VAL37       0.0019
      7  CG2      -41.2710    9.2480    9.2400 C.3    37  VAL37       0.0019
      8  N        -42.2400    2.0930    7.4680 N.3    40  ASN40      -0.1225
      9  CA       -43.5130    1.7900    6.8020 C.3    40  ASN40       0.1785
     10  C        -43.3750    1.6690    5.2590 C.2    40  ASN40       0.2597
     11  O        -44.0700    0.8750    4.6200 O.2    40  ASN40      -0.2718
     12  CB       -44.5910    2.8040    7.1900 C.3    40  ASN40       0.1169
     13  CG       -44.7820    2.8880    8.7020 C.2    40  ASN40       0.2627
     14  OD1      -44.5670    3.9400    9.3050 O.2    40  ASN40      -0.2716
     15  ND2      -45.1050    1.7810    9.3150 N.am   40  ASN40      -0.0877
     16  N        -42.4750    2.4730    4.6950 N.am   41  ALA41      -0.1979
     17  CA       -42.0770    2.3430    3.2820 C.3    41  ALA41       0.1597
     18  C        -41.3980    0.9880    3.0350 C.2    41  ALA41       0.2287
     19  O        -41.6550    0.3430    2.0220 O.2    41  ALA41      -0.2864
     20  CB       -41.1480    3.5060    2.8840 C.3    41  ALA41       0.0319
     21  N        -44.0450   -1.6860    2.8030 N.3    44  GLU44      -0.1245
     22  CA       -44.6670   -1.5780    1.4810 C.3    44  GLU44       0.1567
     23  C        -43.7400   -2.2220    0.4240 C.2    44  GLU44       0.2260
     24  O        -44.2090   -2.8820   -0.4800 O.2    44  GLU44      -0.2867
     25  CB       -44.9790   -0.1170    1.1810 C.3    44  GLU44       0.0388
     26  CG       -45.7350    0.2410   -0.0910 C.3    44  GLU44       0.1160
     27  CD       -47.1530   -0.2790   -0.1170 C.2    44  GLU44       0.3649
     28  OE1      -47.6070   -0.9430    0.8490 O.co2  44  GLU44      -0.2457
     29  OE2      -47.8210   -0.0330   -1.1420 O.co2  44  GLU44      -0.2457
     30  N        -39.0040   11.4810    3.2200 N.3    65  VAL65      -0.1231
     31  CA       -38.9040   10.0720    2.8340 C.3    65  VAL65       0.1692
     32  C        -39.9820    9.8890    1.7990 C.2    65  VAL65       0.2592
     33  O        -41.1440   10.2760    2.0370 O.2    65  VAL65      -0.2718
     34  CB       -39.1490    9.1620    4.0460 C.3    65  VAL65       0.0266
     35  CG1      -39.0490    7.6890    3.6620 C.3    65  VAL65       0.0020
     36  CG2      -38.1700    9.5590    5.1530 C.3    65  VAL65       0.0020
     37  N        -39.6240    9.3510    0.6360 N.am   66  GLN66      -0.1966
     38  CA       -40.6290    9.0840   -0.3950 C.3    66  GLN66       0.1733
     39  C        -40.5200    7.6760   -0.8940 C.2    66  GLN66       0.2616
     40  O        -39.4220    7.1310   -0.9890 O.2    66  GLN66      -0.2715
     41  CB       -40.5490   10.0960   -1.5750 C.3    66  GLN66       0.0408
     42  CG       -39.2410   10.1310   -2.2910 C.3    66  GLN66       0.0908
     43  CD       -39.1680   11.1720   -3.4030 C.2    66  GLN66       0.2608
     44  OE1      -38.5260   12.2100   -3.2460 O.2    66  GLN66      -0.2717
     45  NE2      -39.7190   10.8490   -4.5440 N.am   66  GLN66      -0.0878
     46  N        -41.6640    7.0800   -1.2080 N.am   67  ASP67      -0.1971
     47  CA       -41.6740    5.8050   -1.8610 C.3    67  ASP67       0.1709
     48  C        -42.5490    5.8140   -3.1110 C.2    67  ASP67       0.2293
     49  O        -43.2730    6.7800   -3.3810 O.2    67  ASP67      -0.2864
     50  CB       -42.0510    4.6830   -0.8870 C.3    67  ASP67       0.1436
     51  CG       -43.5040    4.6850   -0.5130 C.2    67  ASP67       0.3671
     52  OD1      -44.3350    4.7500   -1.4350 O.co2  67  ASP67      -0.2456
     53  OD2      -43.8090    4.5210    0.7000 O.co2  67  ASP67      -0.2456
     54  N        -48.0200    2.0390   -3.1650 N.3    70  ARG70      -0.1231
     55  CA       -49.4210    2.1770   -3.5480 C.3    70  ARG70       0.1694
     56  C        -50.0480    3.4860   -3.0810 C.2    70  ARG70       0.2593
     57  O        -51.1230    3.8750   -3.5730 O.2    70  ARG70      -0.2718
     58  CB       -50.2570    1.0090   -3.0050 C.3    70  ARG70       0.0321
     59  CG       -50.0640   -0.3430   -3.6810 C.3    70  ARG70       0.0489
     60  CD       -50.7720   -1.4560   -2.8910 C.3    70  ARG70       0.2205
     61  NE       -50.1630   -1.5470   -1.5450 N.pl3  70  ARG70      -0.0865
     62  CZ       -50.4830   -2.4490   -0.6060 C.cat  70  ARG70       0.5346
     63  NH1      -51.3990   -3.3660   -0.8310 N.pl3  70  ARG70       0.1354
     64  NH2      -49.8560   -2.4500    0.5560 N.pl3  70  ARG70       0.1354
     65  N        -49.3870    4.1640   -2.1400 N.am   71  GLY71      -0.1942
     66  CA       -49.9540    5.3220   -1.4510 C.3    71  GLY71       0.2014
     67  C        -50.8030    4.9110   -0.2640 C.2    71  GLY71       0.2639
     68  O        -51.6340    3.9800   -0.3720 O.2    71  GLY71      -0.2714
     69  N        -50.5850    5.5740    0.8820 N.am   72  ILE72      -0.1963
     70  CA       -51.4740    5.4250    2.0560 C.3    72  ILE72       0.1712
     71  C        -52.9670    5.6030    1.6400 C.2    72  ILE72       0.2458
     72  O        -53.3020    6.5320    0.8860 O.2    72  ILE72      -0.2730
     73  CB       -51.0600    6.3990    3.1880 C.3    72  ILE72       0.0289
     74  CG1      -49.6410    6.0590    3.6510 C.3    72  ILE72       0.0022
     75  CG2      -52.0230    6.2670    4.3620 C.3    72  ILE72       0.0023
     76  CD1      -49.1110    6.8600    4.8100 C.3    72  ILE72       0.0001
     77  N        -53.8710    4.6990    2.0700 N.am   73  PRO73      -0.2727
     78  CA       -55.2640    4.8810    1.6850 C.3    73  PRO73       0.1402
     79  C        -55.8280    6.2170    2.1090 C.2    73  PRO73       0.2269
     80  O        -55.5030    6.7140    3.1760 O.2    73  PRO73      -0.2865
     81  CB       -55.9940    3.7550    2.4330 C.3    73  PRO73       0.0296
     82  CG       -54.9490    2.7000    2.5700 C.3    73  PRO73       0.0237
     83  CD       -53.6870    3.4510    2.8230 C.3    73  PRO73       0.0939
     84  N        -53.9750    7.3430   10.5200 N.3    88  ILE88      -0.1245
     85  CA       -52.6480    6.7320   10.5980 C.3    88  ILE88       0.1561
     86  C        -51.6550    7.7580   11.1540 C.2    88  ILE88       0.2260
     87  O        -50.8270    7.4560   12.0200 O.2    88  ILE88      -0.2867
     88  CB       -52.2200    6.1450    9.2090 C.3    88  ILE88       0.0252
     89  CG1      -52.9550    4.8070    8.9680 C.3    88  ILE88       0.0019
     90  CG2      -50.7300    5.9370    9.1300 C.3    88  ILE88       0.0019
     91  CD1      -52.9300    4.2740    7.5460 C.3    88  ILE88       0.0001
     92  N        -44.4710    3.9980   15.5990 N.3   105  GLY105     -0.1210
     93  CA       -45.4840    4.5420   14.7040 C.3   105  GLY105      0.1956
     94  C        -45.2670    5.9950   14.3250 C.2   105  GLY105      0.2611
     95  O        -44.6920    6.7980   15.0710 O.2   105  GLY105     -0.2717
     96  N        -45.7380    6.3420   13.1400 N.am  106  VAL106     -0.1979
     97  CA       -45.4800    7.6770   12.5900 C.3   106  VAL106      0.1595
     98  C        -46.2670    8.8040   13.2660 C.2   106  VAL106      0.2287
     99  O        -45.9420    9.9780   13.0930 O.2   106  VAL106     -0.2864
    100  CB       -45.6850    7.6890   11.0650 C.3   106  VAL106      0.0276
    101  CG1      -47.1330    7.4000   10.7620 C.3   106  VAL106      0.0022
    102  CG2      -45.2940    9.0410   10.4810 C.3   106  VAL106      0.0022
    103  N        -52.2120    8.4650   -5.4680 N.3   122  ARG122     -0.1245
    104  CA       -53.0570    7.2690   -5.4020 C.3   122  ARG122      0.1563
    105  C        -54.3620    7.4210   -6.1740 C.2   122  ARG122      0.2260
    106  O        -55.0240    8.4230   -6.0660 O.2   122  ARG122     -0.2867
    107  CB       -53.3650    6.9220   -3.9300 C.3   122  ARG122      0.0307
    108  CG       -54.1340    5.6220   -3.7370 C.3   122  ARG122      0.0489
    109  CD       -54.2600    5.2380   -2.2660 C.3   122  ARG122      0.2205
    110  NE       -55.1620    4.1030   -2.1120 N.pl3 122  ARG122     -0.0865
    111  CZ       -54.8270    2.8680   -1.7620 C.cat 122  ARG122      0.5346
    112  NH1      -53.5700    2.5280   -1.5000 N.pl3 122  ARG122      0.1354
    113  NH2      -55.7830    1.9410   -1.6630 N.pl3 122  ARG122      0.1354
    114  N        -46.0320    7.4740   -1.6370 N.3   151  THR151     -0.1218
    115  CA       -46.2170    8.2630   -0.4410 C.3   151  THR151      0.1862
    116  C        -44.9340    9.0090   -0.1260 C.2   151  THR151      0.2287
    117  O        -43.8350    8.4700   -0.2860 O.2   151  THR151     -0.2866
    118  CB       -46.5590    7.3630    0.7660 C.3   151  THR151      0.1770
    119  OG1      -47.7060    6.5550    0.4530 O.3   151  THR151     -0.2211
    120  CG2      -46.8000    8.1890    2.0190 C.3   151  THR151      0.0375
    121  N        -43.4820   11.6720    3.0310 N.3   153  VAL153     -0.1245
    122  CA       -43.5570   12.3470    4.2890 C.3   153  VAL153      0.1561
    123  C        -42.3220   13.2140    4.4500 C.2   153  VAL153      0.2260
    124  O        -41.1990   12.7510    4.2930 O.2   153  VAL153     -0.2867
    125  CB       -43.6290   11.3430    5.4300 C.3   153  VAL153      0.0252
    126  CG1      -43.4910   12.0520    6.7850 C.3   153  VAL153      0.0019
    127  CG2      -44.9380   10.5720    5.3390 C.3   153  VAL153      0.0019
@<TRIPOS>BOND
     1   105   106    2
     2   105   104    1
     3   103   104    1
     4   104   107    1
     5    45    43   am
     6   107   108    1
     7   108   109    1
     8    59    58    1
     9    59    60    1
    10    57    56    2
    11    55    54    1
    12    55    56    1
    13    55    58    1
    14    43    44    2
    15    43    42    1
    16    49    48    2
    17    48    47    1
    18    56    65   am
    19    60    61    1
    20    42    41    1
    21   109   110    1
    22    65    66    1
    23   110   111    2
    24    47    46    1
    25    47    50    1
    26   111   113    1
    27   111   112    1
    28   114   115    1
    29    41    38    1
    30    61    62    2
    31    66    67    1
    32    52    51   ar
    33    46    39   am
    34    29    27   ar
    35    40    39    2
    36    39    38    1
    37    50    51    1
    38    63    62    1
    39    62    64    1
    40    51    53   ar
    41    24    23    2
    42   115   116    1
    43   115   118    1
    44    38    37    1
    45    68    67    2
    46   117   116    2
    47    67    69   am
    48    27    26    1
    49    27    28   ar
    50    26    25    1
    51    23    22    1
    52   119   118    1
    53    37    32   am
    54   118   120    1
    55    69    70    1
    56    72    71    2
    57    25    22    1
    58    22    21    1
    59    71    70    1
    60    71    77   am
    61    78    77    1
    62    78    79    1
    63    78    81    1
    64    32    33    2
    65    32    31    1
    66    19    18    2
    67    70    73    1
    68    77    83    1
    69    79    80    2
    70    81    82    1
    71    82    83    1
    72    31    30    1
    73    31    34    1
    74    20    17    1
    75   121   122    1
    76    18    17    1
    77    73    74    1
    78    73    75    1
    79    17    16    1
    80    74    76    1
    81    35    34    1
    82    34    36    1
    83   122   123    1
    84   122   125    1
    85   124   123    2
    86    11    10    2
    87    16    10   am
    88    10     9    1
    89   127   125    1
    90   125   126    1
    91     9    12    1
    92     9     8    1
    93     4     3    2
    94     6     5    1
    95    12    13    1
    96    91    89    1
    97     3     2    1
    98     5     2    1
    99     5     7    1
   100     2     1    1
   101    13    14    2
   102    13    15   am
   103    89    88    1
   104    90    88    1
   105    88    85    1
   106   102   100    1
   107    84    85    1
   108    85    86    1
   109   101   100    1
   110   100    97    1
   111    86    87    2
   112    97    96    1
   113    97    98    1
   114    99    98    2
   115    96    94   am
   116    94    93    1
   117    94    95    2
   118    93    92    1
