@<TRIPOS>MOLECULE
tmp/5mmoA00.pdb
 127 118 0 0 0
SMALL
GASTEIGER

@<TRIPOS>ATOM
      1  N        -40.6590    6.6840   10.0900 N.3    37  VAL37      -0.1245
      2  CA       -41.2740    6.9240    8.7740 C.3    37  VAL37       0.1561
      3  C        -40.8370    5.9080    7.7050 C.2    37  VAL37       0.2260
      4  O        -41.6590    5.3820    6.9650 O.2    37  VAL37      -0.2867
      5  CB       -40.9880    8.3880    8.3330 C.3    37  VAL37       0.0252
      6  CG1      -41.6520    8.7090    7.0430 C.3    37  VAL37       0.0019
      7  CG2      -41.4530    9.3780    9.4110 C.3    37  VAL37       0.0019
      8  N        -42.5400    2.2430    7.6920 N.3    40  ASN40      -0.1225
      9  CA       -43.8260    1.9770    7.0120 C.3    40  ASN40       0.1785
     10  C        -43.6730    1.8030    5.4770 C.2    40  ASN40       0.2597
     11  O        -44.4020    1.0140    4.8230 O.2    40  ASN40      -0.2718
     12  CB       -44.8930    3.0110    7.4150 C.3    40  ASN40       0.1169
     13  CG       -45.0150    3.1320    8.9160 C.2    40  ASN40       0.2627
     14  OD1      -44.7660    4.2090    9.5210 O.2    40  ASN40      -0.2716
     15  ND2      -45.2580    2.0140    9.5410 N.am   40  ASN40      -0.0877
     16  N        -42.7200    2.5340    4.9020 N.am   41  ALA41      -0.1979
     17  CA       -42.3290    2.3950    3.4780 C.3    41  ALA41       0.1597
     18  C        -41.6820    1.0000    3.2250 C.2    41  ALA41       0.2287
     19  O        -42.0170    0.2850    2.2350 O.2    41  ALA41      -0.2864
     20  CB       -41.3650    3.5220    3.0990 C.3    41  ALA41       0.0319
     21  N        -44.3410   -1.6150    3.0920 N.3    44  GLU44      -0.1245
     22  CA       -44.9850   -1.5470    1.7680 C.3    44  GLU44       0.1567
     23  C        -44.1250   -2.2570    0.6750 C.2    44  GLU44       0.2260
     24  O        -44.6520   -2.9620   -0.2140 O.2    44  GLU44      -0.2867
     25  CB       -45.2940   -0.0630    1.4540 C.3    44  GLU44       0.0388
     26  CG       -46.0430    0.2330    0.1510 C.3    44  GLU44       0.1160
     27  CD       -47.5150   -0.2070    0.1520 C.2    44  GLU44       0.3649
     28  OE1      -47.9970   -0.8160    1.1440 O.co2  44  GLU44      -0.2457
     29  OE2      -48.1980    0.1040   -0.8460 O.co2  44  GLU44      -0.2457
     30  N        -39.2370   11.5300    3.4020 N.3    65  VAL65      -0.1231
     31  CA       -39.1990   10.1330    2.9650 C.3    65  VAL65       0.1692
     32  C        -40.2780    9.9620    1.9260 C.2    65  VAL65       0.2592
     33  O        -41.4490   10.3400    2.1590 O.2    65  VAL65      -0.2718
     34  CB       -39.4450    9.1510    4.1390 C.3    65  VAL65       0.0266
     35  CG1      -39.3060    7.6940    3.6910 C.3    65  VAL65       0.0020
     36  CG2      -38.5200    9.5040    5.2790 C.3    65  VAL65       0.0020
     37  N        -39.9120    9.4140    0.7840 N.am   66  GLN66      -0.1966
     38  CA       -40.9020    9.1330   -0.2440 C.3    66  GLN66       0.1733
     39  C        -40.7450    7.7050   -0.7160 C.2    66  GLN66       0.2616
     40  O        -39.6160    7.1600   -0.8010 O.2    66  GLN66      -0.2715
     41  CB       -40.8210   10.1020   -1.4530 C.3    66  GLN66       0.0408
     42  CG       -39.4490   10.3160   -1.9890 C.3    66  GLN66       0.0908
     43  CD       -39.3640   11.3620   -3.1080 C.2    66  GLN66       0.2608
     44  OE1      -38.6910   12.3890   -2.9570 O.2    66  GLN66      -0.2717
     45  NE2      -39.9920   11.0750   -4.2230 N.am   66  GLN66      -0.0878
     46  N        -41.8850    7.1340   -1.0720 N.am   67  ASP67      -0.1971
     47  CA       -41.8970    5.8340   -1.7090 C.3    67  ASP67       0.1709
     48  C        -42.8090    5.8450   -2.9340 C.2    67  ASP67       0.2293
     49  O        -43.5210    6.8140   -3.1930 O.2    67  ASP67      -0.2864
     50  CB       -42.2700    4.7320   -0.7320 C.3    67  ASP67       0.1436
     51  CG       -43.7380    4.7280   -0.3650 C.2    67  ASP67       0.3671
     52  OD1      -44.6310    4.9470   -1.2280 O.co2  67  ASP67      -0.2456
     53  OD2      -44.0160    4.4760    0.8130 O.co2  67  ASP67      -0.2456
     54  N        -48.3550    2.1030   -2.9310 N.3    70  ARG70      -0.1231
     55  CA       -49.7640    2.3510   -3.2410 C.3    70  ARG70       0.1694
     56  C        -50.3650    3.6680   -2.7800 C.2    70  ARG70       0.2593
     57  O        -51.4720    4.0360   -3.2070 O.2    70  ARG70      -0.2718
     58  CB       -50.6320    1.2270   -2.6600 C.3    70  ARG70       0.0321
     59  CG       -50.3720   -0.1270   -3.2570 C.3    70  ARG70       0.0489
     60  CD       -51.1580   -1.1870   -2.4640 C.3    70  ARG70       0.2205
     61  NE       -50.4960   -1.4150   -1.1810 N.pl3  70  ARG70      -0.0865
     62  CZ       -50.8630   -2.3110   -0.2690 C.cat  70  ARG70       0.5346
     63  NH1      -51.9340   -3.0810   -0.4410 N.pl3  70  ARG70       0.1354
     64  NH2      -50.1580   -2.4470    0.8220 N.pl3  70  ARG70       0.1354
     65  N        -49.6610    4.3850   -1.9150 N.am   71  GLY71      -0.1942
     66  CA       -50.2290    5.5160   -1.2250 C.3    71  GLY71       0.2014
     67  C        -50.9840    5.0350    0.0080 C.2    71  GLY71       0.2639
     68  O        -51.6380    3.9910   -0.0200 O.2    71  GLY71      -0.2714
     69  N        -50.8660    5.7770    1.1070 N.am   72  ILE72      -0.1963
     70  CA       -51.6930    5.5560    2.2990 C.3    72  ILE72       0.1712
     71  C        -53.1840    5.7870    1.9530 C.2    72  ILE72       0.2458
     72  O        -53.5100    6.7840    1.2900 O.2    72  ILE72      -0.2730
     73  CB       -51.2810    6.4980    3.4680 C.3    72  ILE72       0.0289
     74  CG1      -49.8460    6.1950    3.9230 C.3    72  ILE72       0.0022
     75  CG2      -52.2560    6.3230    4.6240 C.3    72  ILE72       0.0023
     76  CD1      -49.2890    7.1270    4.9990 C.3    72  ILE72       0.0001
     77  N        -54.0930    4.8800    2.3920 N.am   73  PRO73      -0.2727
     78  CA       -55.5260    5.0410    2.1160 C.3    73  PRO73       0.1402
     79  C        -56.1050    6.3910    2.5140 C.2    73  PRO73       0.2269
     80  O        -55.7630    6.9370    3.5680 O.2    73  PRO73      -0.2865
     81  CB       -56.1730    3.8740    2.8950 C.3    73  PRO73       0.0296
     82  CG       -55.1100    2.8350    2.8800 C.3    73  PRO73       0.0237
     83  CD       -53.8310    3.5900    3.0510 C.3    73  PRO73       0.0939
     84  N        -54.0880    7.5150   10.9000 N.3    88  ILE88      -0.1245
     85  CA       -52.7450    6.9380   10.9760 C.3    88  ILE88       0.1561
     86  C        -51.7330    7.9560   11.5030 C.2    88  ILE88       0.2260
     87  O        -50.8620    7.6410   12.3280 O.2    88  ILE88      -0.2867
     88  CB       -52.3050    6.3890    9.5950 C.3    88  ILE88       0.0252
     89  CG1      -53.0480    5.0720    9.2900 C.3    88  ILE88       0.0019
     90  CG2      -50.8220    6.1080    9.5480 C.3    88  ILE88       0.0019
     91  CD1      -52.9930    4.6400    7.8410 C.3    88  ILE88       0.0001
     92  N        -44.7390    4.1220   15.7770 N.3   106  GLY106     -0.1210
     93  CA       -45.7090    4.6280   14.8520 C.3   106  GLY106      0.1956
     94  C        -45.4830    6.0730   14.5000 C.2   106  GLY106      0.2611
     95  O        -44.9290    6.8650   15.2820 O.2   106  GLY106     -0.2717
     96  N        -45.9120    6.4070   13.2980 N.am  107  VAL107     -0.1979
     97  CA       -45.7260    7.7250   12.7440 C.3   107  VAL107      0.1595
     98  C        -46.5130    8.8640   13.4370 C.2   107  VAL107      0.2287
     99  O        -46.1460   10.0490   13.2860 O.2   107  VAL107     -0.2864
    100  CB       -46.0090    7.6660   11.2280 C.3   107  VAL107      0.0276
    101  CG1      -47.4820    7.4580   10.9550 C.3   107  VAL107      0.0022
    102  CG2      -45.4610    8.8920   10.5270 C.3   107  VAL107      0.0022
    103  N        -52.5480    8.5550   -5.1980 N.3   123  ARG123     -0.1245
    104  CA       -53.3840    7.3580   -5.0960 C.3   123  ARG123      0.1563
    105  C        -54.7000    7.5220   -5.8460 C.2   123  ARG123      0.2260
    106  O        -55.4070    8.5270   -5.7050 O.2   123  ARG123     -0.2867
    107  CB       -53.6760    7.0330   -3.6310 C.3   123  ARG123      0.0307
    108  CG       -54.4980    5.7800   -3.4060 C.3   123  ARG123      0.0489
    109  CD       -54.6050    5.4860   -1.9220 C.3   123  ARG123      0.2205
    110  NE       -55.4300    4.3260   -1.6210 N.pl3 123  ARG123     -0.0865
    111  CZ       -54.9750    3.1150   -1.2870 C.cat 123  ARG123      0.5346
    112  NH1      -53.6770    2.8490   -1.2490 N.pl3 123  ARG123      0.1354
    113  NH2      -55.8380    2.1450   -0.9930 N.pl3 123  ARG123      0.1354
    114  N        -46.2720    7.6430   -1.3970 N.3   152  THR152     -0.1218
    115  CA       -46.5040    8.4080   -0.1860 C.3   152  THR152      0.1862
    116  C        -45.2460    9.1940    0.1010 C.2   152  THR152      0.2287
    117  O        -44.1560    8.6880   -0.0620 O.2   152  THR152     -0.2866
    118  CB       -46.7610    7.5010    1.0270 C.3   152  THR152      0.1770
    119  OG1      -47.9170    6.7080    0.7800 O.3   152  THR152     -0.2211
    120  CG2      -46.9670    8.2940    2.3270 C.3   152  THR152      0.0375
    121  N        -43.7160   11.8150    3.1870 N.3   154  VAL154     -0.1245
    122  CA       -43.7590   12.5010    4.4510 C.3   154  VAL154      0.1561
    123  C        -42.4910   13.3520    4.5710 C.2   154  VAL154      0.2260
    124  O        -41.3620   12.8440    4.4510 O.2   154  VAL154     -0.2867
    125  CB       -43.8250   11.5160    5.6420 C.3   154  VAL154      0.0252
    126  CG1      -43.7200   12.2550    6.9710 C.3   154  VAL154      0.0019
    127  CG2      -45.1050   10.6710    5.5900 C.3   154  VAL154      0.0019
@<TRIPOS>BOND
     1   105   106    2
     2   105   104    1
     3   103   104    1
     4   104   107    1
     5    45    43   am
     6   107   108    1
     7   108   109    1
     8    59    58    1
     9    59    60    1
    10    55    54    1
    11    55    56    1
    12    55    58    1
    13    57    56    2
    14    49    48    2
    15    43    44    2
    16    43    42    1
    17    48    47    1
    18    56    65   am
    19    60    61    1
    20    42    41    1
    21   109   110    1
    22    65    66    1
    23    47    46    1
    24    47    50    1
    25   110   111    2
    26    41    38    1
    27   114   115    1
    28   111   112    1
    29   111   113    1
    30    52    51   ar
    31    66    67    1
    32    61    62    2
    33    46    39   am
    34    29    27   ar
    35    40    39    2
    36    50    51    1
    37    39    38    1
    38    63    62    1
    39    51    53   ar
    40    62    64    1
    41    38    37    1
    42    24    23    2
    43   115   116    1
    44   115   118    1
    45   117   116    2
    46    68    67    2
    47    67    69   am
    48    26    27    1
    49    26    25    1
    50    27    28   ar
    51    23    22    1
    52   119   118    1
    53    37    32   am
    54   118   120    1
    55    69    70    1
    56    72    71    2
    57    25    22    1
    58    22    21    1
    59    32    33    2
    60    32    31    1
    61    71    70    1
    62    71    77   am
    63    78    77    1
    64    78    79    1
    65    78    81    1
    66    19    18    2
    67    70    73    1
    68    77    83    1
    69    79    80    2
    70    82    81    1
    71    82    83    1
    72    31    30    1
    73    31    34    1
    74    20    17    1
    75   121   122    1
    76    18    17    1
    77    73    74    1
    78    73    75    1
    79    17    16    1
    80    35    34    1
    81    74    76    1
    82    34    36    1
    83   124   123    2
    84   122   123    1
    85   122   125    1
    86    11    10    2
    87    16    10   am
    88    10     9    1
    89   127   125    1
    90   125   126    1
    91     4     3    2
    92     9    12    1
    93     9     8    1
    94     6     5    1
    95    12    13    1
    96     3     2    1
    97    91    89    1
    98     5     2    1
    99     5     7    1
   100     2     1    1
   101    13    14    2
   102    13    15   am
   103    89    88    1
   104    90    88    1
   105    88    85    1
   106   102   100    1
   107    84    85    1
   108   101   100    1
   109    85    86    1
   110   100    97    1
   111    86    87    2
   112    97    96    1
   113    97    98    1
   114    99    98    2
   115    96    94   am
   116    94    93    1
   117    94    95    2
   118    93    92    1
