@<TRIPOS>MOLECULE
tmp/5mmpA00.pdb
 135 126 0 0 0
SMALL
GASTEIGER

@<TRIPOS>ATOM
      1  N         47.3310  -16.0040   -2.2960 N.3    34  VAL34      -0.1245
      2  CA        47.1980  -15.3730   -3.6120 C.3    34  VAL34       0.1561
      3  C         48.4760  -15.6570   -4.3860 C.2    34  VAL34       0.2260
      4  O         48.4300  -16.0320   -5.5520 O.2    34  VAL34      -0.2867
      5  CB        46.9050  -13.8520   -3.5080 C.3    34  VAL34       0.0252
      6  CG1       46.8130  -13.2100   -4.9170 C.3    34  VAL34       0.0019
      7  CG2       45.5950  -13.6270   -2.7410 C.3    34  VAL34       0.0019
      8  N         48.9930  -19.2630   -6.1540 N.3    37  ASN37      -0.1225
      9  CA        48.4230  -19.4070   -7.4950 C.3    37  ASN37       0.1785
     10  C         49.2700  -18.7970   -8.6030 C.2    37  ASN37       0.2597
     11  O         49.2940  -19.3090   -9.7290 O.2    37  ASN37      -0.2718
     12  CB        47.0100  -18.8360   -7.5290 C.3    37  ASN37       0.1169
     13  CG        46.0580  -19.5860   -6.6100 C.2    37  ASN37       0.2627
     14  OD1       45.3400  -18.9820   -5.8150 O.2    37  ASN37      -0.2716
     15  ND2       46.0410  -20.9050   -6.7280 N.am   37  ASN37      -0.0877
     16  N         49.9520  -17.6970   -8.2900 N.am   38  ALA38      -0.1979
     17  CA        50.9450  -17.1220   -9.2150 C.3    38  ALA38       0.1597
     18  C         52.1450  -18.0610   -9.3560 C.2    38  ALA38       0.2287
     19  O         52.7270  -18.1900  -10.4400 O.2    38  ALA38      -0.2864
     20  CB        51.4090  -15.7280   -8.7260 C.3    38  ALA38       0.0319
     21  N         52.0380  -21.3590   -9.0890 N.3    40  ASP40      -0.1225
     22  CA        51.5920  -22.4550   -9.9540 C.3    40  ASP40       0.1805
     23  C         51.6950  -22.0790  -11.4260 C.2    40  ASP40       0.2597
     24  O         52.1320  -22.8870  -12.2490 O.2    40  ASP40      -0.2718
     25  CB        50.1560  -22.8820   -9.6290 C.3    40  ASP40       0.1424
     26  CG        50.0610  -23.6890   -8.3460 C.2    40  ASP40       0.3668
     27  OD1       51.1080  -23.9750   -7.7460 O.co2  40  ASP40      -0.2456
     28  OD2       48.9360  -24.0260   -7.9290 O.co2  40  ASP40      -0.2456
     29  N         51.2840  -20.8560  -11.7460 N.am   41  GLU41      -0.1979
     30  CA        51.3820  -20.3280  -13.1000 C.3    41  GLU41       0.1602
     31  C         52.8510  -20.2560  -13.5840 C.2    41  GLU41       0.2287
     32  O         53.1320  -20.5170  -14.7640 O.2    41  GLU41      -0.2864
     33  CB        50.6710  -18.9690  -13.1810 C.3    41  GLU41       0.0415
     34  CG        50.6570  -18.3240  -14.5460 C.3    41  GLU41       0.1163
     35  CD        49.8380  -19.0790  -15.5910 C.2    41  GLU41       0.3649
     36  OE1       49.1220  -20.0510  -15.2300 O.co2  41  GLU41      -0.2457
     37  OE2       49.9110  -18.6810  -16.7820 O.co2  41  GLU41      -0.2457
     38  N         49.1580   -8.5590   -5.6310 N.3    62  VAL62      -0.1231
     39  CA        50.0560   -9.5720   -6.1540 C.3    62  VAL62       0.1692
     40  C         49.8150   -9.5440   -7.6460 C.2    62  VAL62       0.2592
     41  O         48.6700   -9.6170   -8.0840 O.2    62  VAL62      -0.2718
     42  CB        49.7080  -10.9760   -5.6000 C.3    62  VAL62       0.0266
     43  CG1       50.7100  -12.0380   -6.0910 C.3    62  VAL62       0.0020
     44  CG2       49.6160  -10.9540   -4.0420 C.3    62  VAL62       0.0020
     45  N         50.9000   -9.4060   -8.4040 N.am   63  GLN63      -0.1966
     46  CA        50.8770   -9.3540   -9.8620 C.3    63  GLN63       0.1733
     47  C         51.7730  -10.4440  -10.3900 C.2    63  GLN63       0.2616
     48  O         52.8100  -10.7350   -9.7790 O.2    63  GLN63      -0.2715
     49  CB        51.4780   -8.0380  -10.3470 C.3    63  GLN63       0.0408
     50  CG        50.9200   -6.8090   -9.6580 C.3    63  GLN63       0.0908
     51  CD        51.4240   -5.5270  -10.2770 C.2    63  GLN63       0.2608
     52  OE1       51.1260   -5.2390  -11.4340 O.2    63  GLN63      -0.2717
     53  NE2       52.1760   -4.7420   -9.5070 N.am   63  GLN63      -0.0878
     54  N         51.4040  -11.0230  -11.5310 N.am   64  ASP64      -0.1971
     55  CA        52.3210  -11.8870  -12.2550 C.3    64  ASP64       0.1709
     56  C         52.2750  -11.5270  -13.7350 C.2    64  ASP64       0.2293
     57  O         51.4140  -10.7360  -14.1560 O.2    64  ASP64      -0.2864
     58  CB        52.0420  -13.3930  -11.9810 C.3    64  ASP64       0.1436
     59  CG        50.7480  -13.8810  -12.6000 C.2    64  ASP64       0.3671
     60  OD1       50.4890  -13.5500  -13.7610 O.co2  64  ASP64      -0.2456
     61  OD2       49.9870  -14.6240  -11.9300 O.co2  64  ASP64      -0.2456
     62  N         49.7150  -16.1230  -17.9780 N.3    67  ARG67      -0.1231
     63  CA        48.7640  -16.1720  -19.0960 C.3    67  ARG67       0.1694
     64  C         47.5320  -15.3390  -18.8540 C.2    67  ARG67       0.2593
     65  O         46.8050  -15.0060  -19.7940 O.2    67  ARG67      -0.2718
     66  CB        48.3060  -17.6060  -19.3560 C.3    67  ARG67       0.0321
     67  CG        49.3470  -18.4860  -20.0300 C.3    67  ARG67       0.0489
     68  CD        48.8670  -19.9500  -19.9710 C.3    67  ARG67       0.2205
     69  NE        48.9210  -20.4760  -18.6050 N.pl3  67  ARG67      -0.0865
     70  CZ        48.7210  -21.7590  -18.2890 C.cat  67  ARG67       0.5346
     71  NH1       48.4550  -22.6480  -19.2470 N.pl3  67  ARG67       0.1354
     72  NH2       48.8040  -22.1640  -17.0230 N.pl3  67  ARG67       0.1354
     73  N         47.2840  -15.0380  -17.5830 N.am   68  GLY68      -0.1942
     74  CA        46.0950  -14.3310  -17.1900 C.3    68  GLY68       0.2014
     75  C         45.0530  -15.3730  -16.8710 C.2    68  GLY68       0.2639
     76  O         44.9720  -16.4190  -17.5340 O.2    68  GLY68      -0.2714
     77  N         44.2750  -15.1010  -15.8360 N.am   69  ILE69      -0.1963
     78  CA        43.1400  -15.9470  -15.4680 C.3    69  ILE69       0.1712
     79  C         42.1670  -15.9090  -16.6370 C.2    69  ILE69       0.2458
     80  O         41.9810  -14.8480  -17.2470 O.2    69  ILE69      -0.2730
     81  CB        42.5090  -15.4610  -14.1270 C.3    69  ILE69       0.0289
     82  CG1       43.3930  -15.8900  -12.9360 C.3    69  ILE69       0.0022
     83  CG2       41.0830  -15.9800  -13.9320 C.3    69  ILE69       0.0023
     84  CD1       42.8710  -15.4310  -11.5440 C.3    69  ILE69       0.0001
     85  N         41.5560  -17.0600  -16.9860 N.am   70  PRO70      -0.2727
     86  CA        40.6690  -17.0590  -18.1620 C.3    70  PRO70       0.1402
     87  C         39.4560  -16.1430  -17.9820 C.2    70  PRO70       0.2269
     88  O         38.9700  -15.9640  -16.8660 O.2    70  PRO70      -0.2865
     89  CB        40.2360  -18.5300  -18.2990 C.3    70  PRO70       0.0296
     90  CG        40.6910  -19.2250  -17.0550 C.3    70  PRO70       0.0237
     91  CD        41.7590  -18.4090  -16.4160 C.3    70  PRO70       0.0939
     92  N         36.3200  -19.0230  -10.5870 N.3    85  ILE85      -0.1245
     93  CA        37.5530  -19.2350   -9.8340 C.3    85  ILE85       0.1561
     94  C         37.5950  -18.4130   -8.5290 C.2    85  ILE85       0.2260
     95  O         38.0560  -18.8980   -7.4990 O.2    85  ILE85      -0.2867
     96  CB        38.7780  -18.9290  -10.6930 C.3    85  ILE85       0.0252
     97  CG1       38.8780  -19.9670  -11.8310 C.3    85  ILE85       0.0019
     98  CG2       40.0240  -18.9030   -9.8270 C.3    85  ILE85       0.0019
     99  CD1       39.8080  -19.5740  -12.9760 C.3    85  ILE85       0.0001
    100  N         42.7640  -21.7120   -1.2830 N.3    91  GLY91      -0.1210
    101  CA        42.3520  -21.0960   -2.5540 C.3    91  GLY91       0.1956
    102  C         41.9340  -19.6360   -2.4630 C.2    91  GLY91       0.2611
    103  O         41.5240  -19.1930   -1.3890 O.2    91  GLY91      -0.2717
    104  N         42.0070  -18.8970   -3.5820 N.am   92  VAL92      -0.1979
    105  CA        41.6180  -17.4600   -3.5730 C.3    92  VAL92       0.1595
    106  C         40.1900  -17.1870   -3.1650 C.2    92  VAL92       0.2287
    107  O         39.9000  -16.1000   -2.6970 O.2    92  VAL92      -0.2864
    108  CB        41.7420  -16.6970   -4.9350 C.3    92  VAL92       0.0276
    109  CG1       42.9980  -15.8760   -5.0150 C.3    92  VAL92       0.0022
    110  CG2       41.4940  -17.5770   -6.1490 C.3    92  VAL92       0.0022
    111  N         44.9810  -10.1340  -20.9750 N.3   108  ARG108     -0.1245
    112  CA        44.8040  -11.3860  -21.7120 C.3   108  ARG108      0.1563
    113  C         44.1430  -11.0910  -23.0430 C.2   108  ARG108      0.2260
    114  O         43.1470  -10.3700  -23.1010 O.2   108  ARG108     -0.2867
    115  CB        43.8730  -12.3090  -20.9170 C.3   108  ARG108      0.0307
    116  CG        43.6510  -13.6710  -21.5370 C.3   108  ARG108      0.0489
    117  CD        43.0410  -14.6420  -20.5280 C.3   108  ARG108      0.2205
    118  NE        42.6840  -15.8660  -21.2240 N.pl3 108  ARG108     -0.0865
    119  CZ        43.5440  -16.8330  -21.5070 C.cat 108  ARG108      0.5346
    120  NH1       44.8110  -16.7500  -21.1210 N.pl3 108  ARG108      0.1354
    121  NH2       43.1190  -17.9010  -22.1640 N.pl3 108  ARG108      0.1354
    122  N         48.0420  -11.4090  -14.3980 N.3   137  THR137     -0.1218
    123  CA        46.9380  -11.3380  -13.4540 C.3   137  THR137      0.1862
    124  C         47.3670  -10.4830  -12.2640 C.2   137  THR137      0.2287
    125  O         48.5050  -10.6070  -11.7940 O.2   137  THR137     -0.2866
    126  CB        46.5650  -12.7790  -12.9760 C.3   137  THR137      0.1770
    127  OG1       46.1350  -13.5300  -14.1110 O.3   137  THR137     -0.2211
    128  CG2       45.4420  -12.7820  -11.9180 C.3   137  THR137      0.0375
    129  N         45.8480   -9.3050   -8.4500 N.3   139  VAL139     -0.1245
    130  CA        44.8140   -9.4270   -7.4340 C.3   139  VAL139      0.1561
    131  C         45.1950   -8.4750   -6.3120 C.2   139  VAL139      0.2260
    132  O         46.3040   -8.5290   -5.8100 O.2   139  VAL139     -0.2867
    133  CB        44.6850  -10.8710   -6.9090 C.3   139  VAL139      0.0252
    134  CG1       43.9200  -10.9180   -5.5980 C.3   139  VAL139      0.0019
    135  CG2       44.0080  -11.7470   -7.9720 C.3   139  VAL139      0.0019
@<TRIPOS>BOND
     1   114   113    2
     2   113   112    1
     3   121   119    1
     4   112   111    1
     5   112   115    1
     6   116   115    1
     7   116   117    1
     8   119   118    2
     9   119   120    1
    10   118   117    1
    11    67    68    1
    12    67    66    1
    13    68    69    1
    14    65    64    2
    15    66    63    1
    16    71    70    1
    17    63    64    1
    18    63    62    1
    19    64    73   am
    20    69    70    2
    21    89    86    1
    22    89    90    1
    23    70    72    1
    24    86    87    1
    25    86    85    1
    26    87    88    2
    27    73    74    1
    28    76    75    2
    29    80    79    2
    30    74    75    1
    31    90    91    1
    32    85    79   am
    33    85    91    1
    34    75    77   am
    35    37    35   ar
    36    79    78    1
    37    77    78    1
    38    35    36   ar
    39    35    34    1
    40    78    81    1
    41    32    31    2
    42    34    33    1
    43   122   123    1
    44    57    56    2
    45    81    83    1
    46    81    82    1
    47   127   126    1
    48    60    59   ar
    49    56    55    1
    50    31    30    1
    51   123   126    1
    52   123   124    1
    53    33    30    1
    54    30    29    1
    55   126   128    1
    56    99    97    1
    57    82    84    1
    58    59    58    1
    59    59    61   ar
    60   124   125    2
    61    55    58    1
    62    55    54    1
    63    24    23    2
    64    97    96    1
    65    29    23   am
    66    54    47   am
    67    52    51    2
    68    23    22    1
    69    96    93    1
    70    96    98    1
    71    92    93    1
    72    19    18    2
    73    47    46    1
    74    47    48    2
    75    49    46    1
    76    49    50    1
    77    51    50    1
    78    51    53   am
    79    22    25    1
    80    22    21    1
    81    46    45    1
    82    93    94    1
    83    11    10    2
    84    25    26    1
    85    18    17    1
    86    17    20    1
    87    17    16    1
    88    10    16   am
    89    10     9    1
    90    94    95    2
    91   129   130    1
    92    45    40   am
    93    26    28   ar
    94    26    27   ar
    95    41    40    2
    96   135   133    1
    97    40    39    1
    98    12     9    1
    99    12    13    1
   100     9     8    1
   101   130   133    1
   102   130   131    1
   103   133   134    1
   104    15    13   am
   105    13    14    2
   106   131   132    2
   107    39    38    1
   108    39    42    1
   109   110   108    1
   110    43    42    1
   111    42    44    1
   112     4     3    2
   113   109   108    1
   114   108   105    1
   115     6     5    1
   116     3     2    1
   117     2     5    1
   118     2     1    1
   119   104   105    1
   120   104   102   am
   121   105   106    1
   122     5     7    1
   123   106   107    2
   124   101   102    1
   125   101   100    1
   126   102   103    2
