@<TRIPOS>MOLECULE
tmp/5mmrA00.pdb
 154 147 0 0 0
SMALL
GASTEIGER

@<TRIPOS>ATOM
      1  N          1.0090  132.0250  361.3950 N.3   116  ASN116     -0.1225
      2  CA         1.1370  132.5740  360.0580 C.3   116  ASN116      0.1785
      3  C          0.0200  132.1040  359.1140 C.2   116  ASN116      0.2597
      4  O         -0.2550  130.9020  359.0190 O.2   116  ASN116     -0.2718
      5  CB         2.5240  132.3270  359.4740 C.3   116  ASN116      0.1169
      6  CG         2.6840  132.8790  358.0740 C.2   116  ASN116      0.2627
      7  OD1        2.5450  132.1520  357.0830 O.2   116  ASN116     -0.2716
      8  ND2        2.8700  134.1910  357.9550 N.am  116  ASN116     -0.0877
      9  N         -0.6370  133.0790  358.4580 N.am  117  THR117     -0.1953
     10  CA        -1.6930  132.8880  357.4560 C.3   117  THR117      0.1897
     11  C         -0.9860  132.6320  356.1070 C.2   117  THR117      0.2313
     12  O          0.0540  133.2480  355.8600 O.2   117  THR117     -0.2863
     13  CB        -2.5700  134.1530  357.3630 C.3   117  THR117      0.1794
     14  OG1       -2.6940  134.7880  358.6410 O.3   117  THR117     -0.2208
     15  CG2       -3.9460  133.8670  356.7730 C.3   117  THR117      0.0378
     16  N          0.5990  132.8870  352.6820 N.3   119  PHE119     -0.1241
     17  CA         1.0770  134.0150  351.8720 C.3   119  PHE119      0.1605
     18  C          0.5370  134.0380  350.4260 C.2   119  PHE119      0.2264
     19  O          0.3280  135.1300  349.8920 O.2   119  PHE119     -0.2867
     20  CB         2.6190  134.0910  351.8790 C.3   119  PHE119      0.0534
     21  CG         3.3500  132.8960  351.3020 C.ar  119  PHE119     -0.0203
     22  CD1        3.6800  131.8040  352.1030 C.ar  119  PHE119     -0.0042
     23  CD2        3.7520  132.8810  349.9680 C.ar  119  PHE119     -0.0042
     24  CE1        4.3670  130.7040  351.5700 C.ar  119  PHE119     -0.0003
     25  CE2        4.4390  131.7800  349.4370 C.ar  119  PHE119     -0.0003
     26  CZ         4.7440  130.7020  350.2420 C.ar  119  PHE119     -0.0000
     27  N         -3.0170  135.0920  350.7570 N.3   122  LEU122     -0.1231
     28  CA        -2.9500  136.4660  351.2810 C.3   122  LEU122      0.1693
     29  C         -2.8700  137.4620  350.1070 C.2   122  LEU122      0.2592
     30  O         -3.3350  138.5990  350.2280 O.2   122  LEU122     -0.2718
     31  CB        -1.7490  136.6380  352.2420 C.3   122  LEU122      0.0284
     32  CG        -1.9970  137.4040  353.5590 C.3   122  LEU122      0.0019
     33  CD1       -2.9540  136.6640  354.4700 C.3   122  LEU122      0.0001
     34  CD2       -0.7100  137.6130  354.3190 C.3   122  LEU122      0.0001
     35  N         -2.3190  137.0050  348.9580 N.am  123  TYR123     -0.1976
     36  CA        -2.2530  137.7710  347.7160 C.3   123  TYR123      0.1639
     37  C         -3.6370  137.6980  347.0590 C.2   123  TYR123      0.2290
     38  O         -4.3000  136.6590  347.1010 O.2   123  TYR123     -0.2864
     39  CB        -1.2130  137.1910  346.7260 C.3   123  TYR123      0.0560
     40  CG         0.2490  137.2060  347.1340 C.ar  123  TYR123     -0.0198
     41  CD1        0.6880  137.9570  348.2220 C.ar  123  TYR123     -0.0009
     42  CD2        1.2020  136.5010  346.4020 C.ar  123  TYR123     -0.0009
     43  CE1        2.0300  137.9570  348.6080 C.ar  123  TYR123      0.0417
     44  CE2        2.5490  136.5060  346.7670 C.ar  123  TYR123      0.0417
     45  CZ         2.9600  137.2390  347.8690 C.ar  123  TYR123      0.1957
     46  OH         4.2900  137.2550  348.2250 O.3   123  TYR123     -0.2866
     47  N         -5.5170  141.0850  349.5390 N.3   126  LEU126     -0.1245
     48  CA        -4.8880  142.2450  350.1440 C.3   126  LEU126      0.1561
     49  C         -5.2770  143.5060  349.3920 C.2   126  LEU126      0.2260
     50  O         -5.3200  143.5310  348.1650 O.2   126  LEU126     -0.2867
     51  CB        -3.3680  142.0910  350.1640 C.3   126  LEU126      0.0270
     52  CG        -2.6990  142.3610  351.5100 C.3   126  LEU126      0.0019
     53  CD1       -3.1980  141.3890  352.5680 C.3   126  LEU126      0.0001
     54  CD2       -1.1880  142.2880  351.3800 C.3   126  LEU126      0.0001
     55  N         -1.4820  146.6590  352.7340 N.3   131  ILE131     -0.1245
     56  CA        -0.0640  146.7780  352.3960 C.3   131  ILE131      0.1561
     57  C          0.5200  147.9140  353.2230 C.2   131  ILE131      0.2260
     58  O          1.5280  147.6940  353.8880 O.2   131  ILE131     -0.2867
     59  CB         0.1800  146.9750  350.8690 C.3   131  ILE131      0.0252
     60  CG1       -0.4060  145.8040  350.0660 C.3   131  ILE131      0.0019
     61  CG2        1.6930  147.1850  350.5640 C.3   131  ILE131      0.0019
     62  CD1       -0.4030  146.0160  348.6510 C.3   131  ILE131      0.0001
     63  N          0.7010  146.7340  356.9650 N.3   134  TYR134     -0.1227
     64  CA         1.7770  145.7780  357.2800 C.3   134  TYR134      0.1736
     65  C          3.1810  146.3470  357.0090 C.2   134  TYR134      0.2595
     66  O          4.0750  146.0320  357.7740 O.2   134  TYR134     -0.2718
     67  CB         1.5630  144.4220  356.6230 C.3   134  TYR134      0.0548
     68  CG         0.4210  143.6320  357.2470 C.ar  134  TYR134     -0.0200
     69  CD1        0.4200  143.3250  358.6080 C.ar  134  TYR134     -0.0009
     70  CD2       -0.6830  143.2460  356.4890 C.ar  134  TYR134     -0.0009
     71  CE1       -0.6390  142.6320  359.1950 C.ar  134  TYR134      0.0417
     72  CE2       -1.7340  142.5170  357.0590 C.ar  134  TYR134      0.0417
     73  CZ        -1.6980  142.2080  358.4110 C.ar  134  TYR134      0.1957
     74  OH        -2.7170  141.5280  358.9990 O.3   134  TYR134     -0.2866
     75  N          3.3520  147.1990  355.9810 N.am  135  MET135     -0.1979
     76  CA         4.6200  147.9360  355.7240 C.3   135  MET135      0.1605
     77  C          4.9900  148.7990  356.9570 C.2   135  MET135      0.2287
     78  O          6.1350  148.7820  357.3810 O.2   135  MET135     -0.2864
     79  CB         4.4960  148.8140  354.4900 C.3   135  MET135      0.0413
     80  CG         4.6290  148.0400  353.1860 C.3   135  MET135      0.0598
     81  SD         6.2790  147.3340  352.9540 S.3   135  MET135     -0.1393
     82  CE         7.2240  148.8760  352.8780 C.3   135  MET135      0.0692
     83  N          6.3320  146.5600  359.8590 N.3   138  ILE138     -0.1245
     84  CA         7.7410  146.1740  359.5950 C.3   138  ILE138      0.1561
     85  C          8.6690  147.3600  359.9210 C.2   138  ILE138      0.2260
     86  O          9.7450  147.1540  360.4830 O.2   138  ILE138     -0.2867
     87  CB         7.9260  145.7230  358.1090 C.3   138  ILE138      0.0252
     88  CG1        6.9980  144.5010  357.7930 C.3   138  ILE138      0.0019
     89  CG2        9.4280  145.3860  357.8290 C.3   138  ILE138      0.0019
     90  CD1        6.8720  144.1080  356.2540 C.3   138  ILE138      0.0001
     91  N          9.9700  138.4720  352.4870 N.3   157  PRO157     -0.2102
     92  CA         8.6650  137.9640  352.9380 C.3   157  PRO157      0.1504
     93  C          8.7190  136.6700  353.7370 C.2   157  PRO157      0.2575
     94  O          7.9610  136.5520  354.6950 O.2   157  PRO157     -0.2718
     95  CB         7.8550  137.8180  351.6310 C.3   157  PRO157      0.0282
     96  CG         8.4910  138.7600  350.7050 C.3   157  PRO157      0.0208
     97  CD         9.9600  138.6900  351.0250 C.3   157  PRO157      0.0893
     98  N          9.6750  135.7730  353.4550 N.am  158  HIS158     -0.1976
     99  CA         9.8430  134.5170  354.2290 C.3   158  HIS158      0.1656
    100  C         10.1870  134.7960  355.7080 C.2   158  HIS158      0.2291
    101  O          9.8310  133.9900  356.5730 O.2   158  HIS158     -0.2864
    102  CB        10.9050  133.6170  353.5670 C.3   158  HIS158      0.0771
    103  CG        11.0590  132.2290  354.1410 C.ar  158  HIS158      0.0820
    104  ND1       10.7430  131.0970  353.3890 N.ar  158  HIS158     -0.2267
    105  CD2       11.6090  131.8220  355.3120 C.ar  158  HIS158      0.1154
    106  CE1       11.0600  130.0560  354.1440 C.ar  158  HIS158      0.1986
    107  NE2       11.5700  130.4380  355.3120 N.ar  158  HIS158     -0.2212
    108  N          9.0200  137.4270  357.4710 N.3   160  VAL160     -0.1231
    109  CA         7.9720  138.2420  358.0590 C.3   160  VAL160      0.1692
    110  C          6.7420  137.3230  358.2670 C.2   160  VAL160      0.2592
    111  O          6.1970  136.7770  357.2980 O.2   160  VAL160     -0.2718
    112  CB         7.6570  139.4990  357.2440 C.3   160  VAL160      0.0266
    113  CG1        6.5070  140.2750  357.8920 C.3   160  VAL160      0.0020
    114  CG2        8.8950  140.4000  357.1110 C.3   160  VAL160      0.0020
    115  N          6.3530  137.1330  359.5370 N.am  161  MET161     -0.1965
    116  CA         5.1930  136.3160  359.8980 C.3   161  MET161      0.1736
    117  C          4.0050  137.2060  360.1450 C.2   161  MET161      0.2616
    118  O          4.1290  138.2240  360.8280 O.2   161  MET161     -0.2715
    119  CB         5.4900  135.4250  361.1090 C.3   161  MET161      0.0427
    120  CG         6.4100  134.2650  360.7370 C.3   161  MET161      0.0599
    121  SD         6.7230  133.1540  362.1270 S.3   161  MET161     -0.1393
    122  CE         5.3720  131.9860  361.9080 C.3   161  MET161      0.0692
    123  N          2.8630  136.8540  359.5360 N.am  162  ILE162     -0.1977
    124  CA         1.6280  137.6170  359.6650 C.3   162  ILE162      0.1596
    125  C          0.4860  136.7090  360.0830 C.2   162  ILE162      0.2287
    126  O          0.1700  135.7480  359.3890 O.2   162  ILE162     -0.2864
    127  CB         1.2820  138.4260  358.3890 C.3   162  ILE162      0.0276
    128  CG1        2.3630  139.5010  358.0940 C.3   162  ILE162      0.0022
    129  CG2       -0.1060  139.0640  358.5040 C.3   162  ILE162      0.0022
    130  CD1        2.1550  140.3010  356.7900 C.3   162  ILE162      0.0001
    131  N         11.1290  137.9020  361.9110 N.3   172  ILE172     -0.1245
    132  CA        11.7910  136.6960  362.4520 C.3   172  ILE172      0.1561
    133  C         13.1600  136.4400  361.8220 C.2   172  ILE172      0.2260
    134  O         13.5940  137.2040  360.9570 O.2   172  ILE172     -0.2867
    135  CB        10.8390  135.4790  362.2580 C.3   172  ILE172      0.0252
    136  CG1       10.7350  135.0430  360.7610 C.3   172  ILE172      0.0019
    137  CG2        9.4630  135.7110  362.8920 C.3   172  ILE172      0.0019
    138  CD1       10.2740  133.5470  360.6210 C.3   172  ILE172      0.0001
    139  N         10.4960  144.3540  348.7690 N.3   219  MET219     -0.1245
    140  CA         9.2250  143.7670  349.2200 C.3   219  MET219      0.1570
    141  C          8.0580  144.6510  348.8330 C.2   219  MET219      0.2261
    142  O          7.0530  144.1380  348.3420 O.2   219  MET219     -0.2867
    143  CB         9.2070  143.6060  350.7320 C.3   219  MET219      0.0387
    144  CG        10.1480  142.5320  351.2350 C.3   219  MET219      0.0595
    145  SD         9.9340  142.1570  352.9760 S.3   219  MET219     -0.1393
    146  CE         8.9420  143.4160  353.5040 C.3   219  MET219      0.0692
    147  N          4.9320  143.6170  346.2030 N.3   223  MET223     -0.1245
    148  CA         3.5450  143.6770  346.6880 C.3   223  MET223      0.1570
    149  C          2.6470  144.6040  345.8630 C.2   223  MET223      0.2261
    150  O          1.5770  144.1790  345.4310 O.2   223  MET223     -0.2867
    151  CB         3.5270  144.1450  348.1530 C.3   223  MET223      0.0387
    152  CG         3.8470  143.0490  349.1490 C.3   223  MET223      0.0595
    153  SD         2.8740  141.5010  349.0450 S.3   223  MET223     -0.1393
    154  CE         1.2330  142.0820  349.2950 C.3   223  MET223      0.0692
@<TRIPOS>BOND
     1   150   149    2
     2   149   148    1
     3   147   148    1
     4    42    44   ar
     5    42    40   ar
     6   148   151    1
     7    39    40    1
     8    39    36    1
     9    44    45   ar
    10    37    38    2
    11    37    36    1
    12    40    41   ar
    13    36    35    1
    14    45    46    1
    15    45    43   ar
    16   151   152    1
    17    50    49    2
    18    41    43   ar
    19   142   141    2
    20    62    60    1
    21   139   140    1
    22   141   140    1
    23    35    29   am
    24   153   152    1
    25   153   154    1
    26   140   143    1
    27    49    48    1
    28    25    23   ar
    29    25    26   ar
    30    47    48    1
    31    19    18    2
    32    23    21   ar
    33    60    59    1
    34    29    30    2
    35    29    28    1
    36    48    51    1
    37    51    52    1
    38    26    24   ar
    39    18    17    1
    40    61    59    1
    41    96    97    1
    42    96    95    1
    43   143   144    1
    44    27    28    1
    45    59    56    1
    46    97    91    1
    47   144   145    1
    48    28    31    1
    49    21    20    1
    50    21    22   ar
    51    54    52    1
    52    52    53    1
    53    24    22   ar
    54    95    92    1
    55    17    20    1
    56    17    16    1
    57    31    32    1
    58    56    55    1
    59    56    57    1
    60    91    92    1
    61    82    81    1
    62    92    93    1
    63    81    80    1
    64   145   146    1
    65    80    79    1
    66    57    58    2
    67   104   103   ar
    68   104   106   ar
    69    98    93   am
    70    98    99    1
    71    32    34    1
    72    32    33    1
    73   102   103    1
    74   102    99    1
    75    93    94    2
    76   103   105   ar
    77   106   107   ar
    78    99   100    1
    79    79    76    1
    80   105   107   ar
    81   100   101    2
    82    76    75    1
    83    76    77    1
    84    12    11    2
    85    75    65   am
    86    11    10    1
    87    90    88    1
    88    70    72   ar
    89    70    68   ar
    90    67    68    1
    91    67    64    1
    92    15    13    1
    93   130   128    1
    94    77    78    2
    95    63    64    1
    96    65    64    1
    97    65    66    2
    98    72    73   ar
    99     7     6    2
   100   114   112    1
   101   112   113    1
   102   112   109    1
   103    68    69   ar
   104   111   110    2
   105    13    10    1
   106    13    14    1
   107    10     9    1
   108   108   109    1
   109    88    87    1
   110    89    87    1
   111     8     6   am
   112   109   110    1
   113     6     5    1
   114   128   127    1
   115    87    84    1
   116   110   115   am
   117   127   129    1
   118   127   124    1
   119    73    74    1
   120    73    71   ar
   121     9     3   am
   122    69    71   ar
   123     4     3    2
   124     3     2    1
   125   126   125    2
   126     5     2    1
   127   123   124    1
   128   123   117   am
   129   115   116    1
   130    84    83    1
   131    84    85    1
   132   124   125    1
   133   116   117    1
   134   116   119    1
   135    85    86    2
   136     2     1    1
   137   117   118    2
   138   138   136    1
   139   120   119    1
   140   120   121    1
   141   136   135    1
   142   134   133    2
   143   133   132    1
   144   122   121    1
   145   131   132    1
   146   135   132    1
   147   135   137    1
