@<TRIPOS>MOLECULE
tmp/5mmrB00.pdb
 111 103 0 0 0
SMALL
GASTEIGER

@<TRIPOS>ATOM
      1  N         15.1170  153.6730  375.5140 N.3    34  GLN34      -0.1231
      2  CA        15.6940  154.1740  376.7650 C.3    34  GLN34       0.1698
      3  C         16.6130  155.3700  376.4890 C.2    34  GLN34       0.2592
      4  O         16.7110  156.2670  377.3280 O.2    34  GLN34      -0.2718
      5  CB        16.4170  153.0680  377.5700 C.3    34  GLN34       0.0381
      6  CG        17.7370  152.5380  376.9500 C.3    34  GLN34       0.0905
      7  CD        17.5580  151.5230  375.8280 C.2    34  GLN34       0.2608
      8  OE1       16.4500  151.2710  375.3260 O.2    34  GLN34      -0.2717
      9  NE2       18.6570  150.9010  375.4120 N.am   34  GLN34      -0.0878
     10  N         17.2160  155.4210  375.2640 N.am   35  ASP35      -0.1974
     11  CA        18.0790  156.5100  374.8030 C.3    35  ASP35       0.1709
     12  C         17.3380  157.8360  374.6170 C.2    35  ASP35       0.2293
     13  O         17.9840  158.8740  374.5470 O.2    35  ASP35      -0.2864
     14  CB        18.8430  156.1040  373.5370 C.3    35  ASP35       0.1436
     15  CG        19.8070  154.9460  373.7440 C.2    35  ASP35       0.3671
     16  OD1       20.2860  154.7630  374.8930 O.co2  35  ASP35      -0.2456
     17  OD2       20.1290  154.2590  372.7480 O.co2  35  ASP35      -0.2456
     18  N         15.5890  159.1210  376.9290 N.3    37  TYR37      -0.1227
     19  CA        15.5050  159.6840  378.2620 C.3    37  TYR37       0.1736
     20  C         16.8410  159.9140  378.9460 C.2    37  TYR37       0.2595
     21  O         17.7100  159.0400  378.9740 O.2    37  TYR37      -0.2718
     22  CB        14.5740  158.7920  379.1380 C.3    37  TYR37       0.0548
     23  CG        13.2180  158.5980  378.5030 C.ar   37  TYR37      -0.0200
     24  CD1       12.2620  159.6060  378.5400 C.ar   37  TYR37      -0.0009
     25  CD2       12.9390  157.4650  377.7450 C.ar   37  TYR37      -0.0009
     26  CE1       11.0460  159.4680  377.8900 C.ar   37  TYR37       0.0417
     27  CE2       11.7290  157.3270  377.0750 C.ar   37  TYR37       0.0417
     28  CZ        10.7760  158.3220  377.1780 C.ar   37  TYR37       0.1957
     29  OH         9.6000  158.2340  376.4950 O.3    37  TYR37      -0.2866
     30  N         16.9750  161.0920  379.5330 N.am   38  GLN38      -0.1965
     31  CA        18.1440  161.4450  380.3150 C.3    38  GLN38       0.1733
     32  C         17.7070  161.5580  381.7560 C.2    38  GLN38       0.2616
     33  O         16.8600  162.4040  382.0560 O.2    38  GLN38      -0.2715
     34  CB        18.7360  162.7800  379.8450 C.3    38  GLN38       0.0408
     35  CG        19.8130  162.6280  378.7980 C.3    38  GLN38       0.0908
     36  CD        20.7620  163.7920  378.8260 C.2    38  GLN38       0.2608
     37  OE1       21.5390  163.9640  379.7700 O.2    38  GLN38      -0.2717
     38  NE2       20.7180  164.6200  377.7910 N.am   38  GLN38      -0.0878
     39  N         18.2610  160.7080  382.6450 N.am   39  LEU39      -0.1977
     40  CA        17.9200  160.7570  384.0670 C.3    39  LEU39       0.1596
     41  C         18.6060  161.9570  384.7050 C.2    39  LEU39       0.2287
     42  O         19.7770  162.2200  384.4260 O.2    39  LEU39      -0.2864
     43  CB        18.2640  159.4480  384.7900 C.3    39  LEU39       0.0297
     44  CG        17.6610  158.1730  384.1830 C.3    39  LEU39       0.0022
     45  CD1       18.1500  156.9400  384.9270 C.3    39  LEU39       0.0001
     46  CD2       16.1320  158.2120  384.1730 C.3    39  LEU39       0.0001
     47  N         14.5290  163.8250  375.7950 N.3    57  ILE57      -0.1245
     48  CA        15.3700  164.6630  374.9350 C.3    57  ILE57       0.1561
     49  C         14.7760  164.8760  373.5200 C.2    57  ILE57       0.2260
     50  O         15.2410  165.7690  372.8060 O.2    57  ILE57      -0.2867
     51  CB        16.8490  164.1530  374.8800 C.3    57  ILE57       0.0252
     52  CG1       16.9610  162.7110  374.2950 C.3    57  ILE57       0.0019
     53  CG2       17.5150  164.2830  376.2580 C.3    57  ILE57       0.0019
     54  CD1       18.2010  162.4500  373.4840 C.3    57  ILE57       0.0001
     55  N         10.5380  158.5980  385.7030 N.3    65  VAL65      -0.1245
     56  CA        10.9100  157.2320  385.3360 C.3    65  VAL65       0.1561
     57  C         10.9070  156.3430  386.5750 C.2    65  VAL65       0.2260
     58  O         11.7000  156.5750  387.4950 O.2    65  VAL65      -0.2867
     59  CB        12.2470  157.1310  384.5460 C.3    65  VAL65       0.0252
     60  CG1       12.5520  155.6750  384.1660 C.3    65  VAL65       0.0019
     61  CG2       12.2040  157.9970  383.2910 C.3    65  VAL65       0.0019
     62  N         11.8330  152.8390  387.7050 N.3    67  ILE67      -0.1245
     63  CA        12.6550  151.6560  387.4120 C.3    67  ILE67       0.1561
     64  C         12.1940  150.5520  388.3710 C.2    67  ILE67       0.2260
     65  O         12.2150  150.7480  389.5820 O.2    67  ILE67      -0.2867
     66  CB        14.1700  151.9950  387.5680 C.3    67  ILE67       0.0252
     67  CG1       14.6290  153.0300  386.5030 C.3    67  ILE67       0.0019
     68  CG2       15.0240  150.7390  387.5270 C.3    67  ILE67       0.0019
     69  CD1       16.0510  153.6050  386.6920 C.3    67  ILE67       0.0001
     70  N         10.1620  151.3470  378.9990 N.3    99  VAL99      -0.1231
     71  CA        11.5020  151.1710  378.4390 C.3    99  VAL99       0.1692
     72  C         12.2290  150.0780  379.1700 C.2    99  VAL99       0.2592
     73  O         11.8430  149.7110  380.2790 O.2    99  VAL99      -0.2718
     74  CB        12.3400  152.4860  378.3360 C.3    99  VAL99       0.0266
     75  CG1       11.7590  153.4440  377.3140 C.3    99  VAL99       0.0020
     76  CG2       12.5260  153.1570  379.6930 C.3    99  VAL99       0.0020
     77  N         13.3020  149.5860  378.5600 N.am  100  LYS100     -0.1966
     78  CA        14.1280  148.5510  379.1330 C.3   100  LYS100      0.1728
     79  C         15.5800  148.9650  379.0400 C.2   100  LYS100      0.2616
     80  O         15.9860  149.6050  378.0620 O.2   100  LYS100     -0.2715
     81  CB        13.9130  147.2390  378.3600 C.3   100  LYS100      0.0311
     82  CG        14.4130  145.9970  379.0990 C.3   100  LYS100      0.0038
     83  CD        14.5160  144.7940  378.1780 C.3   100  LYS100      0.0206
     84  CE        15.0570  143.5780  378.9010 C.3   100  LYS100      0.1093
     85  NZ        15.0300  142.3690  378.0360 N.3   100  LYS100     -0.1314
     86  N         16.3520  148.5900  380.0670 N.am  101  ASP101     -0.1971
     87  CA        17.7950  148.7310  380.0980 C.3   101  ASP101      0.1709
     88  C         18.3270  147.3270  379.7130 C.2   101  ASP101      0.2293
     89  O         18.2260  146.3850  380.5060 O.2   101  ASP101     -0.2864
     90  CB        18.3320  149.1430  381.4810 C.3   101  ASP101      0.1436
     91  CG        19.8470  149.3540  381.5190 C.2   101  ASP101      0.3671
     92  OD1       20.4740  149.3980  380.4380 O.co2 101  ASP101     -0.2456
     93  OD2       20.3950  149.5120  382.6230 O.co2 101  ASP101     -0.2456
     94  N         21.4240  145.9120  382.3060 N.3   104  SER104     -0.1217
     95  CA        20.9780  145.4740  383.6420 C.3   104  SER104      0.1889
     96  C         19.7550  144.5600  383.5580 C.2   104  SER104      0.2288
     97  O         19.4160  143.9330  384.5620 O.2   104  SER104     -0.2866
     98  CB        20.6610  146.6780  384.5260 C.3   104  SER104      0.2089
     99  OG        19.5450  147.3840  384.0110 O.3   104  SER104     -0.2183
    100  N         16.4940  145.4860  383.0280 N.3   106  THR106     -0.1218
    101  CA        15.5580  146.1200  383.9600 C.3   106  THR106      0.1862
    102  C         14.4650  146.8950  383.2260 C.2   106  THR106      0.2287
    103  O         14.7910  147.7620  382.4120 O.2   106  THR106     -0.2866
    104  CB        16.3420  146.9860  384.9770 C.3   106  THR106      0.1770
    105  OG1       17.3050  146.1740  385.6490 O.3   106  THR106     -0.2211
    106  CG2       15.4590  147.6070  386.0190 C.3   106  THR106      0.0375
    107  N         11.2980  149.7230  383.0080 N.3   108  ALA108     -0.1245
    108  CA        10.9770  150.9880  383.6540 C.3   108  ALA108      0.1562
    109  C          9.7470  151.6040  383.0150 C.2   108  ALA108      0.2260
    110  O          9.5380  151.4900  381.8170 O.2   108  ALA108     -0.2867
    111  CB        12.1580  151.9370  383.5890 C.3   108  ALA108      0.0290
@<TRIPOS>BOND
     1    17    15   ar
     2    50    49    2
     3    54    52    1
     4    49    48    1
     5    14    15    1
     6    14    11    1
     7    15    16   ar
     8    52    51    1
     9    13    12    2
    10    12    11    1
    11    11    10    1
    12    51    48    1
    13    51    53    1
    14    48    47    1
    15    10     3   am
    16     8     7    2
    17     9     7   am
    18     1     2    1
    19     7     6    1
    20     3     2    1
    21     3     4    2
    22    29    28    1
    23     2     5    1
    24    18    19    1
    25     6     5    1
    26    27    28   ar
    27    27    25   ar
    28    28    26   ar
    29    75    74    1
    30    25    23   ar
    31    38    36   am
    32    26    24   ar
    33    85    84    1
    34    80    79    2
    35    83    84    1
    36    83    82    1
    37    19    20    1
    38    19    22    1
    39    74    71    1
    40    74    76    1
    41    81    82    1
    42    81    78    1
    43    71    70    1
    44    71    72    1
    45    23    24   ar
    46    23    22    1
    47    77    78    1
    48    77    72   am
    49    35    36    1
    50    35    34    1
    51    36    37    2
    52    20    21    2
    53    20    30   am
    54    79    78    1
    55    79    86   am
    56    72    73    2
    57    30    31    1
    58    88    87    1
    59    88    89    2
    60    34    31    1
    61    86    87    1
    62    87    90    1
    63    31    32    1
    64    92    91   ar
    65    90    91    1
    66    91    93   ar
    67    32    33    2
    68    32    39   am
    69   110   109    2
    70    94    95    1
    71   103   102    2
    72    39    40    1
    73   107   108    1
    74   109   108    1
    75   100   101    1
    76   102   101    1
    77    61    59    1
    78    96    95    1
    79    96    97    2
    80   111   108    1
    81    95    98    1
    82   101   104    1
    83    99    98    1
    84    40    41    1
    85    40    43    1
    86    60    59    1
    87    46    44    1
    88    44    43    1
    89    44    45    1
    90    42    41    2
    91    59    56    1
    92   104   105    1
    93   104   106    1
    94    56    55    1
    95    56    57    1
    96    67    69    1
    97    67    66    1
    98    57    58    2
    99    63    66    1
   100    63    62    1
   101    63    64    1
   102    68    66    1
   103    64    65    2
