@<TRIPOS>MOLECULE
tmp/5mmyA00.pdb
 117 110 0 0 0
SMALL
GASTEIGER

@<TRIPOS>ATOM
      1  N        -18.8790   17.1590   -5.9030 N.3    48  ALA48      -0.1231
      2  CA       -19.7260   17.3170   -4.7290 C.3    48  ALA48       0.1694
      3  C        -19.1090   16.5570   -3.5520 C.2    48  ALA48       0.2592
      4  O        -17.8830   16.5830   -3.3780 O.2    48  ALA48      -0.2718
      5  CB       -21.1560   16.8620   -5.0400 C.3    48  ALA48       0.0304
      6  N        -19.9190   15.8750   -2.7450 N.am   49  SER49      -0.1952
      7  CA       -19.3880   15.3220   -1.5080 C.3    49  SER49       0.1924
      8  C        -18.5230   14.0810   -1.7180 C.2    49  SER49       0.2314
      9  O        -17.9390   13.5970   -0.7420 O.2    49  SER49      -0.2863
     10  CB       -20.5280   15.0220   -0.5340 C.3    49  SER49       0.2116
     11  OG       -21.1840   16.2240   -0.1440 O.3    49  SER49      -0.2180
     12  N        -28.4920   20.8690    7.3440 N.3    80  MET80      -0.1245
     13  CA       -29.2170   19.6260    7.5760 C.3    80  MET80       0.1570
     14  C        -29.1780   19.3010    9.0620 C.2    80  MET80       0.2261
     15  O        -28.1360   19.4560    9.7070 O.2    80  MET80      -0.2867
     16  CB       -28.6180   18.4620    6.7760 C.3    80  MET80       0.0387
     17  CG       -28.6070   18.6730    5.2780 C.3    80  MET80       0.0595
     18  SD       -28.0480   17.1960    4.3850 S.3    80  MET80      -0.1393
     19  CE       -28.3390   17.6780    2.6920 C.3    80  MET80       0.0692
     20  N        -29.0580   16.5230   10.4820 N.3    82  GLN82      -0.1231
     21  CA       -28.1140   15.4470   10.7720 C.3    82  GLN82       0.1698
     22  C        -26.6920   15.9520   10.9890 C.2    82  GLN82       0.2592
     23  O        -25.8560   15.1910   11.4920 O.2    82  GLN82      -0.2718
     24  CB       -28.1480   14.4100    9.6470 C.3    82  GLN82       0.0381
     25  CG       -27.5350   14.8610    8.3260 C.3    82  GLN82       0.0905
     26  CD       -28.0370   14.0460    7.1410 C.2    82  GLN82       0.2608
     27  OE1      -29.2120   13.6810    7.0830 O.2    82  GLN82      -0.2717
     28  NE2      -27.1460   13.7530    6.1940 N.am   82  GLN82      -0.0878
     29  N        -26.3950   17.2030   10.6330 N.am   83  TRP83      -0.1976
     30  CA       -25.0820   17.7990   10.8730 C.3    83  TRP83       0.1640
     31  C        -24.9900   18.5540   12.1960 C.2    83  TRP83       0.2290
     32  O        -23.9030   19.0400   12.5430 O.2    83  TRP83      -0.2864
     33  CB       -24.7460   18.7800    9.7500 C.3    83  TRP83       0.0576
     34  CG       -24.7820   18.2140    8.3580 C.ar   83  TRP83       0.0006
     35  CD1      -24.7740   16.9030    7.9950 C.ar   83  TRP83       0.0946
     36  CD2      -24.8330   18.9660    7.1430 C.ar   83  TRP83       0.0152
     37  NE1      -24.8040   16.7890    6.6190 N.ar   83  TRP83      -0.2442
     38  CE2      -24.8520   18.0450    6.0750 C.ar   83  TRP83       0.0810
     39  CE3      -24.8690   20.3290    6.8560 C.ar   83  TRP83       0.0012
     40  CZ2      -24.9030   18.4520    4.7370 C.ar   83  TRP83       0.0191
     41  CZ3      -24.9130   20.7310    5.5450 C.ar   83  TRP83       0.0001
     42  CH2      -24.9330   19.7970    4.4940 C.ar   83  TRP83       0.0015
     43  N        -22.3740   11.1200    7.2130 N.3    95  VAL95      -0.1231
     44  CA       -23.5460   11.9880    7.0830 C.3    95  VAL95       0.1692
     45  C        -23.3030   13.1420    6.1180 C.2    95  VAL95       0.2592
     46  O        -24.1880   13.9940    5.9520 O.2    95  VAL95      -0.2718
     47  CB       -24.0070   12.5400    8.4460 C.3    95  VAL95       0.0266
     48  CG1      -24.2760   11.4000    9.4080 C.3    95  VAL95       0.0020
     49  CG2      -22.9950   13.5390    9.0180 C.3    95  VAL95       0.0020
     50  N        -22.1280   13.1880    5.4890 N.am   96  SER96      -0.1952
     51  CA       -21.7500   14.2010    4.5060 C.3    96  SER96       0.1924
     52  C        -21.9140   15.6180    5.0640 C.2    96  SER96       0.2314
     53  O        -22.5650   16.4850    4.4720 O.2    96  SER96      -0.2863
     54  CB       -22.5370   14.0090    3.2110 C.3    96  SER96       0.2116
     55  OG       -21.7260   14.3500    2.1020 O.3    96  SER96      -0.2180
     56  N        -20.9980   18.7900    5.2220 N.3    98  VAL98      -0.1245
     57  CA       -20.3240   19.8330    4.4480 C.3    98  VAL98       0.1561
     58  C        -19.6080   20.8490    5.3310 C.2    98  VAL98       0.2260
     59  O        -18.4300   21.1360    5.0730 O.2    98  VAL98      -0.2867
     60  CB       -21.3250   20.5030    3.4960 C.3    98  VAL98       0.0252
     61  CG1      -20.6980   21.7250    2.8020 C.3    98  VAL98       0.0019
     62  CG2      -21.8580   19.4970    2.4840 C.3    98  VAL98       0.0019
     63  N        -18.1970   22.0810   -4.6460 N.3   136  LEU136     -0.1245
     64  CA       -19.6500   22.1890   -4.5550 C.3   136  LEU136      0.1561
     65  C        -20.2520   23.0600   -5.6420 C.2   136  LEU136      0.2260
     66  O        -21.3520   22.7700   -6.1340 O.2   136  LEU136     -0.2867
     67  CB       -20.0440   22.7870   -3.2000 C.3   136  LEU136      0.0270
     68  CG       -19.5790   22.0130   -1.9750 C.3   136  LEU136      0.0019
     69  CD1      -19.7060   22.8750   -0.7280 C.3   136  LEU136      0.0001
     70  CD2      -20.4150   20.7760   -1.8460 C.3   136  LEU136      0.0001
     71  N        -21.4210    8.7850   -1.3780 N.3   187  THR187     -0.1218
     72  CA       -22.3650    9.4830   -2.2390 C.3   187  THR187      0.1862
     73  C        -21.9330   10.9240   -2.4980 C.2   187  THR187      0.2287
     74  O        -21.0790   11.4860   -1.8030 O.2   187  THR187     -0.2866
     75  CB       -23.7550    9.4870   -1.6000 C.3   187  THR187      0.1770
     76  OG1      -23.6480   10.0250   -0.2810 O.3   187  THR187     -0.2211
     77  CG2      -24.3130    8.0800   -1.5120 C.3   187  THR187      0.0375
     78  N        -23.9320   14.7570   -4.4480 N.3   189  PHE189     -0.1227
     79  CA       -25.1000   15.3840   -5.0840 C.3   189  PHE189      0.1736
     80  C        -24.8220   16.8830   -5.1610 C.2   189  PHE189      0.2596
     81  O        -24.7480   17.5500   -4.1250 O.2   189  PHE189     -0.2718
     82  CB       -26.3520   15.0750   -4.2700 C.3   189  PHE189      0.0547
     83  CG       -27.6200   15.7510   -4.7380 C.ar  189  PHE189     -0.0202
     84  CD1      -27.9580   15.8210   -6.0840 C.ar  189  PHE189     -0.0042
     85  CD2      -28.5180   16.2320   -3.8030 C.ar  189  PHE189     -0.0042
     86  CE1      -29.1450   16.4000   -6.4800 C.ar  189  PHE189     -0.0003
     87  CE2      -29.7190   16.8210   -4.1940 C.ar  189  PHE189     -0.0003
     88  CZ       -30.0290   16.9030   -5.5240 C.ar  189  PHE189     -0.0000
     89  N        -24.6560   17.4170   -6.3720 N.am  190  SER190     -0.1938
     90  CA       -24.3580   18.8430   -6.5020 C.3   190  SER190      0.2055
     91  C        -25.5780   19.7260   -6.2620 C.2   190  SER190      0.2643
     92  O        -25.4150   20.8920   -5.8730 O.2   190  SER190     -0.2714
     93  CB       -23.7650   19.1350   -7.8830 C.3   190  SER190      0.2130
     94  OG       -24.7190   18.9400   -8.9240 O.3   190  SER190     -0.2179
     95  N        -26.7870   19.1910   -6.4430 N.am  191  GLY191     -0.1954
     96  CA       -28.0260   19.9420   -6.4150 C.3   191  GLY191      0.1869
     97  C        -28.8330   19.6590   -7.6710 C.2   191  GLY191      0.2309
     98  O        -28.4780   18.8040   -8.4900 O.2   191  GLY191     -0.2863
     99  N        -33.0520   11.0010   -6.3870 N.3   228  LEU228     -0.1245
    100  CA       -31.7220   10.8020   -5.8220 C.3   228  LEU228      0.1561
    101  C        -31.4250    9.3550   -5.4530 C.2   228  LEU228      0.2260
    102  O        -30.2800    8.9160   -5.6700 O.2   228  LEU228     -0.2867
    103  CB       -31.5610   11.7160   -4.6060 C.3   228  LEU228      0.0270
    104  CG       -30.1600   11.9270   -4.0490 C.3   228  LEU228      0.0019
    105  CD1      -29.2010   12.4700   -5.1040 C.3   228  LEU228      0.0001
    106  CD2      -30.2350   12.8700   -2.8740 C.3   228  LEU228      0.0001
    107  N        -29.1780    6.8540   -7.4970 N.3   231  ARG231     -0.1245
    108  CA       -27.7200    6.8270   -7.5540 C.3   231  ARG231      0.1563
    109  C        -27.1490    5.5780   -6.8910 C.2   231  ARG231      0.2260
    110  O        -26.0360    5.1720   -7.2330 O.2   231  ARG231     -0.2867
    111  CB       -27.1270    8.0880   -6.9200 C.3   231  ARG231      0.0307
    112  CG       -27.1970    8.1120   -5.4050 C.3   231  ARG231      0.0489
    113  CD       -26.8290    9.4550   -4.8470 C.3   231  ARG231      0.2205
    114  NE       -27.2610    9.5810   -3.4560 N.pl3 231  ARG231     -0.0865
    115  CZ       -26.9340   10.5880   -2.6630 C.cat 231  ARG231      0.5346
    116  NH1      -27.3810   10.6020   -1.4180 N.pl3 231  ARG231      0.1354
    117  NH2      -26.1570   11.5740   -3.1140 N.pl3 231  ARG231      0.1354
@<TRIPOS>BOND
     1    94    93    1
     2    98    97    2
     3    93    90    1
     4    97    96    1
     5   108   107    1
     6   108   111    1
     7   108   109    1
     8   110   109    2
     9   111   112    1
    10    90    89    1
    11    90    91    1
    12    86    84   ar
    13    86    88   ar
    14    95    96    1
    15    95    91   am
    16    99   100    1
    17    89    80   am
    18    91    92    2
    19    66    65    2
    20    84    83   ar
    21     1     2    1
    22   100   101    1
    23   100   103    1
    24   102   101    2
    25    65    64    1
    26    88    87   ar
    27   112   113    1
    28    80    79    1
    29    80    81    2
    30   105   104    1
    31    79    78    1
    32    79    82    1
    33     5     2    1
    34   113   114    1
    35    83    82    1
    36    83    85   ar
    37     2     3    1
    38    63    64    1
    39   103   104    1
    40    64    67    1
    41    87    85   ar
    42   104   106    1
    43     3     4    2
    44     3     6   am
    45   114   115    2
    46    67    68    1
    47   117   115    1
    48     6     7    1
    49   115   116    1
    50    73    72    1
    51    73    74    2
    52    72    75    1
    53    72    71    1
    54    68    70    1
    55    68    69    1
    56     8     7    1
    57     8     9    2
    58    75    77    1
    59    75    76    1
    60     7    10    1
    61    10    11    1
    62    55    54    1
    63    62    60    1
    64    19    18    1
    65    61    60    1
    66    54    51    1
    67    60    57    1
    68    18    17    1
    69    57    56    1
    70    57    58    1
    71    53    52    2
    72    42    40   ar
    73    42    41   ar
    74    51    52    1
    75    51    50    1
    76    40    38   ar
    77    59    58    2
    78    17    16    1
    79    50    45   am
    80    41    39   ar
    81    46    45    2
    82    38    37   ar
    83    38    36   ar
    84    45    44    1
    85    28    26   am
    86    37    35   ar
    87    16    13    1
    88    39    36   ar
    89    27    26    2
    90    44    43    1
    91    44    47    1
    92    26    25    1
    93    36    34   ar
    94    12    13    1
    95    13    14    1
    96    35    34   ar
    97    25    24    1
    98    34    33    1
    99    47    49    1
   100    47    48    1
   101    14    15    2
   102    24    21    1
   103    33    30    1
   104    20    21    1
   105    29    30    1
   106    29    22   am
   107    21    22    1
   108    30    31    1
   109    22    23    2
   110    31    32    2
