@<TRIPOS>MOLECULE
tmp/5mn0A00.pdb
 201 194 0 0 0
SMALL
GASTEIGER

@<TRIPOS>ATOM
      1  N         -6.8560   10.7190   36.8700 N.3    68  LYS68      -0.1231
      2  CA        -5.5340   10.6280   36.2620 C.3    68  LYS68       0.1693
      3  C         -5.5760   11.2750   34.8890 C.2    68  LYS68       0.2592
      4  O         -6.5820   11.1860   34.1930 O.2    68  LYS68      -0.2718
      5  CB        -5.0680    9.1630   36.1280 C.3    68  LYS68       0.0285
      6  CG        -4.3660    8.5860   37.3610 C.3    68  LYS68       0.0035
      7  CD        -4.7720    7.1410   37.6290 C.3    68  LYS68       0.0206
      8  CE        -3.8570    6.1500   36.9410 C.3    68  LYS68       0.1093
      9  NZ        -2.8050    5.6450   37.8680 N.3    68  LYS68      -0.1314
     10  N         -4.5020   11.9450   34.5170 N.am   69  HIS69      -0.1962
     11  CA        -4.4180   12.4500   33.1620 C.3    69  HIS69       0.1787
     12  C         -3.8850   11.3700   32.2340 C.2    69  HIS69       0.2620
     13  O         -3.4240   10.3060   32.6640 O.2    69  HIS69      -0.2715
     14  CB        -3.5110   13.6800   33.0800 C.3    69  HIS69       0.0785
     15  CG        -3.9410   14.8150   33.9470 C.ar   69  HIS69       0.0821
     16  ND1       -4.9620   15.6700   33.5960 N.ar   69  HIS69      -0.2267
     17  CD2       -3.4790   15.2490   35.1430 C.ar   69  HIS69       0.1154
     18  CE1       -5.1110   16.5840   34.5370 C.ar   69  HIS69       0.1986
     19  NE2       -4.2260   16.3490   35.4900 N.ar   69  HIS69      -0.2212
     20  N         -3.9480   11.6720   30.9380 N.am   70  PHE70      -0.1960
     21  CA        -3.2300   11.0310   29.8530 C.3    70  PHE70       0.1771
     22  C         -3.9180    9.7840   29.3260 C.2    70  PHE70       0.2619
     23  O         -3.3440    9.1250   28.4620 O.2    70  PHE70      -0.2715
     24  CB        -1.7900   10.6790   30.2500 C.3    70  PHE70       0.0574
     25  CG        -1.0000   11.8610   30.7140 C.ar   70  PHE70      -0.0200
     26  CD1       -0.6860   12.8880   29.8390 C.ar   70  PHE70      -0.0042
     27  CD2       -0.5890   11.9590   32.0310 C.ar   70  PHE70      -0.0042
     28  CE1        0.0290   13.9960   30.2670 C.ar   70  PHE70      -0.0003
     29  CE2        0.1320   13.0580   32.4670 C.ar   70  PHE70      -0.0003
     30  CZ         0.4380   14.0780   31.5850 C.ar   70  PHE70      -0.0000
     31  N         -5.1180    9.4520   29.7880 N.am   71  ILE71      -0.1977
     32  CA        -5.8160    8.2450   29.3640 C.3    71  ILE71       0.1596
     33  C         -6.8820    8.6570   28.3560 C.2    71  ILE71       0.2287
     34  O         -7.8230    9.3830   28.6930 O.2    71  ILE71      -0.2864
     35  CB        -6.4240    7.4930   30.5580 C.3    71  ILE71       0.0276
     36  CG1       -5.3450    7.1350   31.5770 C.3    71  ILE71       0.0022
     37  CG2       -7.1070    6.2180   30.1030 C.3    71  ILE71       0.0022
     38  CD1       -5.8960    6.5330   32.9000 C.3    71  ILE71       0.0001
     39  N         -5.0870    0.4280   28.8480 N.3    90  VAL90      -0.1245
     40  CA        -5.1420    1.8800   28.7710 C.3    90  VAL90       0.1561
     41  C         -4.6630    2.3220   27.3930 C.2    90  VAL90       0.2260
     42  O         -3.6230    1.8560   26.9120 O.2    90  VAL90      -0.2867
     43  CB        -4.2840    2.5170   29.8750 C.3    90  VAL90       0.0252
     44  CG1       -4.2040    4.0090   29.6680 C.3    90  VAL90       0.0019
     45  CG2       -4.8690    2.1950   31.2160 C.3    90  VAL90       0.0019
     46  N         -3.2940    5.6300   25.6950 N.3    92  VAL92      -0.1245
     47  CA        -2.7420    6.9260   26.0680 C.3    92  VAL92       0.1561
     48  C         -3.1510    7.9740   25.0440 C.2    92  VAL92       0.2260
     49  O         -3.3750    7.6690   23.8690 O.2    92  VAL92      -0.2867
     50  CB        -1.2110    6.8310   26.2020 C.3    92  VAL92       0.0252
     51  CG1       -0.6150    8.2100   26.4060 C.3    92  VAL92       0.0019
     52  CG2       -0.8330    5.8930   27.3650 C.3    92  VAL92       0.0019
     53  N          2.6250   11.6370   23.4880 N.3    96  LEU96      -0.1231
     54  CA         3.4540   11.1790   24.5790 C.3    96  LEU96       0.1678
     55  C          4.4400   10.1410   24.0890 C.2    96  LEU96       0.2434
     56  O          4.2650    9.5620   23.0120 O.2    96  LEU96      -0.2733
     57  CB         2.5860   10.5840   25.6920 C.3    96  LEU96       0.0284
     58  CG         1.4900   11.5450   26.1550 C.3    96  LEU96       0.0019
     59  CD1        0.7820   11.0200   27.3910 C.3    96  LEU96       0.0001
     60  CD2        2.0610   12.9260   26.4030 C.3    96  LEU96       0.0001
     61  N          5.4740    9.8570   24.8650 N.am   97  PRO97      -0.2718
     62  CA         6.4020    8.7980   24.4720 C.3    97  PRO97       0.1535
     63  C          5.8270    7.4380   24.8110 C.2    97  PRO97       0.2598
     64  O          6.5200    6.6010   25.3960 O.2    97  PRO97      -0.2715
     65  CB         7.6450    9.1070   25.3110 C.3    97  PRO97       0.0310
     66  CG         7.0700    9.6800   26.5560 C.3    97  PRO97       0.0237
     67  CD         5.9200   10.5440   26.0900 C.3    97  PRO97       0.0939
     68  N          4.5690    7.2150   24.4400 N.am   98  ALA98      -0.1978
     69  CA         3.8430    6.0270   24.8480 C.3    98  ALA98       0.1597
     70  C          2.5390    5.9550   24.0690 C.2    98  ALA98       0.2287
     71  O          1.9960    6.9740   23.6410 O.2    98  ALA98      -0.2864
     72  CB         3.5620    6.0390   26.3620 C.3    98  ALA98       0.0319
     73  N          0.2320    2.6800   24.6890 N.3   100  THR100     -0.1203
     74  CA        -0.6600    1.7730   25.3970 C.3   100  THR100      0.1994
     75  C         -0.0330    1.3120   26.6960 C.2   100  THR100      0.2618
     76  O          1.1840    1.3970   26.8970 O.2   100  THR100     -0.2717
     77  CB        -0.9820    0.5270   24.5740 C.3   100  THR100      0.1784
     78  OG1        0.2370   -0.1730   24.3070 O.3   100  THR100     -0.2211
     79  CG2       -1.6290    0.9050   23.2760 C.3   100  THR100      0.0376
     80  N         -0.8910    0.7910   27.5700 N.am  101  SER101     -0.1951
     81  CA        -0.4370    0.2010   28.8180 C.3   101  SER101      0.1924
     82  C         -1.3890   -0.9090   29.2250 C.2   101  SER101      0.2314
     83  O         -2.6080   -0.7730   29.0740 O.2   101  SER101     -0.2863
     84  CB        -0.3560    1.2480   29.9310 C.3   101  SER101      0.2116
     85  OG         0.3430    0.7220   31.0390 O.3   101  SER101     -0.2180
     86  N         -2.1380   -3.0540   32.7390 N.3   103  GLU103     -0.1245
     87  CA        -1.8470   -2.9220   34.1620 C.3   103  GLU103      0.1567
     88  C         -2.6390   -3.9430   34.9770 C.2   103  GLU103      0.2260
     89  O         -3.8140   -4.2000   34.6960 O.2   103  GLU103     -0.2867
     90  CB        -2.1530   -1.4850   34.6470 C.3   103  GLU103      0.0388
     91  CG        -1.1390   -0.4440   34.1640 C.3   103  GLU103      0.1160
     92  CD        -1.7650    0.9250   33.9020 C.2   103  GLU103      0.3649
     93  OE1       -2.8640    1.2010   34.4210 O.co2 103  GLU103     -0.2457
     94  OE2       -1.1540    1.7260   33.1660 O.co2 103  GLU103     -0.2457
     95  N         -0.6810   -1.0720   41.6960 N.3   117  PHE117     -0.1241
     96  CA        -0.7210   -1.8060   40.4480 C.3   117  PHE117      0.1605
     97  C          0.6890   -2.0210   39.9230 C.2   117  PHE117      0.2264
     98  O          1.6540   -1.4010   40.3800 O.2   117  PHE117     -0.2867
     99  CB        -1.5850   -1.0890   39.4120 C.3   117  PHE117      0.0534
    100  CG        -1.0350    0.2250   38.9630 C.ar  117  PHE117     -0.0203
    101  CD1       -1.3300    1.3870   39.6580 C.ar  117  PHE117     -0.0042
    102  CD2       -0.2090    0.3000   37.8590 C.ar  117  PHE117     -0.0042
    103  CE1       -0.8250    2.6120   39.2430 C.ar  117  PHE117     -0.0003
    104  CE2        0.3010    1.5230   37.4430 C.ar  117  PHE117     -0.0003
    105  CZ        -0.0020    2.6810   38.1430 C.ar  117  PHE117     -0.0000
    106  N          2.5270   -2.4670   35.9800 N.3   119  ILE119     -0.1245
    107  CA         2.3830   -2.4130   34.5250 C.3   119  ILE119      0.1561
    108  C          3.0130   -3.6600   33.9320 C.2   119  ILE119      0.2260
    109  O          4.2330   -3.8430   34.0040 O.2   119  ILE119     -0.2867
    110  CB         3.0290   -1.1580   33.9330 C.3   119  ILE119      0.0252
    111  CG1        2.3010    0.0900   34.4190 C.3   119  ILE119      0.0019
    112  CG2        3.0450   -1.2570   32.3930 C.3   119  ILE119      0.0019
    113  CD1        2.9430    1.3650   33.9530 C.3   119  ILE119      0.0001
    114  N          5.6200    1.6130   25.7430 N.3   124  HIS124     -0.1226
    115  CA         6.0400    2.6900   26.6320 C.3   124  HIS124      0.1752
    116  C          7.4010    2.3120   27.1770 C.2   124  HIS124      0.2596
    117  O          7.8770    1.1900   26.9540 O.2   124  HIS124     -0.2718
    118  CB         5.0400    2.9020   27.7670 C.3   124  HIS124      0.0759
    119  CG         4.8260    1.6770   28.6000 C.ar  124  HIS124      0.0818
    120  ND1        5.7520    1.2300   29.5190 N.ar  124  HIS124     -0.2268
    121  CD2        3.8100    0.7810   28.6250 C.ar  124  HIS124      0.1154
    122  CE1        5.3100    0.1170   30.0790 C.ar  124  HIS124      0.1986
    123  NE2        4.1340   -0.1760   29.5530 N.ar  124  HIS124     -0.2212
    124  N          8.0220    3.2170   27.9110 N.am  125  ARG125     -0.1966
    125  CA         9.3880    3.0170   28.3640 C.3   125  ARG125      0.1729
    126  C          9.4890    2.9490   29.8860 C.2   125  ARG125      0.2616
    127  O         10.5560    3.1890   30.4450 O.2   125  ARG125     -0.2715
    128  CB        10.2840    4.1110   27.7900 C.3   125  ARG125      0.0348
    129  CG         9.9160    4.3860   26.3220 C.3   125  ARG125      0.0492
    130  CD        11.1070    4.7310   25.4550 C.3   125  ARG125      0.2205
    131  NE        11.9470    5.7350   26.0840 N.pl3 125  ARG125     -0.0865
    132  CZ        13.1960    5.5100   26.4680 C.cat 125  ARG125      0.5346
    133  NH1       13.7450    4.3300   26.2530 N.pl3 125  ARG125      0.1354
    134  NH2       13.8930    6.4680   27.0580 N.pl3 125  ARG125      0.1354
    135  N          8.3920    2.6250   30.5700 N.am  126  LEU126     -0.1977
    136  CA         8.4590    2.4090   32.0210 C.3   126  LEU126      0.1596
    137  C          8.2600    0.9320   32.3540 C.2   126  LEU126      0.2287
    138  O          7.2610    0.5510   32.9750 O.2   126  LEU126     -0.2864
    139  CB         7.4200    3.2610   32.7610 C.3   126  LEU126      0.0297
    140  CG         7.5570    4.7810   32.6430 C.3   126  LEU126      0.0022
    141  CD1        6.5660    5.4870   33.5370 C.3   126  LEU126      0.0001
    142  CD2        8.9750    5.2060   32.9750 C.3   126  LEU126      0.0001
    143  N          7.0960   -1.1010   35.9150 N.3   129  TYR129     -0.1241
    144  CA         6.5870   -0.0640   36.8020 C.3   129  TYR129      0.1605
    145  C          5.6090   -0.6700   37.7960 C.2   129  TYR129      0.2264
    146  O          4.6200   -1.2930   37.3950 O.2   129  TYR129     -0.2867
    147  CB         5.9040    1.0240   35.9800 C.3   129  TYR129      0.0534
    148  CG         5.4480    2.2350   36.7620 C.ar  129  TYR129     -0.0201
    149  CD1        6.2810    3.3390   36.9140 C.ar  129  TYR129     -0.0009
    150  CD2        4.1720    2.2980   37.3010 C.ar  129  TYR129     -0.0009
    151  CE1        5.8660    4.4690   37.6120 C.ar  129  TYR129      0.0417
    152  CE2        3.7470    3.4180   38.0070 C.ar  129  TYR129      0.0417
    153  CZ         4.5990    4.4980   38.1510 C.ar  129  TYR129      0.1957
    154  OH         4.1890    5.6040   38.8480 O.3   129  TYR129     -0.2866
    155  N          2.1450    8.3190   47.2240 N.3   150  GLU150     -0.1245
    156  CA         2.2570    7.4640   46.0550 C.3   150  GLU150      0.1567
    157  C          3.7310    7.2920   45.7620 C.2   150  GLU150      0.2260
    158  O          4.4600    8.2800   45.6570 O.2   150  GLU150     -0.2867
    159  CB         1.5210    8.0470   44.8430 C.3   150  GLU150      0.0388
    160  CG         1.5490    7.0970   43.6200 C.3   150  GLU150      0.1160
    161  CD         0.4670    7.3990   42.5920 C.2   150  GLU150      0.3649
    162  OE1        0.6970    7.1370   41.3940 O.co2 150  GLU150     -0.2457
    163  OE2       -0.6130    7.8910   42.9750 O.co2 150  GLU150     -0.2457
    164  N         10.7560   12.2390   34.6930 N.3   168  PHE168     -0.1227
    165  CA         9.5940   11.9550   33.8520 C.3   168  PHE168      0.1736
    166  C          8.4520   11.3570   34.6670 C.2   168  PHE168      0.2595
    167  O          7.3200   11.8460   34.6160 O.2   168  PHE168     -0.2718
    168  CB        10.0000   11.0200   32.7070 C.3   168  PHE168      0.0547
    169  CG         8.8400   10.4680   31.9020 C.ar  168  PHE168     -0.0202
    170  CD1        8.2280   11.2190   30.8990 C.ar  168  PHE168     -0.0042
    171  CD2        8.4030    9.1730   32.1080 C.ar  168  PHE168     -0.0042
    172  CE1        7.1820   10.6810   30.1410 C.ar  168  PHE168     -0.0003
    173  CE2        7.3620    8.6400   31.3580 C.ar  168  PHE168     -0.0003
    174  CZ         6.7550    9.3930   30.3750 C.ar  168  PHE168     -0.0000
    175  N          8.7290   10.3030   35.4360 N.am  169  ALA169     -0.1980
    176  CA         7.6620    9.6510   36.1980 C.3   169  ALA169      0.1597
    177  C          7.1180   10.5600   37.2960 C.2   169  ALA169      0.2287
    178  O          5.8970   10.6730   37.4730 O.2   169  ALA169     -0.2864
    179  CB         8.1730    8.3390   36.7930 C.3   169  ALA169      0.0319
    180  N          4.6110   12.9150   35.8280 N.3   172  VAL172     -0.1231
    181  CA         3.3020   12.3150   35.5660 C.3   172  VAL172      0.1692
    182  C          2.5470   12.0720   36.8740 C.2   172  VAL172      0.2591
    183  O          1.3540   12.3720   36.9890 O.2   172  VAL172     -0.2718
    184  CB         3.4600   11.0130   34.7600 C.3   172  VAL172      0.0266
    185  CG1        2.1910   10.1890   34.8470 C.3   172  VAL172      0.0020
    186  CG2        3.7890   11.3220   33.2880 C.3   172  VAL172      0.0020
    187  N          3.2240   11.5170   37.8780 N.am  173  VAL173     -0.1980
    188  CA         2.5480   11.2420   39.1530 C.3   173  VAL173      0.1595
    189  C          2.1170   12.5420   39.8250 C.2   173  VAL173      0.2287
    190  O          0.9630   12.6860   40.2390 O.2   173  VAL173     -0.2864
    191  CB         3.4430   10.3950   40.0670 C.3   173  VAL173      0.0276
    192  CG1        2.7740   10.1780   41.4410 C.3   173  VAL173      0.0022
    193  CG2        3.7370    9.0550   39.4140 C.3   173  VAL173      0.0022
    194  N         -1.0550   13.7390   38.0910 N.3   176  ASN176     -0.1240
    195  CA        -2.2220   12.9430   38.4660 C.3   176  ASN176      0.1653
    196  C         -2.6610   13.2640   39.8910 C.2   176  ASN176      0.2266
    197  O         -3.8610   13.3730   40.1700 O.2   176  ASN176     -0.2867
    198  CB        -1.9170   11.4520   38.3040 C.3   176  ASN176      0.1155
    199  CG        -1.7380   11.0640   36.8320 C.2   176  ASN176      0.2627
    200  OD1       -2.0210   11.8510   35.9470 O.2   176  ASN176     -0.2716
    201  ND2       -1.2760    9.8550   36.5860 N.am  176  ASN176     -0.0877
@<TRIPOS>BOND
     1    56    55    2
     2    79    77    1
     3    53    54    1
     4    71    70    2
     5    49    48    2
     6    70    69    1
     7    55    54    1
     8    55    61   am
     9    78    77    1
    10    68    63   am
    11    68    69    1
    12    62    63    1
    13    62    61    1
    14    62    65    1
    15    77    74    1
    16    54    57    1
    17    73    74    1
    18    63    64    2
    19    69    72    1
    20    61    67    1
    21    48    47    1
    22    65    66    1
    23    74    75    1
    24   130   131    1
    25   130   129    1
    26    57    58    1
    27    46    47    1
    28   114   115    1
    29    47    50    1
    30   131   132    2
    31    67    66    1
    32    58    60    1
    33    58    59    1
    34    50    51    1
    35    50    52    1
    36   133   132    1
    37   129   128    1
    38   132   134    1
    39   115   116    1
    40   115   118    1
    41    75    76    2
    42    75    80   am
    43    42    41    2
    44   117   116    2
    45   116   124   am
    46    41    40    1
    47    80    81    1
    48   118   119    1
    49   128   125    1
    50   124   125    1
    51    33    34    2
    52    33    32    1
    53   125   126    1
    54    23    22    2
    55   119   121   ar
    56   119   120   ar
    57   121   123   ar
    58    40    39    1
    59    40    43    1
    60    81    82    1
    61    81    84    1
    62    83    82    2
    63    22    31   am
    64    22    21    1
    65    32    31    1
    66    32    35    1
    67   120   122   ar
    68   123   122   ar
    69    44    43    1
    70    26    28   ar
    71    26    25   ar
    72    21    24    1
    73    21    20    1
    74    43    45    1
    75   126   127    2
    76   126   135   am
    77    84    85    1
    78    37    35    1
    79   172   174   ar
    80   172   170   ar
    81    24    25    1
    82    28    30   ar
    83   174   173   ar
    84    35    36    1
    85   135   136    1
    86    25    27   ar
    87   170   169   ar
    88    20    12   am
    89   173   171   ar
    90    36    38    1
    91    30    29   ar
    92   169   171   ar
    93   169   168    1
    94   136   137    1
    95   136   139    1
    96    27    29   ar
    97    12    13    2
    98    12    11    1
    99   137   138    2
   100   112   110    1
   101   140   139    1
   102   140   142    1
   103   140   141    1
   104   168   165    1
   105    86    87    1
   106    14    11    1
   107    14    15    1
   108    11    10    1
   109    94    92   ar
   110   186   184    1
   111    16    15   ar
   112    16    18   ar
   113   165   166    1
   114   165   164    1
   115    92    91    1
   116    92    93   ar
   117   108   109    2
   118   108   107    1
   119   110   111    1
   120   110   107    1
   121    15    17   ar
   122   113   111    1
   123    87    90    1
   124    87    88    1
   125    91    90    1
   126     4     3    2
   127    10     3   am
   128   107   106    1
   129    18    19   ar
   130   167   166    2
   131   166   175   am
   132    89    88    2
   133   184   185    1
   134   184   181    1
   135     3     2    1
   136    17    19   ar
   137   175   176    1
   138   181   180    1
   139   181   182    1
   140   143   144    1
   141   200   199    2
   142   147   148    1
   143   147   144    1
   144     5     2    1
   145     5     6    1
   146   176   179    1
   147   176   177    1
   148     2     1    1
   149   201   199   am
   150   148   149   ar
   151   148   150   ar
   152   144   145    1
   153   199   198    1
   154   182   183    2
   155   182   187   am
   156   149   151   ar
   157     8     7    1
   158     8     9    1
   159   177   178    2
   160   150   152   ar
   161     6     7    1
   162   146   145    2
   163   104   102   ar
   164   104   105   ar
   165   151   153   ar
   166   102   100   ar
   167   187   188    1
   168   152   153   ar
   169   194   195    1
   170   105   103   ar
   171   153   154    1
   172   198   195    1
   173   195   196    1
   174   100    99    1
   175   100   101   ar
   176   188   189    1
   177   188   191    1
   178   103   101   ar
   179    99    96    1
   180   193   191    1
   181   189   190    2
   182   196   197    2
   183    97    98    2
   184    97    96    1
   185   191   192    1
   186    96    95    1
   187   162   161   ar
   188   161   163   ar
   189   161   160    1
   190   160   159    1
   191   159   156    1
   192   158   157    2
   193   157   156    1
   194   156   155    1
