@<TRIPOS>MOLECULE
tmp/5mn4A01.pdb
 107 97 0 0 0
SMALL
GASTEIGER

@<TRIPOS>ATOM
      1  N        -20.6870   -6.2590   17.5300 N.3    11  GLY11      -0.1225
      2  CA       -19.8750   -5.6870   18.5980 C.3    11  GLY11       0.1811
      3  C        -19.0730   -4.4890   18.1330 C.2    11  GLY11       0.2280
      4  O        -18.9750   -3.4890   18.8420 O.2    11  GLY11      -0.2866
      5  N        -21.4880   -1.6600   17.8750 N.3    14  ASN14      -0.1225
      6  CA       -21.7560   -1.2170   19.2460 C.3    14  ASN14       0.1785
      7  C        -20.6940   -0.2390   19.7100 C.2    14  ASN14       0.2597
      8  O        -21.0040    0.8160   20.2730 O.2    14  ASN14      -0.2718
      9  CB       -21.7290   -2.3910   20.2190 C.3    14  ASN14       0.1169
     10  CG       -22.9130   -3.3090   20.1310 C.2    14  ASN14       0.2627
     11  OD1      -22.8550   -4.4030   20.6990 O.2    14  ASN14      -0.2716
     12  ND2      -23.9840   -2.9030   19.4620 N.am   14  ASN14      -0.0877
     13  N        -19.4250   -0.6110   19.5240 N.am   15  ALA15      -0.1979
     14  CA       -18.3270    0.2430   19.9720 C.3    15  ALA15       0.1597
     15  C        -18.3700    1.5880   19.2600 C.2    15  ALA15       0.2287
     16  O        -18.1700    2.6400   19.8830 O.2    15  ALA15      -0.2864
     17  CB       -16.9810   -0.4400   19.7410 C.3    15  ALA15       0.0319
     18  N        -21.1610    3.6350   20.8770 N.3    18  ARG18      -0.1245
     19  CA       -20.8210    4.1250   22.2080 C.3    18  ARG18       0.1563
     20  C        -19.7570    5.2190   22.1370 C.2    18  ARG18       0.2260
     21  O        -19.8010    6.1710   22.9230 O.2    18  ARG18      -0.2867
     22  CB       -20.3670    2.9620   23.0990 C.3    18  ARG18       0.0307
     23  CG       -21.5040    1.9990   23.4510 C.3    18  ARG18       0.0489
     24  CD       -21.0490    0.9310   24.4320 C.3    18  ARG18       0.2205
     25  NE       -19.9290    0.1530   23.9210 N.pl3  18  ARG18      -0.0865
     26  CZ       -20.0190   -1.1070   23.4770 C.cat  18  ARG18       0.5346
     27  NH1      -21.1850   -1.7380   23.4880 N.pl3  18  ARG18       0.1354
     28  NH2      -18.9340   -1.7190   23.0180 N.pl3  18  ARG18       0.1354
     29  N        -12.4210   -2.3120   14.2930 N.3    91  THR91      -0.1203
     30  CA       -12.8090   -2.9120   15.5550 C.3    91  THR91       0.1994
     31  C        -13.9740   -3.8650   15.3470 C.2    91  THR91       0.2619
     32  O        -14.9080   -3.5960   14.5720 O.2    91  THR91      -0.2717
     33  CB       -13.0950   -1.8550   16.6370 C.3    91  THR91       0.1784
     34  OG1      -13.2190   -2.5010   17.9140 O.3    91  THR91      -0.2211
     35  CG2      -14.3030   -0.9980   16.3420 C.3    91  THR91       0.0376
     36  N        -13.8990   -4.9990   16.0220 N.am   92  SER92      -0.1937
     37  CA       -14.8310   -6.0800   15.7630 C.3    92  SER92       0.2055
     38  C        -14.7560   -7.0820   16.9060 C.2    92  SER92       0.2643
     39  O        -13.7080   -7.2390   17.5440 O.2    92  SER92      -0.2714
     40  CB       -14.4650   -6.7520   14.4410 C.3    92  SER92       0.2130
     41  OG       -15.4140   -7.7170   14.0210 O.3    92  SER92      -0.2179
     42  N        -15.8780   -7.7570   17.1560 N.am   93  GLY93      -0.1954
     43  CA       -15.8770   -8.8520   18.1070 C.3    93  GLY93       0.1869
     44  C        -15.6780  -10.1670   17.3890 C.2    93  GLY93       0.2309
     45  O        -16.4670  -10.4830   16.4900 O.2    93  GLY93      -0.2863
     46  N         -8.4940   -3.7520   16.5950 N.3   120  VAL120     -0.1245
     47  CA        -8.8230   -3.8600   18.0210 C.3   120  VAL120      0.1561
     48  C        -10.0160   -4.7960   18.1060 C.2   120  VAL120      0.2260
     49  O        -11.1280   -4.4220   17.7110 O.2   120  VAL120     -0.2867
     50  CB        -9.1360   -2.5080   18.6760 C.3   120  VAL120      0.0252
     51  CG1       -9.3620   -2.6870   20.1740 C.3   120  VAL120      0.0019
     52  CG2       -7.9830   -1.5230   18.4440 C.3   120  VAL120      0.0019
     53  N        -12.0500   -8.3800   20.0780 N.3   122  THR122     -0.1218
     54  CA       -12.2630   -9.1850   21.2800 C.3   122  THR122      0.1862
     55  C        -12.2350  -10.6670   20.9520 C.2   122  THR122      0.2287
     56  O        -12.5800  -11.0870   19.8430 O.2   122  THR122     -0.2866
     57  CB       -13.6000   -8.8720   21.9520 C.3   122  THR122      0.1770
     58  OG1      -14.6730   -9.0670   21.0060 O.3   122  THR122     -0.2211
     59  CG2      -13.6310   -7.4540   22.4390 C.3   122  THR122      0.0375
     60  N         -8.4340   -8.0600   22.9790 N.3   153  ILE153     -0.1245
     61  CA        -9.0300   -7.9720   24.3090 C.3   153  ILE153      0.1561
     62  C         -9.8130   -9.2520   24.5420 C.2   153  ILE153      0.2260
     63  O        -10.9010   -9.4170   23.9840 O.2   153  ILE153     -0.2867
     64  CB        -9.9410   -6.7450   24.4440 C.3   153  ILE153      0.0252
     65  CG1       -9.1210   -5.4480   24.3540 C.3   153  ILE153      0.0019
     66  CG2      -10.7710   -6.8130   25.7230 C.3   153  ILE153      0.0019
     67  CD1       -9.9660   -4.2040   23.9910 C.3   153  ILE153      0.0001
     68  N        -12.5240  -11.1550   26.1610 N.3   155  ASN155     -0.1240
     69  CA       -13.6670  -10.6670   26.9160 C.3   155  ASN155      0.1653
     70  C        -13.6800  -11.2180   28.3360 C.2   155  ASN155      0.2266
     71  O        -14.2090  -10.5510   29.2200 O.2   155  ASN155     -0.2867
     72  CB       -14.9770  -11.0160   26.1900 C.3   155  ASN155      0.1155
     73  CG       -15.4580   -9.8810   25.2960 C.2   155  ASN155      0.2627
     74  OD1      -15.0940   -8.7230   25.4670 O.2   155  ASN155     -0.2716
     75  ND2      -16.2840  -10.2200   24.3210 N.am  155  ASN155     -0.0877
     76  N        -18.7310   -3.1810   28.9910 N.3   172  PHE172     -0.1241
     77  CA       -18.3980   -3.0060   27.5790 C.3   172  PHE172      0.1605
     78  C        -17.7780   -1.6300   27.3180 C.2   172  PHE172      0.2264
     79  O        -16.9080   -1.4870   26.4470 O.2   172  PHE172     -0.2867
     80  CB       -19.6520   -3.1970   26.7120 C.3   172  PHE172      0.0534
     81  CG       -20.0800   -4.6490   26.5400 C.ar  172  PHE172     -0.0203
     82  CD1      -21.2700   -4.9550   25.8820 C.ar  172  PHE172     -0.0042
     83  CD2      -19.2850   -5.7040   26.9930 C.ar  172  PHE172     -0.0042
     84  CE1      -21.6720   -6.2950   25.7080 C.ar  172  PHE172     -0.0003
     85  CE2      -19.6720   -7.0400   26.8090 C.ar  172  PHE172     -0.0003
     86  CZ       -20.8780   -7.3290   26.1520 C.ar  172  PHE172     -0.0000
     87  N        -14.0390   -1.6740   27.8920 N.3   175  ALA175     -0.1231
     88  CA       -13.2320   -2.2110   26.8170 C.3   175  ALA175      0.1694
     89  C        -13.1030   -1.1980   25.6920 C.2   175  ALA175      0.2592
     90  O        -12.0660   -1.1460   25.0310 O.2   175  ALA175     -0.2718
     91  CB       -13.8410   -3.5190   26.3120 C.3   175  ALA175      0.0304
     92  N        -14.1450   -0.3810   25.4750 N.am  176  ASP176     -0.1974
     93  CA       -14.0810    0.6710   24.4640 C.3   176  ASP176      0.1709
     94  C        -12.9470    1.6220   24.7450 C.2   176  ASP176      0.2293
     95  O        -12.3700    2.1850   23.8140 O.2   176  ASP176     -0.2864
     96  CB       -15.3520    1.5210   24.4440 C.3   176  ASP176      0.1436
     97  CG       -16.5540    0.8120   23.8900 C.2   176  ASP176      0.3671
     98  OD1      -17.6430    1.4160   24.0190 O.co2 176  ASP176     -0.2456
     99  OD2      -16.4390   -0.3120   23.3480 O.co2 176  ASP176     -0.2456
    100  N         -9.6290    1.3110   22.8180 N.3   179  LEU179     -0.1245
    101  CA        -9.6320    1.9270   21.4950 C.3   179  LEU179      0.1561
    102  C         -9.6900    3.4510   21.5780 C.2   179  LEU179      0.2260
    103  O         -8.9410    4.1440   20.8890 O.2   179  LEU179     -0.2867
    104  CB       -10.8170    1.3860   20.6910 C.3   179  LEU179      0.0270
    105  CG       -11.1000    1.9330   19.2940 C.3   179  LEU179      0.0019
    106  CD1       -9.9320    1.6550   18.3520 C.3   179  LEU179      0.0001
    107  CD2      -12.3840    1.2760   18.7700 C.3   179  LEU179      0.0001
@<TRIPOS>BOND
     1    41    40    1
     2    29    30    1
     3    40    37    1
     4    32    31    2
     5    31    30    1
     6    31    36   am
     7    30    33    1
     8    37    36    1
     9    37    38    1
    10    35    33    1
    11    45    44    2
    12    46    47    1
    13    33    34    1
    14    38    42   am
    15    38    39    2
    16    42    43    1
    17    44    43    1
    18     1     2    1
    19    49    48    2
    20     5     6    1
    21    47    48    1
    22    47    50    1
    23     3     2    1
    24     3     4    2
    25   106   105    1
    26    52    50    1
    27    50    51    1
    28   107   105    1
    29     6     7    1
    30     6     9    1
    31    15    16    2
    32    15    14    1
    33   105   104    1
    34    12    10   am
    35    13     7   am
    36    13    14    1
    37     7     8    2
    38    17    14    1
    39    56    55    2
    40    53    54    1
    41    10     9    1
    42    10    11    2
    43   104   101    1
    44    18    19    1
    45   103   102    2
    46    55    54    1
    47    58    57    1
    48    54    57    1
    49   101   102    1
    50   101   100    1
    51    57    59    1
    52    20    19    1
    53    20    21    2
    54    19    22    1
    55    60    61    1
    56    28    26    1
    57    22    23    1
    58    99    97   ar
    59    23    24    1
    60    26    27    1
    61    26    25    2
    62    95    94    2
    63    97    98   ar
    64    97    96    1
    65    25    24    1
    66    63    62    2
    67    67    65    1
    68    61    64    1
    69    61    62    1
    70    75    73   am
    71    65    64    1
    72    64    66    1
    73    96    93    1
    74    93    94    1
    75    93    92    1
    76    90    89    2
    77    73    74    2
    78    73    72    1
    79    92    89   am
    80    89    88    1
    81    84    82   ar
    82    84    86   ar
    83    82    81   ar
    84    86    85   ar
    85    68    69    1
    86    72    69    1
    87    91    88    1
    88    79    78    2
    89    81    80    1
    90    81    83   ar
    91    80    77    1
    92    85    83   ar
    93    88    87    1
    94    69    70    1
    95    78    77    1
    96    77    76    1
    97    70    71    2
