@<TRIPOS>MOLECULE
tmp/5mn5A00.pdb
 152 140 0 0 0
SMALL
GASTEIGER

@<TRIPOS>ATOM
      1  N        -22.9490   -7.1940   25.4300 N.3     8  GLY8       -0.1210
      2  CA       -22.3900   -6.0950   24.6740 C.3     8  GLY8        0.1956
      3  C        -20.9820   -6.3810   24.1770 C.2     8  GLY8        0.2612
      4  O        -20.3650   -7.4020   24.4880 O.2     8  GLY8       -0.2717
      5  N        -20.4730   -5.4460   23.3780 N.am    9  GLY9       -0.1942
      6  CA       -19.1630   -5.5800   22.7690 C.3     9  GLY9        0.2014
      7  C        -18.0290   -5.7070   23.7630 C.2     9  GLY9        0.2639
      8  O        -17.2720   -6.6840   23.7340 O.2     9  GLY9       -0.2714
      9  N        -17.8960   -4.7100   24.6420 N.am   10  GLY10      -0.1939
     10  CA       -16.8490   -4.7540   25.6500 C.3    10  GLY10       0.2014
     11  C        -16.9560   -5.9640   26.5580 C.2    10  GLY10       0.2639
     12  O        -15.9440   -6.5630   26.9310 O.2    10  GLY10      -0.2714
     13  N        -18.1840   -6.3310   26.9360 N.am   11  GLY11      -0.1954
     14  CA       -18.3770   -7.5220   27.7520 C.3    11  GLY11       0.1869
     15  C        -17.9290   -8.7920   27.0510 C.2    11  GLY11       0.2309
     16  O        -17.3810   -9.7020   27.6810 O.2    11  GLY11      -0.2863
     17  N        -15.5410   -9.0370   24.7610 N.3    13  ASN13      -0.1240
     18  CA       -14.0830   -9.0750   24.7030 C.3    13  ASN13       0.1653
     19  C        -13.4830   -9.5350   26.0260 C.2    13  ASN13       0.2266
     20  O        -12.4670  -10.2400   26.0420 O.2    13  ASN13      -0.2867
     21  CB       -13.5360   -7.7070   24.3010 C.3    13  ASN13       0.1155
     22  CG       -13.8130   -7.3790   22.8500 C.2    13  ASN13       0.2627
     23  OD1      -14.1860   -8.2520   22.0700 O.2    13  ASN13      -0.2716
     24  ND2      -13.6250   -6.1190   22.4770 N.am   13  ASN13      -0.0877
     25  N        -25.1230  -10.0810   22.2410 N.3    32  ASN32      -0.1225
     26  CA       -24.8460   -8.8050   21.5940 C.3    32  ASN32       0.1785
     27  C        -25.9440   -8.5200   20.5800 C.2    32  ASN32       0.2597
     28  O        -26.7880   -9.3710   20.2880 O.2    32  ASN32      -0.2718
     29  CB       -23.4730   -8.8030   20.9200 C.3    32  ASN32       0.1169
     30  CG       -22.9130   -7.4060   20.7500 C.2    32  ASN32       0.2627
     31  OD1      -23.6080   -6.4140   20.9800 O.2    32  ASN32      -0.2716
     32  ND2      -21.6500   -7.3190   20.3430 N.am   32  ASN32      -0.0877
     33  N        -25.9290   -7.2950   20.0580 N.am   33  THR33      -0.1953
     34  CA       -26.7850   -6.9130   18.9430 C.3    33  THR33       0.1897
     35  C        -26.0800   -7.0180   17.6030 C.2    33  THR33       0.2313
     36  O        -26.7310   -7.3000   16.5910 O.2    33  THR33      -0.2863
     37  CB       -27.2950   -5.4790   19.1210 C.3    33  THR33       0.1794
     38  OG1      -26.2150   -4.6400   19.5480 O.3    33  THR33      -0.2208
     39  CG2      -28.4060   -5.4380   20.1570 C.3    33  THR33       0.0378
     40  N        -27.5090    4.6860   22.8550 N.3    51  ASN51      -0.1240
     41  CA       -28.7470    4.8790   23.6090 C.3    51  ASN51       0.1653
     42  C        -29.1970    3.5640   24.2310 C.2    51  ASN51       0.2266
     43  O        -29.6020    2.6370   23.5240 O.2    51  ASN51      -0.2867
     44  CB       -29.8600    5.4520   22.7330 C.3    51  ASN51       0.1155
     45  CG       -31.1640    5.6230   23.4990 C.2    51  ASN51       0.2627
     46  OD1      -32.2400    5.2900   23.0030 O.2    51  ASN51      -0.2716
     47  ND2      -31.0690    6.1480   24.7180 N.am   51  ASN51      -0.0877
     48  N        -19.6310   -3.7460   29.6330 N.3    81  GLY81      -0.1210
     49  CA       -19.1720   -2.3750   29.7010 C.3    81  GLY81       0.1956
     50  C        -20.3320   -1.4040   29.6390 C.2    81  GLY81       0.2611
     51  O        -21.0410   -1.3410   28.6280 O.2    81  GLY81      -0.2717
     52  N        -20.5520   -0.6530   30.7150 N.am   82  MET82      -0.1979
     53  CA       -21.6040    0.3530   30.7100 C.3    82  MET82       0.1605
     54  C        -21.1680    1.5620   29.8900 C.2    82  MET82       0.2287
     55  O        -20.0000    1.9580   29.9090 O.2    82  MET82      -0.2864
     56  CB       -21.9490    0.7770   32.1390 C.3    82  MET82       0.0413
     57  CG       -22.2540   -0.3660   33.0960 C.3    82  MET82       0.0598
     58  SD       -23.2470   -1.6960   32.3870 S.3    82  MET82      -0.1393
     59  CE       -24.8810   -1.1990   32.8910 C.3    82  MET82       0.0692
     60  N        -22.3560    2.0960   26.2950 N.3    84  GLY84      -0.1210
     61  CA       -22.9780    1.9080   25.0030 C.3    84  GLY84       0.1956
     62  C        -24.4620    1.6220   25.1080 C.2    84  GLY84       0.2612
     63  O        -25.0530    1.5710   26.1860 O.2    84  GLY84      -0.2717
     64  N        -25.0810    1.4480   23.9420 N.am   85  GLY85      -0.1942
     65  CA       -26.5070    1.1700   23.9120 C.3    85  GLY85       0.2014
     66  C        -26.8420   -0.2480   24.3350 C.2    85  GLY85       0.2640
     67  O        -27.8520   -0.4820   25.0050 O.2    85  GLY85      -0.2714
     68  N        -26.0030   -1.2120   23.9530 N.am   86  THR86      -0.1936
     69  CA       -26.3250   -2.6220   24.1550 C.3    86  THR86       0.2028
     70  C        -26.1530   -3.0430   25.6130 C.2    86  THR86       0.2642
     71  O        -27.1140   -3.4600   26.2670 O.2    86  THR86      -0.2714
     72  CB       -25.4560   -3.4920   23.2450 C.3    86  THR86       0.1808
     73  OG1      -25.6440   -3.0980   21.8800 O.3    86  THR86      -0.2208
     74  CG2      -25.8280   -4.9580   23.3980 C.3    86  THR86       0.0379
     75  N        -24.9290   -2.9470   26.1330 N.am   87  GLY87      -0.1954
     76  CA       -24.6610   -3.4320   27.4790 C.3    87  GLY87       0.1869
     77  C        -25.4160   -2.6700   28.5520 C.2    87  GLY87       0.2309
     78  O        -25.9780   -3.2680   29.4720 O.2    87  GLY87      -0.2863
     79  N        -18.0850   -2.3100   34.1570 N.3   110  THR110     -0.1218
     80  CA       -17.1350   -1.2120   34.0950 C.3   110  THR110      0.1862
     81  C        -17.8590    0.1180   33.9170 C.2   110  THR110      0.2287
     82  O        -18.9120    0.1900   33.2720 O.2   110  THR110     -0.2866
     83  CB       -16.1280   -1.4320   32.9530 C.3   110  THR110      0.1770
     84  OG1      -14.9100   -0.7410   33.2490 O.3   110  THR110     -0.2211
     85  CG2      -16.6720   -0.9380   31.6130 C.3   110  THR110      0.0375
     86  N        -17.0170    3.7110   32.0690 N.3   112  PRO112     -0.2116
     87  CA       -16.0850    4.0490   30.9890 C.3   112  PRO112      0.1372
     88  C        -15.0150    5.0210   31.4620 C.2   112  PRO112      0.2244
     89  O        -15.1020    5.6300   32.5310 O.2   112  PRO112     -0.2868
     90  CB       -16.9870    4.6800   29.9260 C.3   112  PRO112      0.0268
     91  CG       -18.1140    5.2580   30.7020 C.3   112  PRO112      0.0207
     92  CD       -18.3260    4.3600   31.8920 C.3   112  PRO112      0.0892
     93  N        -13.9850    9.1740   27.3210 N.3   116  GLU116     -0.1245
     94  CA       -15.0570    8.7240   26.4470 C.3   116  GLU116      0.1567
     95  C        -16.2390    9.6790   26.4500 C.2   116  GLU116      0.2260
     96  O        -17.2120    9.4520   25.7250 O.2   116  GLU116     -0.2867
     97  CB       -15.5070    7.3220   26.8550 C.3   116  GLU116      0.0388
     98  CG       -14.4000    6.2920   26.7250 C.3   116  GLU116      0.1160
     99  CD       -14.9160    4.8710   26.7400 C.2   116  GLU116      0.3649
    100  OE1      -15.6670    4.5000   25.8120 O.co2 116  GLU116     -0.2457
    101  OE2      -14.5660    4.1250   27.6810 O.co2 116  GLU116     -0.2457
    102  N        -21.4410    9.3220   27.7270 N.3   120  ARG120     -0.1245
    103  CA       -21.1990    7.9080   27.9500 C.3   120  ARG120      0.1563
    104  C        -21.0350    7.6180   29.4380 C.2   120  ARG120      0.2260
    105  O        -21.3740    6.5220   29.8970 O.2   120  ARG120     -0.2867
    106  CB       -19.9670    7.4800   27.1470 C.3   120  ARG120      0.0307
    107  CG       -19.9240    6.0220   26.7640 C.3   120  ARG120      0.0489
    108  CD       -19.1550    5.8440   25.4680 C.3   120  ARG120      0.2205
    109  NE       -19.4670    4.5590   24.8630 N.pl3 120  ARG120     -0.0865
    110  CZ       -20.2430    4.4150   23.7980 C.cat 120  ARG120      0.5346
    111  NH1      -20.7810    5.4870   23.2300 N.pl3 120  ARG120      0.1354
    112  NH2      -20.4820    3.2060   23.3050 N.pl3 120  ARG120      0.1354
    113  N        -13.1660    2.4910   34.9550 N.3   143  ASN143     -0.1240
    114  CA       -11.9700    2.3220   34.1370 C.3   143  ASN143      0.1653
    115  C        -10.9040    3.3630   34.4600 C.2   143  ASN143      0.2266
    116  O         -9.7090    3.0840   34.3160 O.2   143  ASN143     -0.2867
    117  CB       -12.3380    2.3740   32.6520 C.3   143  ASN143      0.1155
    118  CG       -12.7450    1.0150   32.1020 C.2   143  ASN143      0.2627
    119  OD1      -12.3740   -0.0250   32.6470 O.2   143  ASN143     -0.2716
    120  ND2      -13.5130    1.0190   31.0170 N.am  143  ASN143     -0.0877
    121  N         -8.2570   -0.7900   26.5060 N.3   160  PHE160     -0.1241
    122  CA        -9.4250   -1.6320   26.7480 C.3   160  PHE160      0.1605
    123  C         -9.0810   -3.0950   26.9970 C.2   160  PHE160      0.2264
    124  O         -9.9610   -3.8640   27.4000 O.2   160  PHE160     -0.2867
    125  CB       -10.4340   -1.5090   25.6100 C.3   160  PHE160      0.0534
    126  CG       -11.0730   -0.1560   25.5350 C.ar  160  PHE160     -0.0203
    127  CD1      -10.8040    0.7030   24.4830 C.ar  160  PHE160     -0.0042
    128  CD2      -11.9430    0.2580   26.5300 C.ar  160  PHE160     -0.0042
    129  CE1      -11.3920    1.9510   24.4240 C.ar  160  PHE160     -0.0003
    130  CE2      -12.5320    1.5040   26.4790 C.ar  160  PHE160     -0.0003
    131  CZ       -12.2580    2.3520   25.4230 C.ar  160  PHE160     -0.0000
    132  N         -8.8350   -3.1810   30.7710 N.3   163  ALA163     -0.1231
    133  CA       -10.2140   -3.2940   31.2330 C.3   163  ALA163      0.1694
    134  C        -10.7070   -4.7340   31.1500 C.2   163  ALA163      0.2592
    135  O        -11.3910   -5.2190   32.0600 O.2   163  ALA163     -0.2718
    136  CB       -11.1170   -2.3640   30.4220 C.3   163  ALA163      0.0304
    137  N        -10.3830   -5.4280   30.0570 N.am  164  ASP164     -0.1974
    138  CA       -10.7300   -6.8410   29.9480 C.3   164  ASP164      0.1709
    139  C        -10.1070   -7.6460   31.0810 C.2   164  ASP164      0.2293
    140  O        -10.7520   -8.5340   31.6500 O.2   164  ASP164     -0.2864
    141  CB       -10.2800   -7.3940   28.5960 C.3   164  ASP164      0.1436
    142  CG       -11.1610   -6.9320   27.4530 C.2   164  ASP164      0.3671
    143  OD1      -12.4000   -6.8980   27.6190 O.co2 164  ASP164     -0.2456
    144  OD2      -10.6110   -6.6110   26.3790 O.co2 164  ASP164     -0.2456
    145  N        -11.9540   -7.0730   34.5070 N.3   167  LEU167     -0.1245
    146  CA       -13.2060   -7.8210   34.5300 C.3   167  LEU167      0.1561
    147  C        -12.9570   -9.3210   34.5970 C.2   167  LEU167      0.2260
    148  O        -13.7240  -10.0520   35.2370 O.2   167  LEU167     -0.2867
    149  CB       -14.0380   -7.4910   33.2900 C.3   167  LEU167      0.0270
    150  CG       -14.4690   -6.0420   33.0840 C.3   167  LEU167      0.0019
    151  CD1      -15.1190   -5.8740   31.7240 C.3   167  LEU167      0.0001
    152  CD2      -15.4240   -5.6320   34.1860 C.3   167  LEU167      0.0001
@<TRIPOS>BOND
     1    36    35    2
     2    35    34    1
     3    34    37    1
     4    34    33    1
     5    37    38    1
     6    37    39    1
     7    33    27   am
     8    28    27    2
     9    32    30   am
    10    27    26    1
    11    30    29    1
    12    30    31    2
    13    29    26    1
    14    26    25    1
    15    73    72    1
    16    23    22    2
    17    24    22   am
    18    44    45    1
    19    44    41    1
    20     6     5    1
    21     6     7    1
    22    22    21    1
    23    40    41    1
    24    46    45    2
    25   111   110    1
    26    72    74    1
    27    72    69    1
    28   112   110    1
    29     5     3   am
    30    45    47   am
    31    43    42    2
    32    41    42    1
    33     8     7    2
    34     7     9   am
    35   110   109    2
    36    65    64    1
    37    65    66    1
    38    64    62   am
    39    68    69    1
    40    68    66   am
    41    69    70    1
    42     3     4    2
    43     3     2    1
    44    21    18    1
    45    66    67    2
    46   129   127   ar
    47   129   131   ar
    48   127   126   ar
    49     9    10    1
    50     2     1    1
    51    18    17    1
    52    18    19    1
    53   109   108    1
    54    61    62    1
    55    61    60    1
    56    62    63    2
    57   131   130   ar
    58   108   107    1
    59   126   125    1
    60   126   128   ar
    61   125   122    1
    62    70    75   am
    63    70    71    2
    64    10    11    1
    65    96    95    2
    66   100    99   ar
    67    19    20    2
    68    75    76    1
    69   144   142   ar
    70    94    95    1
    71    94    97    1
    72    94    93    1
    73   130   128   ar
    74   121   122    1
    75    11    12    2
    76    11    13   am
    77    98    99    1
    78    98    97    1
    79    99   101   ar
    80   122   123    1
    81   107   106    1
    82    13    14    1
    83   123   124    2
    84    15    16    2
    85    15    14    1
    86   106   103    1
    87   142   143   ar
    88   142   141    1
    89    76    77    1
    90   102   103    1
    91   103   104    1
    92    77    78    2
    93   141   138    1
    94    51    50    2
    95   104   105    2
    96    48    49    1
    97    50    49    1
    98    50    52   am
    99    54    55    2
   100    54    53    1
   101    90    91    1
   102    90    87    1
   103   138   137    1
   104   138   139    1
   105   137   134   am
   106   136   133    1
   107    91    92    1
   108    53    52    1
   109    53    56    1
   110   132   133    1
   111    87    88    1
   112    87    86    1
   113   120   118   am
   114   139   140    2
   115   134   133    1
   116   134   135    2
   117    88    89    2
   118    85    83    1
   119   151   150    1
   120    92    86    1
   121   118   119    2
   122   118   117    1
   123    56    57    1
   124    58    59    1
   125    58    57    1
   126   117   114    1
   127    83    84    1
   128    83    80    1
   129   150   149    1
   130   150   152    1
   131    82    81    2
   132   149   146    1
   133    81    80    1
   134    80    79    1
   135   114   115    1
   136   114   113    1
   137   116   115    2
   138   145   146    1
   139   146   147    1
   140   147   148    2
