@<TRIPOS>MOLECULE
tmp/5mn8A00.pdb
 175 165 0 0 0
SMALL
GASTEIGER

@<TRIPOS>ATOM
      1  N        103.8280  114.4840  592.1320 N.3     8  GLY8       -0.1210
      2  CA       103.4500  113.0930  592.2660 C.3     8  GLY8        0.1956
      3  C        101.9470  112.8970  592.3790 C.2     8  GLY8        0.2612
      4  O        101.1810  113.8240  592.6360 O.2     8  GLY8       -0.2717
      5  N        101.5260  111.6450  592.1780 N.am    9  GLY9       -0.1942
      6  CA       100.1250  111.3060  592.3610 C.3     9  GLY9        0.2014
      7  C         99.6610  111.4460  593.7970 C.2     9  GLY9        0.2639
      8  O         98.4730  111.6670  594.0490 O.2     9  GLY9       -0.2714
      9  N        100.5790  111.3160  594.7520 N.am   10  GLY10      -0.1939
     10  CA       100.2710  111.5610  596.1480 C.3    10  GLY10       0.2014
     11  C         99.9400  113.0110  596.4270 C.2    10  GLY10       0.2639
     12  O         98.7900  113.3470  596.7320 O.2    10  GLY10      -0.2714
     13  N        100.9590  113.8750  596.3430 N.am   11  GLY11      -0.1954
     14  CA       100.7460  115.3080  596.5040 C.3    11  GLY11       0.1869
     15  C         99.5730  115.8580  595.7160 C.2    11  GLY11       0.2309
     16  O         98.9270  116.8130  596.1510 O.2    11  GLY11      -0.2863
     17  N         96.6730  114.2810  595.0630 N.3    13  ASN13      -0.1225
     18  CA        95.4780  113.9910  595.8490 C.3    13  ASN13       0.1785
     19  C         95.3060  114.9850  596.9910 C.2    13  ASN13       0.2597
     20  O         94.1740  115.3180  597.3600 O.2    13  ASN13      -0.2718
     21  CB        95.5400  112.5630  596.3900 C.3    13  ASN13       0.1169
     22  CG        95.0550  111.5380  595.3840 C.2    13  ASN13       0.2627
     23  OD1       95.7810  110.6090  595.0290 O.2    13  ASN13      -0.2716
     24  ND2       93.8210  111.7000  594.9200 N.am   13  ASN13      -0.0877
     25  N         96.4130  115.4640  597.5630 N.am   14  ALA14      -0.1979
     26  CA        96.3320  116.4980  598.5890 C.3    14  ALA14       0.1597
     27  C         95.8250  117.8120  598.0030 C.2    14  ALA14       0.2287
     28  O         94.8910  118.4200  598.5380 O.2    14  ALA14      -0.2864
     29  CB        97.6960  116.6880  599.2520 C.3    14  ALA14       0.0319
     30  N        102.8310  115.8800  587.4660 N.3    32  ASN32      -0.1240
     31  CA       102.7620  114.4260  587.4430 C.3    32  ASN32       0.1653
     32  C        103.4920  113.9150  586.2110 C.2    32  ASN32       0.2266
     33  O        103.7270  114.6540  585.2510 O.2    32  ASN32      -0.2867
     34  CB       101.3110  113.9300  587.4490 C.3    32  ASN32       0.1155
     35  CG       101.0670  112.8430  588.4800 C.2    32  ASN32       0.2627
     36  OD1      101.9280  111.9970  588.7210 O.2    32  ASN32      -0.2716
     37  ND2       99.8870  112.8580  589.0890 N.am   32  ASN32      -0.0877
     38  N        103.0520  106.2910  584.5130 N.3    58  GLY58      -0.1210
     39  CA       103.6810  106.6990  585.7520 C.3    58  GLY58       0.1956
     40  C        105.1410  106.2880  585.7920 C.2    58  GLY58       0.2612
     41  O        105.5490  105.2900  585.2000 O.2    58  GLY58      -0.2717
     42  N        105.9400  107.0760  586.5110 N.am   59  ALA59      -0.1965
     43  CA       107.3920  106.9210  586.5040 C.3    59  ALA59       0.1728
     44  C        107.8740  105.6130  587.1310 C.2    59  ALA59       0.2617
     45  O        109.0650  105.4690  587.4250 O.2    59  ALA59      -0.2715
     46  CB       108.0460  108.1070  587.2170 C.3    59  ALA59       0.0334
     47  N        106.9650  104.6590  587.3310 N.am   60  GLY60      -0.1940
     48  CA       107.3000  103.3140  587.7610 C.3    60  GLY60       0.2014
     49  C        108.1750  103.1940  588.9940 C.2    60  GLY60       0.2638
     50  O        109.2110  102.5230  588.9570 O.2    60  GLY60      -0.2714
     51  N        107.7450  103.8230  590.0920 N.am   61  ALA61      -0.1977
     52  CA       108.4010  103.7560  591.3960 C.3    61  ALA61       0.1597
     53  C        109.9240  103.7560  591.3230 C.2    61  ALA61       0.2287
     54  O        110.5810  102.9670  592.0090 O.2    61  ALA61      -0.2864
     55  CB       107.9240  102.5140  592.1540 C.3    61  ALA61       0.0319
     56  N        104.0810  113.4560  598.2900 N.3    92  GLY92      -0.1210
     57  CA       104.2020  112.2250  599.0450 C.3    92  GLY92       0.1956
     58  C        105.4260  111.4120  598.6780 C.2    92  GLY92       0.2612
     59  O        105.5160  110.8800  597.5680 O.2    92  GLY92      -0.2717
     60  N        106.3790  111.3130  599.6030 N.am   93  MET93      -0.1965
     61  CA       107.5930  110.5490  599.3550 C.3    93  MET93       0.1736
     62  C        107.2770  109.0650  599.1930 C.2    93  MET93       0.2617
     63  O        106.3640  108.5270  599.8250 O.2    93  MET93      -0.2715
     64  CB       108.5910  110.7490  600.4970 C.3    93  MET93       0.0427
     65  CG       108.9940  112.1940  600.7480 C.3    93  MET93       0.0599
     66  SD       110.1930  112.8100  599.5490 S.3    93  MET93      -0.1393
     67  CE       109.1260  113.6920  598.4130 C.3    93  MET93       0.0692
     68  N        108.0490  108.4020  598.3340 N.am   94  GLY94      -0.1940
     69  CA       107.8870  106.9770  598.1180 C.3    94  GLY94       0.2014
     70  C        107.9030  106.5700  596.6590 C.2    94  GLY94       0.2639
     71  O        108.6240  105.6440  596.2730 O.2    94  GLY94      -0.2714
     72  N        107.1110  107.2550  595.8370 N.am   95  GLY95      -0.1939
     73  CA       106.9700  106.8950  594.4440 C.3    95  GLY95       0.2014
     74  C        108.0950  107.4300  593.5800 C.2    95  GLY95       0.2639
     75  O        108.9830  108.1570  594.0260 O.2    95  GLY95      -0.2714
     76  N        108.0480  107.0450  592.3030 N.am   96  GLY96      -0.1939
     77  CA       109.0550  107.5100  591.3630 C.3    96  GLY96       0.2014
     78  C        108.9950  109.0080  591.1270 C.2    96  GLY96       0.2640
     79  O        110.0240  109.6890  591.1100 O.2    96  GLY96      -0.2714
     80  N        107.7860  109.5400  590.9350 N.am   97  THR97      -0.1936
     81  CA       107.6330  110.9560  590.6120 C.3    97  THR97       0.2028
     82  C        107.9880  111.8370  591.8050 C.2    97  THR97       0.2642
     83  O        108.8500  112.7190  591.7080 O.2    97  THR97      -0.2714
     84  CB       106.2040  111.2350  590.1410 C.3    97  THR97       0.1808
     85  OG1      105.7170  110.1160  589.3890 O.3    97  THR97      -0.2208
     86  CG2      106.1640  112.4840  589.2720 C.3    97  THR97       0.0379
     87  N        107.3220  111.6150  592.9410 N.am   98  GLY98      -0.1954
     88  CA       107.5150  112.4890  594.0890 C.3    98  GLY98       0.1869
     89  C        108.9440  112.4980  594.6000 C.2    98  GLY98       0.2309
     90  O        109.5390  113.5590  594.8000 O.2    98  GLY98      -0.2863
     91  N        104.7910  113.6700  603.2000 N.3   121  THR121     -0.1203
     92  CA       104.4360  112.5100  604.0080 C.3   121  THR121      0.1994
     93  C        105.4430  111.3880  603.7880 C.2   121  THR121      0.2618
     94  O        105.7490  111.0370  602.6430 O.2   121  THR121     -0.2717
     95  CB       103.0280  112.0110  603.6720 C.3   121  THR121      0.1784
     96  OG1      102.8960  111.8460  602.2540 O.3   121  THR121     -0.2211
     97  CG2      101.9780  112.9910  604.1650 C.3   121  THR121      0.0376
     98  N        105.9530  110.8310  604.8830 N.am  122  ARG122     -0.1965
     99  CA       106.6410  109.5540  604.8170 C.3   122  ARG122      0.1714
    100  C        105.6290  108.4440  604.5310 C.2   122  ARG122      0.2458
    101  O        104.4260  108.6250  604.7310 O.2   122  ARG122     -0.2730
    102  CB       107.3800  109.2830  606.1260 C.3   122  ARG122      0.0347
    103  CG       108.8760  109.5540  606.0690 C.3   122  ARG122      0.0492
    104  CD       109.5540  109.1620  607.3740 C.3   122  ARG122      0.2205
    105  NE       110.4340  110.2100  607.8800 N.pl3 122  ARG122     -0.0865
    106  CZ       111.7280  110.3050  607.5900 C.cat 122  ARG122      0.5346
    107  NH1      112.2970  109.4100  606.7940 N.pl3 122  ARG122      0.1354
    108  NH2      112.4540  111.2920  608.0980 N.pl3 122  ARG122      0.1354
    109  N        106.0830  107.2870  604.0590 N.am  123  PRO123     -0.2727
    110  CA       105.1550  106.1920  603.7740 C.3   123  PRO123      0.1402
    111  C        104.9090  105.3230  605.0030 C.2   123  PRO123      0.2269
    112  O        105.6140  105.4020  606.0110 O.2   123  PRO123     -0.2865
    113  CB       105.8770  105.4020  602.6740 C.3   123  PRO123      0.0296
    114  CG       107.3300  105.6620  602.9050 C.3   123  PRO123      0.0237
    115  CD       107.4730  106.9220  603.7260 C.3   123  PRO123      0.0939
    116  N        104.1110   99.2830  603.5830 N.3   127  GLU127     -0.1245
    117  CA       104.3950   99.3840  602.1570 C.3   127  GLU127      0.1567
    118  C        105.8000   98.8820  601.8400 C.2   127  GLU127      0.2260
    119  O        106.4860   99.4140  600.9670 O.2   127  GLU127     -0.2867
    120  CB       104.2140  100.8170  601.6620 C.3   127  GLU127      0.0388
    121  CG       102.7750  101.3110  601.6820 C.3   127  GLU127      0.1160
    122  CD       102.6250  102.7010  601.0920 C.2   127  GLU127      0.3649
    123  OE1      102.7610  102.8420  599.8590 O.co2 127  GLU127     -0.2457
    124  OE2      102.3690  103.6530  601.8600 O.co2 127  GLU127     -0.2457
    125  N        110.5200  100.4720  599.6650 N.3   131  ARG131     -0.1245
    126  CA       109.7920  101.7120  599.4010 C.3   131  ARG131      0.1563
    127  C        110.1270  102.7880  600.4280 C.2   131  ARG131      0.2260
    128  O        110.1300  103.9810  600.1010 O.2   131  ARG131     -0.2867
    129  CB       108.2870  101.4390  599.4050 C.3   131  ARG131      0.0307
    130  CG       107.4040  102.5860  598.9410 C.3   131  ARG131      0.0489
    131  CD       107.2270  102.5750  597.4330 C.3   131  ARG131      0.2205
    132  NE       106.1790  103.4990  597.0130 N.pl3 131  ARG131     -0.0865
    133  CZ       105.5620  103.4490  595.8360 C.cat 131  ARG131      0.5346
    134  NH1      105.8840  102.5130  594.9530 N.pl3 131  ARG131      0.1354
    135  NH2      104.6170  104.3310  595.5450 N.pl3 131  ARG131      0.1354
    136  N        103.6700  108.8110  608.1680 N.3   154  ASN154     -0.1240
    137  CA       102.2980  108.3260  608.0950 C.3   154  ASN154      0.1653
    138  C        101.9810  107.3160  609.1890 C.2   154  ASN154      0.2266
    139  O        100.8020  107.0450  609.4410 O.2   154  ASN154     -0.2867
    140  CB       102.0300  107.7090  606.7200 C.3   154  ASN154      0.1155
    141  CG       101.4810  108.7160  605.7260 C.2   154  ASN154      0.2627
    142  OD1      100.7120  109.6080  606.0860 O.2   154  ASN154     -0.2716
    143  ND2      101.8780  108.5800  604.4650 N.am  154  ASN154     -0.0877
    144  N         94.5800  107.3270  603.1240 N.3   171  PHE171     -0.1241
    145  CA        95.2300  108.4710  602.5030 C.3   171  PHE171      0.1605
    146  C         94.3220  109.6890  602.4200 C.2   171  PHE171      0.2264
    147  O         94.8260  110.8130  602.3120 O.2   171  PHE171     -0.2867
    148  CB        95.7250  108.1050  601.0990 C.3   171  PHE171      0.0534
    149  CG        96.8020  107.0570  601.0900 C.ar  171  PHE171     -0.0203
    150  CD1       96.5380  105.7780  600.6320 C.ar  171  PHE171     -0.0042
    151  CD2       98.0760  107.3500  601.5470 C.ar  171  PHE171     -0.0042
    152  CE1       97.5260  104.8110  600.6240 C.ar  171  PHE171     -0.0003
    153  CE2       99.0680  106.3880  601.5420 C.ar  171  PHE171     -0.0003
    154  CZ        98.7930  105.1160  601.0800 C.ar  171  PHE171     -0.0000
    155  N         95.3830  111.4420  605.2160 N.3   174  ALA174     -0.1231
    156  CA        96.7100  112.0100  604.9980 C.3   174  ALA174      0.1694
    157  C         96.6330  113.2910  604.1780 C.2   174  ALA174      0.2592
    158  O         97.4020  114.2310  604.4130 O.2   174  ALA174     -0.2718
    159  CB        97.6140  110.9860  604.3130 C.3   174  ALA174      0.0304
    160  N         95.7250  113.3400  603.2010 N.am  175  ASP175     -0.1974
    161  CA        95.4610  114.5880  602.4920 C.3   175  ASP175      0.1709
    162  C         95.0110  115.6740  603.4610 C.2   175  ASP175      0.2293
    163  O         95.5090  116.8060  603.4220 O.2   175  ASP175     -0.2864
    164  CB        94.4060  114.3630  601.4080 C.3   175  ASP175      0.1436
    165  CG        94.8300  113.3280  600.3810 C.2   175  ASP175      0.3671
    166  OD1       96.0370  113.2560  600.0640 O.co2 175  ASP175     -0.2456
    167  OD2       93.9540  112.5870  599.8880 O.co2 175  ASP175     -0.2456
    168  N         97.9850  116.9600  605.4130 N.3   178  LEU178     -0.1245
    169  CA        98.8340  117.8400  604.6160 C.3   178  LEU178      0.1561
    170  C         98.1720  119.1950  604.4100 C.2   178  LEU178      0.2260
    171  O         98.8510  120.2280  604.3760 O.2   178  LEU178     -0.2867
    172  CB        99.1490  117.1910  603.2690 C.3   178  LEU178      0.0270
    173  CG       100.1540  116.0390  603.2560 C.3   178  LEU178      0.0019
    174  CD1      100.0610  115.2780  601.9460 C.3   178  LEU178      0.0001
    175  CD2      101.5670  116.5450  603.4800 C.3   178  LEU178      0.0001
@<TRIPOS>BOND
     1    38    39    1
     2    41    40    2
     3    33    32    2
     4    39    40    1
     5    40    42   am
     6    32    31    1
     7    43    42    1
     8    43    44    1
     9    43    46    1
    10    44    47   am
    11    44    45    2
    12    47    48    1
    13    31    34    1
    14    31    30    1
    15    34    35    1
    16    48    49    1
    17    35    36    2
    18    35    37   am
    19    50    49    2
    20    49    51   am
    21    86    84    1
    22    85    84    1
    23    51    52    1
    24    84    81    1
    25    81    80    1
    26    81    82    1
    27    80    78   am
    28    79    78    2
    29    78    77    1
    30    53    52    1
    31    53    54    2
    32    77    76    1
    33    52    55    1
    34    83    82    2
    35    82    87   am
    36     1     2    1
    37     5     6    1
    38     5     3   am
    39     2     3    1
    40    76    74   am
    41     6     7    1
    42     3     4    2
    43    87    88    1
    44    74    75    2
    45    74    73    1
    46     7     8    2
    47     7     9   am
    48    88    89    1
    49    73    72    1
    50    89    90    2
    51     9    10    1
    52    24    22   am
    53   134   133    1
    54    23    22    2
    55    17    18    1
    56    22    21    1
    57   135   133    1
    58    15    16    2
    59    15    14    1
    60   133   132    2
    61    72    70   am
    62    18    21    1
    63    18    19    1
    64    10    11    1
    65    71    70    2
    66    13    11   am
    67    13    14    1
    68    11    12    2
    69    70    69    1
    70    19    20    2
    71    19    25   am
    72   132   131    1
    73   131   130    1
    74    25    26    1
    75    59    58    2
    76    27    28    2
    77    27    26    1
    78    69    68    1
    79    56    57    1
    80    68    62   am
    81    67    66    1
    82    26    29    1
    83    58    57    1
    84    58    60   am
    85   130   129    1
    86    62    61    1
    87    62    63    2
    88    61    60    1
    89    61    64    1
    90   126   129    1
    91   126   125    1
    92   126   127    1
    93    66    65    1
    94   123   122   ar
    95   167   165   ar
    96   166   165   ar
    97   128   127    2
    98   165   164    1
    99    64    65    1
   100   152   150   ar
   101   152   154   ar
   102   150   149   ar
   103   119   118    2
   104   154   153   ar
   105   149   148    1
   106   149   151   ar
   107   122   121    1
   108   122   124   ar
   109   148   145    1
   110   164   161    1
   111   153   151   ar
   112   120   121    1
   113   120   117    1
   114   118   117    1
   115   174   173    1
   116   117   116    1
   117    96    95    1
   118   147   146    2
   119   146   145    1
   120   161   160    1
   121   161   162    1
   122   145   144    1
   123    94    93    2
   124   113   114    1
   125   113   110    1
   126   114   115    1
   127    91    92    1
   128   160   157   am
   129   173   172    1
   130   173   175    1
   131   172   169    1
   132   163   162    2
   133    95    92    1
   134    95    97    1
   135   115   109    1
   136   110   109    1
   137   110   111    1
   138    93    92    1
   139    93    98   am
   140   109   100   am
   141   157   158    2
   142   157   156    1
   143   159   156    1
   144   171   170    2
   145   170   169    1
   146   143   141   am
   147   100   101    2
   148   100    99    1
   149   169   168    1
   150    99    98    1
   151    99   102    1
   152   156   155    1
   153   111   112    2
   154   141   142    2
   155   141   140    1
   156   103   102    1
   157   103   104    1
   158   140   137    1
   159   107   106    1
   160   104   105    1
   161   106   105    2
   162   106   108    1
   163   137   136    1
   164   137   138    1
   165   138   139    2
