@<TRIPOS>MOLECULE
tmp/5mncA00.pdb
 109 108 0 0 0
SMALL
GASTEIGER

@<TRIPOS>ATOM
      1  N          7.2670  -12.3150   -8.6500 N.3    40  HIS40      -0.1241
      2  CA         6.3600  -11.1840   -8.6420 C.3    40  HIS40       0.1621
      3  C          5.2730  -11.3240   -7.5730 C.2    40  HIS40       0.2264
      4  O          4.5590  -10.3470   -7.3110 O.2    40  HIS40      -0.2867
      5  CB         5.8170  -10.8760  -10.0430 C.3    40  HIS40       0.0745
      6  CG         4.6230  -11.6520  -10.4550 C.ar   40  HIS40       0.0817
      7  ND1        4.6620  -12.7340  -11.3020 N.ar   40  HIS40      -0.2268
      8  CD2        3.3210  -11.4310  -10.1760 C.ar   40  HIS40       0.1154
      9  CE1        3.4220  -13.1400  -11.5310 C.ar   40  HIS40       0.1986
     10  NE2        2.5950  -12.3730  -10.8440 N.ar   40  HIS40      -0.2212
     11  N         -6.8050  -20.6460  -20.2960 N.3   171  ASP171     -0.1225
     12  CA        -5.5470  -20.0390  -19.8660 C.3   171  ASP171      0.1805
     13  C         -5.5370  -19.9230  -18.3440 C.2   171  ASP171      0.2598
     14  O         -6.5630  -20.0720  -17.6770 O.2   171  ASP171     -0.2718
     15  CB        -5.4480  -18.6310  -20.4900 C.3   171  ASP171      0.1424
     16  CG        -4.0500  -17.9910  -20.5730 C.2   171  ASP171      0.3668
     17  OD1       -3.0510  -18.5830  -20.1230 O.co2 171  ASP171     -0.2456
     18  OD2       -4.0330  -16.8630  -21.1370 O.co2 171  ASP171     -0.2456
     19  N         -4.3630  -19.6230  -17.8020 N.am  172  SER172     -0.1938
     20  CA        -4.2680  -19.1210  -16.4360 C.3   172  SER172      0.2055
     21  C         -4.5410  -17.6180  -16.4170 C.2   172  SER172      0.2643
     22  O         -4.5450  -16.9730  -17.4680 O.2   172  SER172     -0.2714
     23  CB        -2.8870  -19.4400  -15.8650 C.3   172  SER172      0.2130
     24  OG        -1.8500  -18.9010  -16.6550 O.3   172  SER172     -0.2179
     25  N         -4.8290  -17.0700  -15.2280 N.am  173  CYS173     -0.1953
     26  CA        -5.2770  -15.6900  -15.1450 C.3   173  CYS173      0.1843
     27  C         -4.8430  -15.0810  -13.8140 C.2   173  CYS173      0.2625
     28  O         -4.1500  -15.7130  -13.0220 O.2   173  CYS173     -0.2714
     29  CB        -6.7980  -15.6620  -15.3740 C.3   173  CYS173      0.0997
     30  SG        -7.4710  -14.0230  -15.8860 S.3   173  CYS173     -0.0797
     31  N         -5.1920  -13.8190  -13.6040 N.am  174  GLN174     -0.1977
     32  CA        -4.8350  -13.1280  -12.3680 C.3   174  GLN174      0.1601
     33  C         -5.2760  -13.9450  -11.1530 C.2   174  GLN174      0.2287
     34  O         -6.4130  -14.4180  -11.0900 O.2   174  GLN174     -0.2864
     35  CB        -5.5150  -11.7500  -12.3580 C.3   174  GLN174      0.0394
     36  CG        -4.7970  -10.6330  -13.1490 C.3   174  GLN174      0.0908
     37  CD        -4.8850  -10.7460  -14.6760 C.2   174  GLN174      0.2608
     38  OE1       -5.9340  -11.0320  -15.2370 O.2   174  GLN174     -0.2717
     39  NE2       -3.7830  -10.4140  -15.3490 N.am  174  GLN174     -0.0878
     40  N         -1.0110  -16.7130  -10.4880 N.3   177  SER177     -0.1217
     41  CA         0.4230  -16.4730  -10.5000 C.3   177  SER177      0.1889
     42  C          1.1100  -17.2160   -9.3750 C.2   177  SER177      0.2288
     43  O          0.6240  -17.2890   -8.2490 O.2   177  SER177     -0.2866
     44  CB         0.7570  -15.0070  -10.3770 C.3   177  SER177      0.2089
     45  OG         0.4720  -14.3340  -11.5790 O.3   177  SER177     -0.2183
     46  N          3.2850  -20.2200  -13.0770 N.3   191  VAL191     -0.1231
     47  CA         2.4240  -19.2170  -13.7030 C.3   191  VAL191      0.1692
     48  C          3.0590  -17.8370  -13.5290 C.2   191  VAL191      0.2593
     49  O          3.2700  -17.3830  -12.3930 O.2   191  VAL191     -0.2718
     50  CB         1.0270  -19.2410  -13.0700 C.3   191  VAL191      0.0266
     51  CG1        0.1370  -18.1860  -13.7280 C.3   191  VAL191      0.0020
     52  CG2        0.3470  -20.6100  -13.1580 C.3   191  VAL191      0.0020
     53  N          3.3410  -17.1530  -14.6400 N.am  192  SER192     -0.1938
     54  CA         4.1150  -15.9120  -14.5940 C.3   192  SER192      0.2055
     55  C          3.3370  -14.7310  -15.1690 C.2   192  SER192      0.2643
     56  O          3.0480  -13.7920  -14.4200 O.2   192  SER192     -0.2714
     57  CB         5.4880  -16.1180  -15.2340 C.3   192  SER192      0.2130
     58  OG         6.2670  -14.9330  -15.1910 O.3   192  SER192     -0.2179
     59  N          3.0170  -14.7020  -16.4680 N.am  193  TRP193     -0.1959
     60  CA         2.3880  -13.5160  -17.0420 C.3   193  TRP193      0.1771
     61  C          1.6990  -13.8590  -18.3540 C.2   193  TRP193      0.2620
     62  O          1.7650  -14.9750  -18.8530 O.2   193  TRP193     -0.2715
     63  CB         3.4060  -12.3810  -17.2250 C.3   193  TRP193      0.0590
     64  CG         4.5280  -12.6560  -18.1980 C.ar  193  TRP193      0.0006
     65  CD1        5.6890  -13.2950  -17.9400 C.ar  193  TRP193      0.0946
     66  CD2        4.6210  -12.2140  -19.5670 C.ar  193  TRP193      0.0152
     67  NE1        6.5090  -13.3000  -19.0470 N.ar  193  TRP193     -0.2442
     68  CE2        5.8730  -12.6390  -20.0630 C.ar  193  TRP193      0.0810
     69  CE3        3.7740  -11.4820  -20.4130 C.ar  193  TRP193      0.0012
     70  CZ2        6.2880  -12.3850  -21.3800 C.ar  193  TRP193      0.0191
     71  CZ3        4.1860  -11.2280  -21.7070 C.ar  193  TRP193      0.0001
     72  CH2        5.4130  -11.6990  -22.1830 C.ar  193  TRP193      0.0015
     73  N          1.0310  -12.8630  -18.9180 N.am  194  GLY194     -0.1954
     74  CA         0.4700  -12.9430  -20.2530 C.3   194  GLY194      0.1869
     75  C         -0.2790  -11.6490  -20.5000 C.2   194  GLY194      0.2309
     76  O         -0.4920  -10.8440  -19.5920 O.2   194  GLY194     -0.2863
     77  N         -3.5570  -10.0560  -20.8500 N.3   196  GLY196     -0.1210
     78  CA        -4.8820  -10.5260  -20.5350 C.3   196  GLY196      0.1956
     79  C         -4.8310  -12.0170  -20.2300 C.2   196  GLY196      0.2612
     80  O         -3.7750  -12.5950  -19.9110 O.2   196  GLY196     -0.2717
     81  N         -6.0150  -12.6330  -20.3270 N.am  197  CYS197     -0.1970
     82  CA        -6.1920  -14.0640  -20.0930 C.3   197  CYS197      0.1712
     83  C         -7.0230  -14.6490  -21.2130 C.2   197  CYS197      0.2296
     84  O         -8.0660  -14.0940  -21.5660 O.2   197  CYS197     -0.2864
     85  CB        -6.9560  -14.3390  -18.7830 C.3   197  CYS197      0.0983
     86  SG        -6.2620  -13.4400  -17.4090 S.3   197  CYS197     -0.0798
     87  N         -0.5700  -18.0690  -22.2160 N.3   204  GLY204     -0.1210
     88  CA         0.1290  -17.8140  -20.9740 C.3   204  GLY204      0.1956
     89  C          1.6230  -18.0560  -21.1180 C.2   204  GLY204      0.2612
     90  O          2.0740  -18.9430  -21.8540 O.2   204  GLY204     -0.2717
     91  N          2.3780  -17.2630  -20.3440 N.am  205  VAL205     -0.1965
     92  CA         3.8270  -17.3530  -20.2490 C.3   205  VAL205      0.1727
     93  C          4.1950  -17.8240  -18.8420 C.2   205  VAL205      0.2616
     94  O          3.6250  -17.3730  -17.8330 O.2   205  VAL205     -0.2715
     95  CB         4.5170  -16.0260  -20.6080 C.3   205  VAL205      0.0290
     96  CG1        6.0260  -16.2350  -20.7200 C.3   205  VAL205      0.0023
     97  CG2        3.9560  -15.4440  -21.9060 C.3   205  VAL205      0.0023
     98  N          5.1530  -18.7340  -18.7940 N.am  206  TYR206     -0.1974
     99  CA         5.5010  -19.4890  -17.6060 C.3   206  TYR206      0.1639
    100  C          7.0050  -19.4770  -17.3900 C.2   206  TYR206      0.2290
    101  O          7.7890  -19.5570  -18.3440 O.2   206  TYR206     -0.2864
    102  CB         4.9970  -20.9560  -17.7790 C.3   206  TYR206      0.0560
    103  CG         3.4940  -20.9850  -17.9270 C.ar  206  TYR206     -0.0198
    104  CD1        2.6810  -20.9870  -16.8010 C.ar  206  TYR206     -0.0009
    105  CD2        2.8760  -20.9570  -19.1800 C.ar  206  TYR206     -0.0009
    106  CE1        1.3150  -20.9480  -16.9090 C.ar  206  TYR206      0.0417
    107  CE2        1.4860  -20.9130  -19.2930 C.ar  206  TYR206      0.0417
    108  CZ         0.7110  -20.9070  -18.1540 C.ar  206  TYR206      0.1957
    109  OH        -0.6680  -20.8490  -18.1790 O.3   206  TYR206     -0.2866
@<TRIPOS>BOND
     1    87    88    1
     2    72    71   ar
     3    72    70   ar
     4    97    95    1
     5    90    89    2
     6    71    69   ar
     7    84    83    2
     8    70    68   ar
     9    83    82    1
    10    18    16   ar
    11    89    88    1
    12    89    91   am
    13    77    78    1
    14    96    95    1
    15    95    92    1
    16    16    15    1
    17    16    17   ar
    18    78    79    1
    19    75    74    1
    20    75    76    2
    21    15    12    1
    22    69    66   ar
    23    91    92    1
    24    81    79   am
    25    81    82    1
    26    11    12    1
    27    74    73    1
    28    92    93    1
    29    79    80    2
    30    82    85    1
    31    68    66   ar
    32    68    67   ar
    33    12    13    1
    34    66    64   ar
    35   107   105   ar
    36   107   108   ar
    37   105   103   ar
    38    67    65   ar
    39    73    61   am
    40    62    61    2
    41    93    98   am
    42    93    94    2
    43    98    99    1
    44    85    86    1
    45    61    60    1
    46    13    19   am
    47    13    14    2
    48   101   100    2
    49    64    65   ar
    50    64    63    1
    51   109   108    1
    52   108   106   ar
    53   103   102    1
    54   103   104   ar
    55    19    20    1
    56   102    99    1
    57    99   100    1
    58    22    21    2
    59    86    30    1
    60    63    60    1
    61    60    59    1
    62   106   104   ar
    63    24    23    1
    64    59    55   am
    65    20    21    1
    66    20    23    1
    67    21    25   am
    68    30    29    1
    69    29    26    1
    70    39    37   am
    71    38    37    2
    72    57    58    1
    73    57    54    1
    74    25    26    1
    75    55    54    1
    76    55    56    2
    77    26    27    1
    78    37    36    1
    79    53    54    1
    80    53    48   am
    81    27    31   am
    82    27    28    2
    83    51    50    1
    84    47    48    1
    85    47    46    1
    86    47    50    1
    87    31    32    1
    88    48    49    2
    89    52    50    1
    90    36    35    1
    91    32    35    1
    92    32    33    1
    93    45    44    1
    94     9     7   ar
    95     9    10   ar
    96     7     6   ar
    97    33    34    2
    98    10     8   ar
    99    41    40    1
   100    41    44    1
   101    41    42    1
   102     6     8   ar
   103     6     5    1
   104     5     2    1
   105    42    43    2
   106     1     2    1
   107     2     3    1
   108     3     4    2
