@<TRIPOS>MOLECULE
tmp/5mnqA00.pdb
 162 160 0 0 0
SMALL
GASTEIGER

@<TRIPOS>ATOM
      1  N          8.1950   56.4970   14.6770 N.3    40  HIS40      -0.1241
      2  CA         9.3320   56.5190   15.5920 C.3    40  HIS40       0.1621
      3  C          9.3980   57.8060   16.4090 C.2    40  HIS40       0.2264
      4  O         10.2040   57.8750   17.3530 O.2    40  HIS40      -0.2867
      5  CB        10.6450   56.1950   14.8740 C.3    40  HIS40       0.0745
      6  CG        11.2640   57.3350   14.1070 C.ar   40  HIS40       0.0817
      7  ND1       11.1140   57.4860   12.7410 N.ar   40  HIS40      -0.2268
      8  CD2       12.1110   58.3140   14.4970 C.ar   40  HIS40       0.1154
      9  CE1       11.8090   58.5340   12.3370 C.ar   40  HIS40       0.1986
     10  NE2       12.4180   59.0600   13.3810 N.ar   40  HIS40      -0.2212
     11  N          9.4600   48.6240   14.8960 N.3    78  SER78      -0.1202
     12  CA        10.5320   49.5400   15.2670 C.3    78  SER78       0.2020
     13  C         11.9190   48.9900   14.9620 C.2    78  SER78       0.2619
     14  O         12.8940   49.7500   15.0110 O.2    78  SER78      -0.2717
     15  CB        10.4410   49.8720   16.7460 C.3    78  SER78       0.2103
     16  OG        10.5910   48.6940   17.5100 O.3    78  SER78      -0.2182
     17  N         12.0360   47.7090   14.6330 N.am   79  ASN79      -0.1960
     18  CA        13.3330   47.1690   14.2540 C.3    79  ASN79       0.1819
     19  C         13.6630   47.4120   12.7940 C.2    79  ASN79       0.2622
     20  O         14.8420   47.5280   12.4520 O.2    79  ASN79      -0.2715
     21  CB        13.3760   45.6670   14.5360 C.3    79  ASN79       0.1195
     22  CG        13.3980   45.3620   16.0140 C.2    79  ASN79       0.2630
     23  OD1       13.9090   46.1500   16.8220 O.2    79  ASN79      -0.2716
     24  ND2       12.8330   44.2280   16.3820 N.am   79  ASN79      -0.0877
     25  N         12.6510   47.4670   11.9240 N.am   80  THR80      -0.1937
     26  CA        12.8330   47.6850   10.4890 C.3    80  THR80       0.2028
     27  C         12.3410   49.0460   10.0300 C.2    80  THR80       0.2642
     28  O         12.6860   49.4640    8.9270 O.2    80  THR80      -0.2714
     29  CB        12.0550   46.6170    9.6990 C.3    80  THR80       0.1808
     30  OG1       10.6520   46.7910    9.9650 O.3    80  THR80      -0.2208
     31  CG2       12.4980   45.2080   10.1010 C.3    80  THR80       0.0379
     32  N         11.5610   49.7360   10.8590 N.am   81  LEU81      -0.1977
     33  CA        10.8530   50.9730   10.5270 C.3    81  LEU81       0.1596
     34  C          9.8560   50.7910    9.3930 C.2    81  LEU81       0.2287
     35  O          9.4180   51.7710    8.8010 O.2    81  LEU81      -0.2864
     36  CB        11.7900   52.1680   10.2980 C.3    81  LEU81       0.0297
     37  CG        12.6840   52.6080   11.4700 C.3    81  LEU81       0.0022
     38  CD1       13.2000   54.0210   11.2680 C.3    81  LEU81       0.0001
     39  CD2       12.0740   52.5390   12.8220 C.3    81  LEU81       0.0001
     40  N         16.8540   46.0450    3.2400 N.3   155  GLN155     -0.1245
     41  CA        16.2390   46.9260    4.2280 C.3   155  GLN155      0.1566
     42  C         15.0600   47.7270    3.6940 C.2   155  GLN155      0.2260
     43  O         14.3720   48.3720    4.4890 O.2   155  GLN155     -0.2867
     44  CB        17.3030   47.8840    4.7750 C.3   155  GLN155      0.0367
     45  CG        18.4950   47.1860    5.4550 C.3   155  GLN155      0.0905
     46  CD        19.7550   48.0510    5.4170 C.2   155  GLN155      0.2608
     47  OE1       19.8570   49.0410    6.1300 O.2   155  GLN155     -0.2717
     48  NE2       20.7100   47.6880    4.5520 N.am  155  GLN155     -0.0878
     49  N         20.9120   66.1250    2.7330 N.3   171  ASP171     -0.1225
     50  CA        20.0500   65.0840    3.2910 C.3   171  ASP171      0.1805
     51  C         19.2150   65.6710    4.4110 C.2   171  ASP171      0.2598
     52  O         19.4730   66.7750    4.8940 O.2   171  ASP171     -0.2718
     53  CB        20.9450   63.9560    3.8460 C.3   171  ASP171      0.1424
     54  CG        20.2420   62.6210    4.0540 C.2   171  ASP171      0.3668
     55  OD1       19.0520   62.4470    3.7300 O.co2 171  ASP171     -0.2456
     56  OD2       20.9620   61.7040    4.5070 O.co2 171  ASP171     -0.2456
     57  N         18.2280   64.8920    4.8450 N.am  172  SER172     -0.1938
     58  CA        17.6020   65.1140    6.1430 C.3   172  SER172      0.2055
     59  C         18.4450   64.4530    7.2300 C.2   172  SER172      0.2643
     60  O         19.3870   63.7040    6.9450 O.2   172  SER172     -0.2714
     61  CB        16.1560   64.6450    6.1430 C.3   172  SER172      0.2130
     62  OG        16.0280   63.2790    5.8020 O.3   172  SER172     -0.2179
     63  N         18.1230   64.7440    8.4900 N.am  173  CYS173     -0.1953
     64  CA        18.9740   64.3040    9.5870 C.3   173  CYS173      0.1843
     65  C         18.1470   64.2220   10.8720 C.2   173  CYS173      0.2625
     66  O         16.9320   64.4360   10.8790 O.2   173  CYS173     -0.2714
     67  CB        20.1920   65.2250    9.7080 C.3   173  CYS173      0.0997
     68  SG        21.6140   64.5510   10.6400 S.3   173  CYS173     -0.0797
     69  N         18.8200   63.8480   11.9650 N.am  174  GLN174     -0.1977
     70  CA        18.1750   63.7800   13.2620 C.3   174  GLN174      0.1601
     71  C         17.4290   65.0840   13.5240 C.2   174  GLN174      0.2287
     72  O         17.9480   66.1800   13.2890 O.2   174  GLN174     -0.2864
     73  CB        19.2500   63.5660   14.3360 C.3   174  GLN174      0.0394
     74  CG        19.5580   62.0970   14.6820 C.3   174  GLN174      0.0908
     75  CD        20.1740   61.2510   13.5610 C.2   174  GLN174      0.2608
     76  OE1       20.9470   61.7290   12.7220 O.2   174  GLN174     -0.2717
     77  NE2       19.8450   59.9490   13.5750 N.am  174  GLN174     -0.0878
     78  N         13.0250   63.9810   11.5240 N.3   177  SER177     -0.1217
     79  CA        12.1120   62.8400   11.6640 C.3   177  SER177      0.1889
     80  C         10.6640   63.2810   11.6760 C.2   177  SER177      0.2288
     81  O         10.2820   64.1740   12.4230 O.2   177  SER177     -0.2866
     82  CB        12.3500   62.1090   12.9950 C.3   177  SER177      0.2089
     83  OG        13.5620   61.4320   13.0170 O.3   177  SER177     -0.2183
     84  N          9.9430   61.8450    6.7190 N.3   191  VAL191     -0.1231
     85  CA        11.3400   61.6130    7.0900 C.3   191  VAL191      0.1692
     86  C         11.3960   60.4460    8.0630 C.2   191  VAL191      0.2593
     87  O         10.8000   60.4970    9.1470 O.2   191  VAL191     -0.2718
     88  CB        11.9420   62.8780    7.7200 C.3   191  VAL191      0.0266
     89  CG1       13.3780   62.6360    8.1100 C.3   191  VAL191      0.0020
     90  CG2       11.8610   64.0810    6.7870 C.3   191  VAL191      0.0020
     91  N         12.1260   59.3820    7.6920 N.am  192  SER192     -0.1938
     92  CA        12.1270   58.1410    8.4620 C.3   192  SER192      0.2055
     93  C         13.5340   57.7520    8.9070 C.2   192  SER192      0.2643
     94  O         13.8120   57.7900   10.1150 O.2   192  SER192     -0.2714
     95  CB        11.4110   57.0590    7.6500 C.3   192  SER192      0.2130
     96  OG        11.3420   55.8510    8.3720 O.3   192  SER192     -0.2179
     97  N         14.4450   57.3790    8.0020 N.am  193  TRP193     -0.1959
     98  CA        15.7110   56.8260    8.4700 C.3   193  TRP193      0.1771
     99  C         16.7850   57.0020    7.4120 C.2   193  TRP193      0.2620
    100  O         16.5210   57.4060    6.2790 O.2   193  TRP193     -0.2715
    101  CB        15.5850   55.3600    8.8870 C.3   193  TRP193      0.0590
    102  CG        15.1950   54.3500    7.8390 C.ar  193  TRP193      0.0006
    103  CD1       13.9250   53.9850    7.4780 C.ar  193  TRP193      0.0946
    104  CD2       16.0830   53.4800    7.1040 C.ar  193  TRP193      0.0152
    105  NE1       13.9780   52.9530    6.5650 N.ar  193  TRP193     -0.2442
    106  CE2       15.2810   52.6560    6.2990 C.ar  193  TRP193      0.0810
    107  CE3       17.4720   53.3580    7.0240 C.ar  193  TRP193      0.0012
    108  CZ2       15.8140   51.6880    5.4480 C.ar  193  TRP193      0.0191
    109  CZ3       18.0020   52.4180    6.1650 C.ar  193  TRP193      0.0001
    110  CH2       17.1720   51.5950    5.3860 C.ar  193  TRP193      0.0015
    111  N         18.0110   56.6990    7.8180 N.am  194  GLY194     -0.1940
    112  CA        19.1600   56.6500    6.9280 C.3   194  GLY194      0.2014
    113  C         20.3850   56.2850    7.7340 C.2   194  GLY194      0.2640
    114  O         20.3700   56.2960    8.9650 O.2   194  GLY194     -0.2714
    115  N         21.4590   55.9700    7.0310 N.am  195  SER195     -0.1935
    116  CA        22.7320   55.6660    7.6740 C.3   195  SER195      0.2055
    117  C         23.5290   56.9580    7.7800 C.2   195  SER195      0.2644
    118  O         23.9610   57.5080    6.7670 O.2   195  SER195     -0.2714
    119  CB        23.5120   54.6400    6.8630 C.3   195  SER195      0.2130
    120  OG        24.7340   54.3730    7.5230 O.3   195  SER195     -0.2179
    121  N         23.7330   57.4390    9.0090 N.am  196  GLY196     -0.1939
    122  CA        24.3300   58.7370    9.1710 C.3   196  GLY196      0.2014
    123  C         23.4000   59.7980    8.5900 C.2   196  GLY196      0.2639
    124  O         22.1930   59.6010    8.4600 O.2   196  GLY196     -0.2714
    125  N         23.9950   60.9240    8.2060 N.am  197  CYS197     -0.1967
    126  CA        23.2960   61.9740    7.4730 C.3   197  CYS197      0.1712
    127  C         24.2140   62.5000    6.3870 C.2   197  CYS197      0.2296
    128  O         25.3780   62.8260    6.6540 O.2   197  CYS197     -0.2864
    129  CB        22.8910   63.1600    8.3760 C.3   197  CYS197      0.0983
    130  SG        21.9430   62.7230    9.7790 S.3   197  CYS197     -0.0798
    131  N         24.5020   56.7850    0.6980 N.3   202  LYS202     -0.1231
    132  CA        23.5390   56.4690    1.7490 C.3   202  LYS202      0.1681
    133  C         22.4660   57.5460    1.7410 C.2   202  LYS202      0.2434
    134  O         22.5220   58.4940    2.5280 O.2   202  LYS202     -0.2733
    135  CB        24.2430   56.4020    3.1020 C.3   202  LYS202      0.0331
    136  CG        25.2000   55.2360    3.2380 C.3   202  LYS202      0.0295
    137  CD        24.5980   53.8890    3.0170 C.2   202  LYS202     -0.0067
    138  CE        25.4100   52.7000    2.9580 C.2   202  LYS202      0.1012
    139  NZ        24.6780   51.4510    2.7250 N.pl3 202  LYS202     -0.1270
    140  N         21.4880   57.4440    0.8500 N.am  203  PRO203     -0.2718
    141  CA        20.4600   58.4850    0.7420 C.3   203  PRO203      0.1535
    142  C         19.4770   58.3750    1.9000 C.2   203  PRO203      0.2599
    143  O         19.5050   57.4320    2.6930 O.2   203  PRO203     -0.2715
    144  CB        19.7870   58.1550   -0.5960 C.3   203  PRO203      0.0310
    145  CG        19.9060   56.6620   -0.6740 C.3   203  PRO203      0.0237
    146  CD        21.2400   56.3240   -0.0830 C.3   203  PRO203      0.0939
    147  N         18.5960   59.3640    1.9910 N.am  204  GLY204     -0.1955
    148  CA        17.5330   59.3010    2.9600 C.3   204  GLY204      0.1869
    149  C         16.4530   58.3200    2.5550 C.2   204  GLY204      0.2309
    150  O         16.1710   58.1180    1.3710 O.2   204  GLY204     -0.2863
    151  N         12.3750   57.2630    3.3120 N.3   206  TYR206     -0.1241
    152  CA        11.1500   57.9790    3.6250 C.3   206  TYR206      0.1605
    153  C          9.9610   57.0300    3.5710 C.2   206  TYR206      0.2264
    154  O          9.8970   56.1420    2.7170 O.2   206  TYR206     -0.2867
    155  CB        10.9730   59.1290    2.6030 C.3   206  TYR206      0.0534
    156  CG        12.1030   60.1110    2.6950 C.ar  206  TYR206     -0.0201
    157  CD1       12.0720   61.1010    3.6510 C.ar  206  TYR206     -0.0009
    158  CD2       13.2370   60.0050    1.9000 C.ar  206  TYR206     -0.0009
    159  CE1       13.1330   61.9870    3.7990 C.ar  206  TYR206      0.0417
    160  CE2       14.3000   60.8890    2.0350 C.ar  206  TYR206      0.0417
    161  CZ        14.2450   61.8750    3.0000 C.ar  206  TYR206      0.1957
    162  OH        15.2750   62.7580    3.2150 O.3   206  TYR206     -0.2866
@<TRIPOS>BOND
     1   145   144    1
     2   145   146    1
     3   144   141    1
     4   146   140    1
     5   131   132    1
     6   141   140    1
     7   141   142    1
     8   140   133   am
     9   150   149    2
    10   133   132    1
    11   133   134    2
    12   132   135    1
    13   158   160   ar
    14   158   156   ar
    15   142   147   am
    16   142   143    2
    17   147   148    1
    18   160   161   ar
    19   149   148    1
    20   155   156    1
    21   155   152    1
    22   156   157   ar
    23   154   153    2
    24   139   138    1
    25    49    50    1
    26   138   137    2
    27   161   162    1
    28   161   159   ar
    29   137   136    1
    30   135   136    1
    31    40    41    1
    32    50    53    1
    33    50    51    1
    34   151   152    1
    35   153   152    1
    36   157   159   ar
    37    42    41    1
    38    42    43    2
    39    55    54   ar
    40    53    54    1
    41    54    56   ar
    42    41    44    1
    43    51    57   am
    44    51    52    2
    45    48    46   am
    46    44    45    1
    47    57    58    1
    48   110   108   ar
    49   110   109   ar
    50    46    45    1
    51    46    47    2
    52   108   106   ar
    53    62    61    1
    54    58    61    1
    55    58    59    1
    56   109   107   ar
    57   100    99    2
    58   106   105   ar
    59   106   104   ar
    60   127   128    2
    61   127   126    1
    62   105   103   ar
    63    84    85    1
    64   118   117    2
    65    90    88    1
    66   119   120    1
    67   119   116    1
    68   112   113    1
    69   112   111    1
    70    60    59    2
    71   107   104   ar
    72   115   116    1
    73   115   113   am
    74    85    88    1
    75    85    86    1
    76   104   102   ar
    77    59    63   am
    78    99   111   am
    79    99    98    1
    80   126   125    1
    81   126   129    1
    82   103   102   ar
    83    95    96    1
    84    95    92    1
    85   116   117    1
    86    91    86   am
    87    91    92    1
    88    88    89    1
    89   113   114    2
    90   117   121   am
    91   102   101    1
    92    97    98    1
    93    97    93   am
    94    86    87    2
    95   125   123   am
    96   129   130    1
    97   124   123    2
    98    92    93    1
    99    98   101    1
   100    63    64    1
   101   123   122    1
   102    35    34    2
   103    93    94    2
   104    28    27    2
   105   121   122    1
   106    34    33    1
   107    64    67    1
   108    64    65    1
   109    29    30    1
   110    29    31    1
   111    29    26    1
   112    67    68    1
   113   130    68    1
   114    27    26    1
   115    27    32   am
   116    36    33    1
   117    36    37    1
   118    26    25    1
   119    33    32    1
   120    65    66    2
   121    65    69   am
   122    38    37    1
   123    37    39    1
   124    78    79    1
   125    79    80    1
   126    79    82    1
   127    80    81    2
   128    25    19   am
   129    69    70    1
   130     9     7   ar
   131     9    10   ar
   132    20    19    2
   133    76    75    2
   134     7     6   ar
   135    19    18    1
   136    82    83    1
   137    70    71    1
   138    70    73    1
   139    72    71    2
   140    10     8   ar
   141    75    77   am
   142    75    74    1
   143     6     8   ar
   144     6     5    1
   145    18    21    1
   146    18    17    1
   147    73    74    1
   148    21    22    1
   149    17    13   am
   150     1     2    1
   151     5     2    1
   152    11    12    1
   153    13    14    2
   154    13    12    1
   155    12    15    1
   156     2     3    1
   157    22    24   am
   158    22    23    2
   159     3     4    2
   160    15    16    1
