@<TRIPOS>MOLECULE
tmp/5mnuB00.pdb
 126 119 0 0 0
SMALL
GASTEIGER

@<TRIPOS>ATOM
      1  N         -7.9370   18.7510  -22.7790 N.3    48  ALA48      -0.1231
      2  CA        -8.4740   19.4050  -21.5890 C.3    48  ALA48       0.1694
      3  C         -8.4270   18.4530  -20.3850 C.2    48  ALA48       0.2592
      4  O         -7.4130   17.7870  -20.1610 O.2    48  ALA48      -0.2718
      5  CB        -9.8950   19.8950  -21.8490 C.3    48  ALA48       0.0304
      6  N         -9.5120   18.3810  -19.6150 N.am   49  SER49      -0.1952
      7  CA        -9.4830   17.6450  -18.3740 C.3    49  SER49       0.1924
      8  C         -9.2980   16.1210  -18.5640 C.2    49  SER49       0.2314
      9  O         -9.0160   15.4520  -17.6170 O.2    49  SER49      -0.2863
     10  CB       -10.7840   17.8400  -17.5350 C.3    49  SER49       0.2116
     11  OG       -10.6690   19.1140  -16.8740 O.3    49  SER49      -0.2180
     12  N         -6.1660   14.5300  -17.2910 N.3    52  LYS52      -0.1245
     13  CA        -5.9030   14.1030  -15.9230 C.3    52  LYS52       0.1561
     14  C         -5.6120   12.6080  -15.8370 C.2    52  LYS52       0.2260
     15  O         -4.9650   12.1730  -14.8770 O.2    52  LYS52      -0.2867
     16  CB        -7.0850   14.4610  -15.0090 C.3    52  LYS52       0.0271
     17  CG        -7.2750   15.9610  -14.7830 C.3    52  LYS52       0.0035
     18  CD        -8.2330   16.2360  -13.6220 C.3    52  LYS52       0.0206
     19  CE        -8.1620   17.6900  -13.1490 C.3    52  LYS52       0.1093
     20  NZ        -8.8730   18.6400  -14.0550 N.3    52  LYS52      -0.1314
     21  N        -13.2490   27.1280   -8.5800 N.3    81  MET81      -0.1245
     22  CA       -14.4960   26.4560   -8.2380 C.3    81  MET81       0.1570
     23  C        -14.5170   26.1650   -6.7460 C.2    81  MET81       0.2261
     24  O        -13.5190   25.7020   -6.1840 O.2    81  MET81      -0.2867
     25  CB       -14.6680   25.1570   -9.0310 C.3    81  MET81       0.0387
     26  CG       -15.2130   25.3570  -10.4360 C.3    81  MET81       0.0595
     27  SD       -15.7600   23.8130  -11.1880 S.3    81  MET81      -0.1393
     28  CE       -16.5510   24.4140  -12.6780 C.3    81  MET81       0.0692
     29  N        -13.3300   22.8230   -5.2700 N.3    84  TRP84      -0.1241
     30  CA       -11.9100   22.5190   -5.1520 C.3    84  TRP84       0.1605
     31  C        -11.2910   23.0510   -3.8660 C.2    84  TRP84       0.2264
     32  O        -10.1320   22.7340   -3.5800 O.2    84  TRP84      -0.2867
     33  CB       -11.1380   23.1060   -6.3380 C.3    84  TRP84       0.0550
     34  CG       -11.6420   22.6870   -7.6820 C.ar   84  TRP84       0.0003
     35  CD1      -12.4380   21.6160   -7.9690 C.ar   84  TRP84       0.0946
     36  CD2      -11.3850   23.3420   -8.9280 C.ar   84  TRP84       0.0152
     37  NE1      -12.6900   21.5630   -9.3200 N.ar   84  TRP84      -0.2442
     38  CE2      -12.0550   22.6140   -9.9300 C.ar   84  TRP84       0.0810
     39  CE3      -10.6520   24.4760   -9.2930 C.ar   84  TRP84       0.0012
     40  CZ2      -12.0130   22.9820  -11.2730 C.ar   84  TRP84       0.0191
     41  CZ3      -10.6110   24.8390  -10.6250 C.ar   84  TRP84       0.0001
     42  CH2      -11.2880   24.0950  -11.5990 C.ar   84  TRP84       0.0015
     43  N        -13.7030   15.5690   -9.1090 N.3    96  VAL96      -0.1231
     44  CA       -14.1160   16.9720   -9.1810 C.3    96  VAL96       0.1692
     45  C        -13.2500   17.7670  -10.1440 C.2    96  VAL96       0.2592
     46  O        -13.4610   18.9780  -10.2970 O.2    96  VAL96      -0.2718
     47  CB       -14.1190   17.6410   -7.7880 C.3    96  VAL96       0.0266
     48  CG1      -14.9580   16.8240   -6.8040 C.3    96  VAL96       0.0020
     49  CG2      -12.7050   17.8580   -7.2520 C.3    96  VAL96       0.0020
     50  N        -12.2610   17.1300  -10.7680 N.am   97  SER97      -0.1952
     51  CA       -11.4330   17.7410  -11.8070 C.3    97  SER97       0.1924
     52  C        -10.8010   19.0430  -11.3100 C.2    97  SER97       0.2314
     53  O        -10.9530   20.1140  -11.9030 O.2    97  SER97      -0.2863
     54  CB       -12.2530   17.9680  -13.0790 C.3    97  SER97       0.2116
     55  OG       -11.4420   17.8500  -14.2340 O.3    97  SER97      -0.2180
     56  N         -8.4320   21.6450  -11.1270 N.3    99  VAL99      -0.1245
     57  CA        -7.3830   22.1500  -12.0170 C.3    99  VAL99       0.1561
     58  C         -6.0680   22.4000  -11.2870 C.2    99  VAL99       0.2260
     59  O         -5.0270   21.9050  -11.7490 O.2    99  VAL99      -0.2867
     60  CB        -7.8840   23.4060  -12.7510 C.3    99  VAL99       0.0252
     61  CG1       -6.7350   24.1470  -13.4430 C.3    99  VAL99       0.0019
     62  CG2       -8.9560   23.0330  -13.7590 C.3    99  VAL99       0.0019
     63  N         -4.4870   22.2310  -22.2980 N.3   137  LEU137     -0.1245
     64  CA        -5.6990   23.0450  -22.2770 C.3   137  LEU137      0.1561
     65  C         -5.6430   24.2300  -23.2270 C.2   137  LEU137      0.2260
     66  O         -6.6390   24.5260  -23.8930 O.2   137  LEU137     -0.2867
     67  CB        -5.9650   23.5560  -20.8500 C.3   137  LEU137      0.0270
     68  CG        -7.1190   24.5520  -20.6830 C.3   137  LEU137      0.0019
     69  CD1       -8.4500   23.9300  -21.0940 C.3   137  LEU137      0.0001
     70  CD2       -7.1810   25.0570  -19.2500 C.3   137  LEU137      0.0001
     71  N        -14.3500    9.9810  -17.7850 N.3   187  LYS187     -0.1231
     72  CA       -13.8410   11.3060  -17.4580 C.3   187  LYS187      0.1693
     73  C        -14.3420   12.3090  -18.4880 C.2   187  LYS187      0.2593
     74  O        -14.3020   12.0450  -19.6940 O.2   187  LYS187     -0.2718
     75  CB       -12.3060   11.3340  -17.4270 C.3   187  LYS187      0.0285
     76  CG       -11.7210   12.6910  -17.0300 C.3   187  LYS187      0.0035
     77  CD       -11.9760   12.9940  -15.5550 C.3   187  LYS187      0.0206
     78  CE       -11.6130   14.4290  -15.1980 C.3   187  LYS187      0.1093
     79  NZ       -12.6810   15.3930  -15.5960 N.3   187  LYS187     -0.1314
     80  N        -14.7830   13.4640  -18.0030 N.am  188  THR188     -0.1939
     81  CA       -15.2430   14.5620  -18.8390 C.3   188  THR188      0.2028
     82  C        -14.1370   15.5910  -19.0500 C.2   188  THR188      0.2643
     83  O        -13.1340   15.6230  -18.3340 O.2   188  THR188     -0.2714
     84  CB       -16.4540   15.2500  -18.2050 C.3   188  THR188      0.1808
     85  OG1      -16.1880   15.4950  -16.8180 O.3   188  THR188     -0.2208
     86  CG2      -17.7060   14.3930  -18.3420 C.3   188  THR188      0.0379
     87  N        -14.3470   16.4500  -20.0430 N.am  189  GLY189     -0.1939
     88  CA       -13.4550   17.5680  -20.2810 C.3   189  GLY189      0.2014
     89  C        -14.1570   18.6690  -21.0380 C.2   189  GLY189      0.2639
     90  O        -15.1700   18.4420  -21.7060 O.2   189  GLY189     -0.2714
     91  N        -13.6010   19.8750  -20.9250 N.am  190  PHE190     -0.1959
     92  CA       -14.1850   21.0560  -21.5560 C.3   190  PHE190      0.1771
     93  C        -13.0970   22.1080  -21.7070 C.2   190  PHE190      0.2620
     94  O        -12.5550   22.5830  -20.7050 O.2   190  PHE190     -0.2715
     95  CB       -15.3550   21.5830  -20.7170 C.3   190  PHE190      0.0574
     96  CG       -15.9260   22.8880  -21.2000 C.ar  190  PHE190     -0.0200
     97  CD1      -16.2520   23.0760  -22.5340 C.ar  190  PHE190     -0.0042
     98  CD2      -16.1690   23.9170  -20.3060 C.ar  190  PHE190     -0.0042
     99  CE1      -16.7880   24.2790  -22.9690 C.ar  190  PHE190     -0.0003
    100  CE2      -16.7040   25.1220  -20.7370 C.ar  190  PHE190     -0.0003
    101  CZ       -17.0160   25.3000  -22.0680 C.ar  190  PHE190     -0.0000
    102  N        -12.7700   22.4640  -22.9530 N.am  191  SER191     -0.1950
    103  CA       -11.7130   23.4330  -23.2220 C.3   191  SER191      0.1924
    104  C        -12.1770   24.8800  -23.1130 C.2   191  SER191      0.2314
    105  O        -11.3360   25.7840  -23.1560 O.2   191  SER191     -0.2863
    106  CB       -11.1380   23.2080  -24.6220 C.3   191  SER191      0.2116
    107  OG       -12.0410   23.6660  -25.6150 O.3   191  SER191     -0.2180
    108  N        -23.2150   22.0630  -22.6560 N.3   229  LEU229     -0.1245
    109  CA       -22.2240   21.1180  -22.1510 C.3   229  LEU229      0.1561
    110  C        -22.8180   19.7650  -21.7780 C.2   229  LEU229      0.2260
    111  O        -22.1920   18.7400  -22.1010 O.2   229  LEU229     -0.2867
    112  CB       -21.4940   21.7390  -20.9550 C.3   229  LEU229      0.0270
    113  CG       -20.2070   21.0430  -20.5070 C.3   229  LEU229      0.0019
    114  CD1      -19.1420   21.0750  -21.6030 C.3   229  LEU229      0.0001
    115  CD2      -19.6860   21.6930  -19.2370 C.3   229  LEU229      0.0001
    116  N        -22.5440   16.4650  -23.8740 N.3   232  ARG232     -0.1245
    117  CA       -21.3860   15.5830  -23.9740 C.3   232  ARG232      0.1563
    118  C        -21.6410   14.2270  -23.3270 C.2   232  ARG232      0.2260
    119  O        -20.9530   13.2580  -23.6630 O.2   232  ARG232     -0.2867
    120  CB       -20.1590   16.2430  -23.3380 C.3   232  ARG232      0.0307
    121  CG       -20.2320   16.3540  -21.8240 C.3   232  ARG232      0.0489
    122  CD       -19.1100   17.2120  -21.2600 C.3   232  ARG232      0.2205
    123  NE       -19.2990   17.4590  -19.8330 N.pl3 232  ARG232     -0.0865
    124  CZ       -18.4230   18.0800  -19.0500 C.cat 232  ARG232      0.5346
    125  NH1      -18.6940   18.2510  -17.7620 N.pl3 232  ARG232      0.1354
    126  NH2      -17.2770   18.5230  -19.5470 N.pl3 232  ARG232      0.1354
@<TRIPOS>BOND
     1   107   106    1
     2   106   103    1
     3   117   116    1
     4   117   120    1
     5   117   118    1
     6    66    65    2
     7   119   118    2
     8   120   121    1
     9    65    64    1
    10   103   104    1
    11   103   102    1
    12   105   104    2
    13    99    97   ar
    14    99   101   ar
    15   102    93   am
    16     1     2    1
    17   108   109    1
    18    97    96   ar
    19    63    64    1
    20    64    67    1
    21   109   110    1
    22   109   112    1
    23   111   110    2
    24   101   100   ar
    25     5     2    1
    26   121   122    1
    27    93    92    1
    28    93    94    2
    29    90    89    2
    30   114   113    1
    31     2     3    1
    32    92    91    1
    33    92    95    1
    34   122   123    1
    35    96    95    1
    36    96    98   ar
    37    69    68    1
    38    89    91   am
    39    89    88    1
    40   112   113    1
    41    67    68    1
    42   100    98   ar
    43    68    70    1
    44   113   115    1
    45     3     4    2
    46     3     6   am
    47    88    87    1
    48    87    82   am
    49   123   124    2
    50    74    73    2
    51     6     7    1
    52   126   124    1
    53    82    81    1
    54    82    83    2
    55   124   125    1
    56    81    84    1
    57    81    80    1
    58     8     7    1
    59     8     9    2
    60    73    80   am
    61    73    72    1
    62     7    10    1
    63    86    84    1
    64    84    85    1
    65    71    72    1
    66    10    11    1
    67    72    75    1
    68    75    76    1
    69    12    13    1
    70    76    77    1
    71    13    14    1
    72    13    16    1
    73    14    15    2
    74    79    78    1
    75    77    78    1
    76    16    17    1
    77    17    18    1
    78    55    54    1
    79    20    19    1
    80    62    60    1
    81    18    19    1
    82    61    60    1
    83    54    51    1
    84    60    57    1
    85    28    27    1
    86    57    58    1
    87    57    56    1
    88    53    52    2
    89    51    52    1
    90    51    50    1
    91    59    58    2
    92    42    40   ar
    93    42    41   ar
    94    40    38   ar
    95    27    26    1
    96    50    45   am
    97    41    39   ar
    98    26    25    1
    99    46    45    2
   100    45    44    1
   101    38    37   ar
   102    38    36   ar
   103    37    35   ar
   104    39    36   ar
   105    44    43    1
   106    44    47    1
   107    25    22    1
   108    36    34   ar
   109    21    22    1
   110    22    23    1
   111    35    34   ar
   112    47    49    1
   113    47    48    1
   114    34    33    1
   115    23    24    2
   116    33    30    1
   117    29    30    1
   118    30    31    1
   119    31    32    2
