@<TRIPOS>MOLECULE
tmp/5mnvI01.pdb
 108 101 0 0 0
SMALL
GASTEIGER

@<TRIPOS>ATOM
      1  N         21.2980  -76.8780  -31.8350 N.3    28  PHE28      -0.1241
      2  CA        20.0090  -76.1790  -31.8500 C.3    28  PHE28       0.1605
      3  C         18.9180  -77.1900  -32.2360 C.2    28  PHE28       0.2264
      4  O         18.8240  -77.5750  -33.4030 O.2    28  PHE28      -0.2867
      5  CB        20.0570  -74.9930  -32.8310 C.3    28  PHE28       0.0534
      6  CG        18.7090  -74.3980  -33.1570 C.ar   28  PHE28      -0.0203
      7  CD1       17.8320  -74.0090  -32.1470 C.ar   28  PHE28      -0.0042
      8  CD2       18.3240  -74.2050  -34.4810 C.ar   28  PHE28      -0.0042
      9  CE1       16.5940  -73.4600  -32.4520 C.ar   28  PHE28      -0.0003
     10  CE2       17.0920  -73.6510  -34.7900 C.ar   28  PHE28      -0.0003
     11  CZ        16.2230  -73.2810  -33.7750 C.ar   28  PHE28      -0.0000
     12  N         17.9900  -66.0240  -42.5510 N.3    32  VAL32      -0.1231
     13  CA        19.2650  -65.3110  -42.6540 C.3    32  VAL32       0.1692
     14  C         20.4530  -66.1770  -42.2020 C.2    32  VAL32       0.2591
     15  O         21.4570  -66.2790  -42.9100 O.2    32  VAL32      -0.2718
     16  CB        19.2340  -63.9660  -41.8790 C.3    32  VAL32       0.0266
     17  CG1       18.8590  -62.8190  -42.8060 C.3    32  VAL32       0.0020
     18  CG2       18.2800  -64.0230  -40.6890 C.3    32  VAL32       0.0020
     19  N         20.3330  -66.7990  -41.0320 N.am   33  LEU33      -0.1980
     20  CA        21.3320  -67.7610  -40.5580 C.3    33  LEU33       0.1596
     21  C         21.1010  -69.1390  -41.1790 C.2    33  LEU33       0.2287
     22  O         22.0400  -69.9180  -41.3470 O.2    33  LEU33      -0.2864
     23  CB        21.2930  -67.8720  -39.0340 C.3    33  LEU33       0.0297
     24  CG        21.6280  -66.5930  -38.2720 C.3    33  LEU33       0.0022
     25  CD1       21.3220  -66.7770  -36.7970 C.3    33  LEU33       0.0001
     26  CD2       23.0830  -66.2010  -38.4690 C.3    33  LEU33       0.0001
     27  N         12.2670  -70.3050  -28.3070 N.3   117  MET117     -0.1230
     28  CA        12.9910  -70.5450  -29.5680 C.3   117  MET117      0.1702
     29  C         14.5100  -70.6330  -29.3740 C.2   117  MET117      0.2592
     30  O         15.2080  -71.2240  -30.2040 O.2   117  MET117     -0.2718
     31  CB        12.6590  -69.4560  -30.6010 C.3   117  MET117      0.0401
     32  CG        11.2680  -69.5780  -31.2080 C.3   117  MET117      0.0596
     33  SD        10.7500  -68.1340  -32.1580 S.3   117  MET117     -0.1393
     34  CE        11.9230  -68.1780  -33.5120 C.3   117  MET117      0.0692
     35  N         15.0100  -70.0450  -28.2860 N.am  118  LEU118     -0.1980
     36  CA        16.4270  -70.1390  -27.9210 C.3   118  LEU118      0.1596
     37  C         16.6880  -71.4230  -27.1190 C.2   118  LEU118      0.2287
     38  O         16.9500  -71.3740  -25.9150 O.2   118  LEU118     -0.2864
     39  CB        16.8650  -68.8910  -27.1360 C.3   118  LEU118      0.0297
     40  CG        17.2420  -67.6370  -27.9440 C.3   118  LEU118      0.0022
     41  CD1       18.6460  -67.7680  -28.5230 C.3   118  LEU118      0.0001
     42  CD2       16.2470  -67.3350  -29.0560 C.3   118  LEU118      0.0001
     43  N         13.2950  -62.7990  -36.7540 N.3   170  SER170     -0.1217
     44  CA        14.7060  -62.7960  -36.3660 C.3   170  SER170      0.1889
     45  C         15.1710  -61.4090  -35.9040 C.2   170  SER170      0.2288
     46  O         16.0850  -61.3000  -35.0870 O.2   170  SER170     -0.2866
     47  CB        15.5700  -63.2870  -37.5340 C.3   170  SER170      0.2089
     48  OG        16.9360  -63.3630  -37.1720 O.3   170  SER170     -0.2183
     49  N         13.2910  -61.0120  -32.1170 N.3   173  ILE173     -0.1231
     50  CA        13.8820  -61.8800  -31.0820 C.3   173  ILE173      0.1692
     51  C         15.3110  -61.4560  -30.7230 C.2   173  ILE173      0.2591
     52  O         15.6750  -61.3950  -29.5470 O.2   173  ILE173     -0.2718
     53  CB        13.9180  -63.3560  -31.5400 C.3   173  ILE173      0.0266
     54  CG1       12.4980  -63.8960  -31.7480 C.3   173  ILE173      0.0019
     55  CG2       14.6610  -64.2250  -30.5300 C.3   173  ILE173      0.0020
     56  CD1       12.4440  -65.1180  -32.6380 C.3   173  ILE173      0.0001
     57  N         16.1160  -61.1850  -31.7470 N.am  174  ALA174     -0.1980
     58  CA        17.5100  -60.7840  -31.5630 C.3   174  ALA174      0.1597
     59  C         17.6430  -59.4080  -30.9160 C.2   174  ALA174      0.2287
     60  O         18.6400  -59.1230  -30.2550 O.2   174  ALA174     -0.2864
     61  CB        18.2340  -60.7940  -32.8990 C.3   174  ALA174      0.0319
     62  N         16.5370  -60.2720  -26.6180 N.3   177  GLU177     -0.1231
     63  CA        17.1930  -61.4320  -25.9830 C.3   177  GLU177      0.1699
     64  C         18.7270  -61.3610  -26.0270 C.2   177  GLU177      0.2592
     65  O         19.4080  -62.0690  -25.2810 O.2   177  GLU177     -0.2718
     66  CB        16.7210  -62.7520  -26.6030 C.3   177  GLU177      0.0402
     67  CG        15.2920  -63.1420  -26.2510 C.3   177  GLU177      0.1161
     68  CD        15.0460  -63.2770  -24.7540 C.2   177  GLU177      0.3649
     69  OE1       15.9620  -63.7270  -24.0320 O.co2 177  GLU177     -0.2457
     70  OE2       13.9300  -62.9390  -24.2980 O.co2 177  GLU177     -0.2457
     71  N         19.2590  -60.5150  -26.9050 N.am  178  THR178     -0.1953
     72  CA        20.6790  -60.2020  -26.9130 C.3   178  THR178      0.1897
     73  C         20.9710  -59.1170  -25.8830 C.2   178  THR178      0.2313
     74  O         21.7190  -59.3410  -24.9340 O.2   178  THR178     -0.2863
     75  CB        21.1430  -59.7170  -28.3030 C.3   178  THR178      0.1794
     76  OG1       20.4070  -60.3980  -29.3240 O.3   178  THR178     -0.2208
     77  CG2       22.6070  -59.9970  -28.4940 C.3   178  THR178      0.0378
     78  N         28.3390  -64.2360  -24.4700 N.3   216  LEU216     -0.1231
     79  CA        26.9020  -64.0850  -24.6030 C.3   216  LEU216      0.1693
     80  C         26.2840  -65.3660  -25.1000 C.2   216  LEU216      0.2591
     81  O         25.1790  -65.7200  -24.7150 O.2   216  LEU216     -0.2718
     82  CB        26.5380  -62.9330  -25.5230 C.3   216  LEU216      0.0284
     83  CG        25.0510  -62.6170  -25.4760 C.3   216  LEU216      0.0019
     84  CD1       24.6500  -62.2630  -24.0610 C.3   216  LEU216      0.0001
     85  CD2       24.7520  -61.4720  -26.4170 C.3   216  LEU216      0.0001
     86  N         26.9840  -66.0430  -25.9940 N.am  217  VAL217     -0.1980
     87  CA        26.5190  -67.3330  -26.4680 C.3   217  VAL217      0.1595
     88  C         27.4710  -68.4390  -26.0420 C.2   217  VAL217      0.2287
     89  O         28.6530  -68.3750  -26.3290 O.2   217  VAL217     -0.2864
     90  CB        26.3650  -67.3430  -28.0000 C.3   217  VAL217      0.0276
     91  CG1       27.7220  -67.3900  -28.6810 C.3   217  VAL217      0.0022
     92  CG2       25.4860  -68.5000  -28.4410 C.3   217  VAL217      0.0022
     93  N         20.7740  -70.9580  -25.2210 N.3   275  LEU275     -0.1231
     94  CA        22.0580  -70.7650  -25.8980 C.3   275  LEU275      0.1693
     95  C         22.6910  -69.4390  -25.4860 C.2   275  LEU275      0.2591
     96  O         23.9080  -69.2790  -25.5560 O.2   275  LEU275     -0.2718
     97  CB        21.8660  -70.7920  -27.4160 C.3   275  LEU275      0.0284
     98  CG        21.2930  -72.0970  -27.9810 C.3   275  LEU275      0.0019
     99  CD1       20.5780  -71.8480  -29.3030 C.3   275  LEU275      0.0001
    100  CD2       22.3840  -73.1490  -28.1290 C.3   275  LEU275      0.0001
    101  N         21.8490  -68.4990  -25.0590 N.am  276  ILE276     -0.1980
    102  CA        22.2830  -67.1760  -24.6210 C.3   276  ILE276      0.1595
    103  C         22.5400  -67.1960  -23.1050 C.2   276  ILE276      0.2287
    104  O         22.0180  -68.0630  -22.3980 O.2   276  ILE276     -0.2864
    105  CB        21.2190  -66.1100  -25.0070 C.3   276  ILE276      0.0276
    106  CG1       21.8770  -64.7750  -25.3750 C.3   276  ILE276      0.0022
    107  CG2       20.1580  -65.9410  -23.9210 C.3   276  ILE276      0.0022
    108  CD1       22.3660  -64.7280  -26.8060 C.3   276  ILE276      0.0001
@<TRIPOS>BOND
     1    15    14    2
     2    17    16    1
     3    13    12    1
     4    13    14    1
     5    13    16    1
     6    14    19   am
     7    16    18    1
     8    22    21    2
     9    21    20    1
    10    19    20    1
    11    20    23    1
    12    23    24    1
    13    26    24    1
    14    24    25    1
    15    47    48    1
    16    47    44    1
    17    43    44    1
    18    44    45    1
    19    45    46    2
    20    10     8   ar
    21    10    11   ar
    22     8     6   ar
    23    11     9   ar
    24    34    33    1
    25     4     3    2
    26     6     5    1
    27     6     7   ar
    28    61    58    1
    29     5     2    1
    30    56    54    1
    31     9     7   ar
    32     3     2    1
    33    33    32    1
    34    49    50    1
    35     2     1    1
    36    54    53    1
    37    57    58    1
    38    57    51   am
    39    58    59    1
    40    53    50    1
    41    53    55    1
    42    32    31    1
    43    50    51    1
    44    59    60    2
    45    51    52    2
    46    31    28    1
    47    30    29    2
    48    28    29    1
    49    28    27    1
    50    29    35   am
    51    76    75    1
    52    99    98    1
    53    42    40    1
    54    91    90    1
    55    41    40    1
    56    77    75    1
    57    92    90    1
    58    75    72    1
    59    35    36    1
    60   100    98    1
    61    90    87    1
    62    98    97    1
    63    40    39    1
    64    36    39    1
    65    36    37    1
    66    97    94    1
    67    37    38    2
    68    72    71    1
    69    72    73    1
    70    71    64   am
    71   108   106    1
    72    62    63    1
    73    66    67    1
    74    66    63    1
    75    87    88    1
    76    87    86    1
    77    85    83    1
    78    89    88    2
    79    67    68    1
    80    64    63    1
    81    64    65    2
    82    86    80   am
    83    94    95    1
    84    94    93    1
    85    73    74    2
    86    96    95    2
    87    82    83    1
    88    82    79    1
    89    95   101   am
    90    83    84    1
    91   106   105    1
    92    80    81    2
    93    80    79    1
    94   101   102    1
    95   105   102    1
    96   105   107    1
    97    68    70   ar
    98    68    69   ar
    99   102   103    1
   100    79    78    1
   101   103   104    2
