@<TRIPOS>MOLECULE
tmp/5mnvA01.pdb
 137 131 0 0 0
SMALL
GASTEIGER

@<TRIPOS>ATOM
      1  N         -5.6790    5.7930   13.4500 N.3    73  MET73      -0.1230
      2  CA        -4.3220    6.3150   13.2840 C.3    73  MET73       0.1702
      3  C         -4.2840    7.6600   12.5650 C.2    73  MET73       0.2592
      4  O         -3.2150    8.2410   12.4330 O.2    73  MET73      -0.2718
      5  CB        -3.4750    5.3260   12.4920 C.3    73  MET73       0.0401
      6  CG        -3.4790    3.9020   13.0180 C.3    73  MET73       0.0596
      7  SD        -2.8000    3.7160   14.6730 S.3    73  MET73      -0.1393
      8  CE        -1.1450    4.3730   14.4790 C.3    73  MET73       0.0692
      9  N         -5.4500    8.1210   12.1250 N.am   74  PHE74      -0.1976
     10  CA        -5.5980    9.3420   11.3510 C.3    74  PHE74       0.1639
     11  C         -6.7200   10.2430   11.8470 C.2    74  PHE74       0.2290
     12  O         -7.6630    9.7920   12.4680 O.2    74  PHE74      -0.2864
     13  CB        -5.8590    8.9970    9.9080 C.3    74  PHE74       0.0560
     14  CG        -7.0030    8.0710    9.7230 C.ar   74  PHE74      -0.0200
     15  CD1       -8.2770    8.5600    9.6100 C.ar   74  PHE74      -0.0042
     16  CD2       -6.8040    6.7200    9.6750 C.ar   74  PHE74      -0.0042
     17  CE1       -9.3370    7.7170    9.4500 C.ar   74  PHE74      -0.0003
     18  CE2       -7.8560    5.8690    9.5190 C.ar   74  PHE74      -0.0003
     19  CZ        -9.1240    6.3690    9.4050 C.ar   74  PHE74      -0.0000
     20  N        -13.0350    7.9710    9.1930 N.3    78  PRO78      -0.2116
     21  CA       -13.3090    7.4480    7.8470 C.3    78  PRO78       0.1372
     22  C        -14.8000    7.4230    7.5150 C.2    78  PRO78       0.2244
     23  O        -15.6060    7.1210    8.3950 O.2    78  PRO78      -0.2868
     24  CB       -12.7630    6.0200    7.9140 C.3    78  PRO78       0.0268
     25  CG       -12.8720    5.6490    9.3530 C.3    78  PRO78       0.0207
     26  CD       -12.6090    6.9120   10.1240 C.3    78  PRO78       0.0892
     27  N        -13.0200   -0.1540    2.5090 N.3    84  LEU84      -0.1245
     28  CA       -12.2550   -0.5940    3.6620 C.3    84  LEU84       0.1561
     29  C        -13.1450   -0.7220    4.8950 C.2    84  LEU84       0.2260
     30  O        -12.9930   -1.6610    5.6750 O.2    84  LEU84      -0.2867
     31  CB       -11.1110    0.3800    3.9370 C.3    84  LEU84       0.0270
     32  CG       -10.0320   -0.1140    4.8960 C.3    84  LEU84       0.0019
     33  CD1       -9.4040   -1.4180    4.4200 C.3    84  LEU84       0.0001
     34  CD2       -8.9690    0.9630    5.0490 C.3    84  LEU84       0.0001
     35  N         -2.0490   13.3290    0.8560 N.3   170  SER170     -0.1217
     36  CA        -1.9270   14.0480    2.1300 C.3   170  SER170      0.1889
     37  C         -1.4770   15.4930    1.9020 C.2   170  SER170      0.2288
     38  O         -2.0810   16.4290    2.4210 O.2   170  SER170     -0.2866
     39  CB        -0.9380   13.3320    3.0600 C.3   170  SER170      0.2089
     40  OG        -1.1980   11.9370    3.1320 O.3   170  SER170     -0.2183
     41  N         -7.4280    5.4590   -6.0950 N.3   233  ILE233     -0.1231
     42  CA        -6.8310    6.0930   -4.9310 C.3   233  ILE233      0.1692
     43  C         -6.0100    5.1020   -4.1180 C.2   233  ILE233      0.2591
     44  O         -4.8360    5.3400   -3.8190 O.2   233  ILE233     -0.2718
     45  CB        -7.9320    6.7170   -4.0530 C.3   233  ILE233      0.0266
     46  CG1       -8.5560    7.9140   -4.7840 C.3   233  ILE233      0.0019
     47  CG2       -7.3710    7.1550   -2.7080 C.3   233  ILE233      0.0020
     48  CD1       -9.8330    8.4310   -4.1620 C.3   233  ILE233      0.0001
     49  N         -6.6430    3.9810   -3.7870 N.am  234  ALA234     -0.1980
     50  CA        -6.0440    2.9280   -2.9700 C.3   234  ALA234      0.1597
     51  C         -4.7750    2.3220   -3.5480 C.2   234  ALA234      0.2287
     52  O         -4.0080    1.7110   -2.8170 O.2   234  ALA234     -0.2864
     53  CB        -7.0640    1.8350   -2.7260 C.3   234  ALA234      0.0319
     54  N         -0.8720    6.1690   -3.8140 N.3   237  GLU237     -0.1231
     55  CA         0.1540    6.5000   -2.8270 C.3   237  GLU237      0.1699
     56  C          0.9660    5.2510   -2.4590 C.2   237  GLU237      0.2592
     57  O          2.1990    5.2850   -2.4340 O.2   237  GLU237     -0.2718
     58  CB        -0.4840    7.1380   -1.5810 C.3   237  GLU237      0.0402
     59  CG         0.4860    7.9310   -0.7120 C.3   237  GLU237      0.1161
     60  CD        -0.1880    8.7970    0.3550 C.2   237  GLU237      0.3649
     61  OE1       -1.3880    9.1370    0.2130 O.co2 237  GLU237     -0.2457
     62  OE2        0.4970    9.1540    1.3460 O.co2 237  GLU237     -0.2457
     63  N          0.2790    4.1420   -2.2100 N.am  238  THR238     -0.1953
     64  CA         0.9670    2.9210   -1.7970 C.3   238  THR238      0.1897
     65  C          2.0220    2.5370   -2.8340 C.2   238  THR238      0.2313
     66  O          3.1510    2.2140   -2.4820 O.2   238  THR238     -0.2863
     67  CB        -0.0020    1.7340   -1.5510 C.3   238  THR238      0.1794
     68  OG1       -0.6490    1.3480   -2.7730 O.3   238  THR238     -0.2208
     69  CG2       -1.0470    2.0980   -0.5040 C.3   238  THR238      0.0378
     70  N          5.7130    0.3040    4.5710 N.3   280  LEU280     -0.1231
     71  CA         4.9890    1.2180    3.7130 C.3   280  LEU280      0.1693
     72  C          3.9140    1.9010    4.5170 C.2   280  LEU280      0.2591
     73  O          3.5010    2.9910    4.1920 O.2   280  LEU280     -0.2718
     74  CB         4.3460    0.4510    2.5680 C.3   280  LEU280      0.0284
     75  CG         3.5560    1.2890    1.5750 C.3   280  LEU280      0.0019
     76  CD1        4.4570    2.3160    0.9120 C.3   280  LEU280      0.0001
     77  CD2        2.9260    0.3800    0.5400 C.3   280  LEU280      0.0001
     78  N          3.4560    1.2260    5.5590 N.am  281  VAL281     -0.1980
     79  CA         2.5190    1.7800    6.5130 C.3   281  VAL281      0.1595
     80  C          3.3090    2.0110    7.8020 C.2   281  VAL281      0.2287
     81  O          3.7440    1.0530    8.4330 O.2   281  VAL281     -0.2864
     82  CB         1.3670    0.7790    6.7770 C.3   281  VAL281      0.0276
     83  CG1        0.1760    1.4890    7.4040 C.3   281  VAL281      0.0022
     84  CG2        0.9380    0.0810    5.4870 C.3   281  VAL281      0.0022
     85  N          2.6320    3.1680   10.9800 N.3   283  ALA283     -0.1231
     86  CA         1.9820    2.6090   12.1440 C.3   283  ALA283      0.1694
     87  C          0.6740    2.2850   11.5650 C.2   283  ALA283      0.2593
     88  O          0.1180    3.1130   10.8890 O.2   283  ALA283     -0.2718
     89  CB         1.8330    3.6460   13.2150 C.3   283  ALA283      0.0304
     90  N          0.1510    1.1070   11.8290 N.am  284  GLY284     -0.1942
     91  CA        -0.5860    0.4260   10.8100 C.3   284  GLY284      0.2014
     92  C         -2.0910    0.4220   10.7750 C.2   284  GLY284      0.2640
     93  O         -2.6880    1.1830   10.0480 O.2   284  GLY284     -0.2714
     94  N         -2.7300   -0.4310   11.5320 N.am  285  SER285     -0.1935
     95  CA        -4.0190   -0.9130   11.1110 C.3   285  SER285      0.2055
     96  C         -5.0850    0.1490   10.9260 C.2   285  SER285      0.2643
     97  O         -5.0770    1.1690   11.5620 O.2   285  SER285     -0.2714
     98  CB        -4.5030   -1.9940   12.0600 C.3   285  SER285      0.2130
     99  OG        -4.8960   -3.1210   11.3400 O.3   285  SER285     -0.2179
    100  N         -5.9630   -0.0790    9.9710 N.am  286  PHE286     -0.1973
    101  CA        -7.3050    0.4420   10.0370 C.3   286  PHE286      0.1639
    102  C         -7.9140   -0.3230   11.1860 C.2   286  PHE286      0.2290
    103  O         -7.7210   -1.5380   11.2750 O.2   286  PHE286     -0.2864
    104  CB        -8.0390    0.0950    8.7600 C.3   286  PHE286      0.0560
    105  CG        -9.3920    0.7200    8.6440 C.ar  286  PHE286     -0.0200
    106  CD1       -9.5360    1.9580    8.0570 C.ar  286  PHE286     -0.0042
    107  CD2      -10.5250    0.0560    9.0950 C.ar  286  PHE286     -0.0042
    108  CE1      -10.7840    2.5290    7.9200 C.ar  286  PHE286     -0.0003
    109  CE2      -11.7780    0.6220    8.9660 C.ar  286  PHE286     -0.0003
    110  CZ       -11.9060    1.8620    8.3770 C.ar  286  PHE286     -0.0000
    111  N          1.3730   -4.2980   10.2630 N.3   311  PHE311     -0.1241
    112  CA         1.6450   -5.2650    9.2020 C.3   311  PHE311      0.1605
    113  C          3.1250   -5.6330    9.2320 C.2   311  PHE311      0.2264
    114  O          3.4890   -6.7810    9.4520 O.2   311  PHE311     -0.2867
    115  CB         1.2780   -4.7070    7.8330 C.3   311  PHE311      0.0534
    116  CG        -0.1560   -4.2970    7.6980 C.ar  311  PHE311     -0.0203
    117  CD1       -1.1520   -5.2460    7.5140 C.ar  311  PHE311     -0.0042
    118  CD2       -0.5130   -2.9530    7.7120 C.ar  311  PHE311     -0.0042
    119  CE1       -2.4810   -4.8730    7.3710 C.ar  311  PHE311     -0.0003
    120  CE2       -1.8410   -2.5670    7.5730 C.ar  311  PHE311     -0.0003
    121  CZ        -2.8260   -3.5300    7.4030 C.ar  311  PHE311     -0.0000
    122  N          1.4550    8.9230    6.8520 N.3   386  LEU386     -0.1231
    123  CA         0.7350    7.6940    7.1790 C.3   386  LEU386      0.1693
    124  C          1.3180    6.5030    6.4220 C.2   386  LEU386      0.2591
    125  O          1.3100    5.3720    6.9110 O.2   386  LEU386     -0.2718
    126  CB        -0.7210    7.8810    6.7770 C.3   386  LEU386      0.0284
    127  CG        -1.8050    7.2080    7.5970 C.3   386  LEU386      0.0019
    128  CD1       -1.7220    7.6080    9.0590 C.3   386  LEU386      0.0001
    129  CD2       -3.1400    7.6190    7.0000 C.3   386  LEU386      0.0001
    130  N          1.7800    6.7940    5.2050 N.am  387  ILE387     -0.1980
    131  CA         2.4560    5.8600    4.3130 C.3   387  ILE387      0.1595
    132  C          3.8780    6.3710    4.0990 C.2   387  ILE387      0.2287
    133  O          4.0760    7.5240    3.6980 O.2   387  ILE387     -0.2864
    134  CB         1.7350    5.7970    2.9560 C.3   387  ILE387      0.0276
    135  CG1        0.3690    5.1520    3.1330 C.3   387  ILE387      0.0022
    136  CG2        2.5440    5.0320    1.9210 C.3   387  ILE387      0.0022
    137  CD1       -0.5280    5.2840    1.9230 C.3   387  ILE387      0.0001
@<TRIPOS>BOND
     1    41    42    1
     2    42    43    1
     3    42    45    1
     4    46    48    1
     5    46    45    1
     6    43    44    2
     7    43    49   am
     8    45    47    1
     9    54    55    1
    10    49    50    1
    11    51    50    1
    12    51    52    2
    13    50    53    1
    14    65    66    2
    15    65    64    1
    16    55    56    1
    17    55    58    1
    18    68    67    1
    19    56    57    2
    20    56    63   am
    21    63    64    1
    22    64    67    1
    23    58    59    1
    24    67    69    1
    25    59    60    1
    26    61    60   ar
    27    60    62   ar
    28    77    75    1
    29    35    36    1
    30    76    75    1
    31    75    74    1
    32    37    36    1
    33    37    38    2
    34   136   134    1
    35   137   135    1
    36    36    39    1
    37    27    28    1
    38    74    71    1
    39   134   135    1
    40   134   131    1
    41    39    40    1
    42    28    31    1
    43    28    29    1
    44   133   132    2
    45    71    72    1
    46    71    70    1
    47    31    32    1
    48   132   131    1
    49    73    72    2
    50   131   130    1
    51    33    32    1
    52    72    78   am
    53    29    30    2
    54    32    34    1
    55   130   124   am
    56    84    82    1
    57    78    79    1
    58   124   125    2
    59   124   123    1
    60    79    82    1
    61    79    80    1
    62   126   123    1
    63   126   127    1
    64    82    83    1
    65   122   123    1
    66   129   127    1
    67   119   121   ar
    68   119   117   ar
    69   121   120   ar
    70   117   116   ar
    71    22    21    1
    72    22    23    2
    73   120   118   ar
    74   127   128    1
    75   116   118   ar
    76   116   115    1
    77    80    81    2
    78   115   112    1
    79    21    24    1
    80    21    20    1
    81    24    25    1
    82   108   106   ar
    83   108   110   ar
    84   106   105   ar
    85   110   109   ar
    86   105   104    1
    87   105   107   ar
    88   104   101    1
    89   109   107   ar
    90    20    26    1
    91   112   113    1
    92   112   111    1
    93   113   114    2
    94    25    26    1
    95    19    17   ar
    96    19    18   ar
    97    17    15   ar
    98    18    16   ar
    99    15    14   ar
   100    16    14   ar
   101    14    13    1
   102    13    10    1
   103   100   101    1
   104   100    96   am
   105   101   102    1
   106    93    92    2
   107    92    91    1
   108    92    94   am
   109    91    90    1
   110    88    87    2
   111    96    95    1
   112    96    97    2
   113    85    86    1
   114    95    94    1
   115    95    98    1
   116   102   103    2
   117    99    98    1
   118    10    11    1
   119    10     9    1
   120    87    90   am
   121    87    86    1
   122    11    12    2
   123     9     3   am
   124    86    89    1
   125     4     3    2
   126     5     6    1
   127     5     2    1
   128     3     2    1
   129     6     7    1
   130     2     1    1
   131     8     7    1
