@<TRIPOS>MOLECULE
tmp/5mnvI00.pdb
 225 212 0 0 0
SMALL
GASTEIGER

@<TRIPOS>ATOM
      1  N         33.6930  -68.0650  -41.5320 N.3    24  LEU24      -0.1245
      2  CA        32.7970  -66.9290  -41.8040 C.3    24  LEU24       0.1561
      3  C         33.0620  -66.2630  -43.1680 C.2    24  LEU24       0.2260
      4  O         32.1980  -65.5450  -43.6850 O.2    24  LEU24      -0.2867
      5  CB        32.8830  -65.8820  -40.6770 C.3    24  LEU24       0.0270
      6  CG        32.4410  -66.2840  -39.2590 C.3    24  LEU24       0.0019
      7  CD1       32.6530  -65.1230  -38.2970 C.3    24  LEU24       0.0001
      8  CD2       30.9910  -66.7520  -39.2160 C.3    24  LEU24       0.0001
      9  N         17.9900  -66.0240  -42.5510 N.3    32  VAL32      -0.1231
     10  CA        19.2650  -65.3110  -42.6540 C.3    32  VAL32       0.1692
     11  C         20.4530  -66.1770  -42.2020 C.2    32  VAL32       0.2591
     12  O         21.4570  -66.2790  -42.9100 O.2    32  VAL32      -0.2718
     13  CB        19.2340  -63.9660  -41.8790 C.3    32  VAL32       0.0266
     14  CG1       18.8590  -62.8190  -42.8060 C.3    32  VAL32       0.0020
     15  CG2       18.2800  -64.0230  -40.6890 C.3    32  VAL32       0.0020
     16  N         20.3330  -66.7990  -41.0320 N.am   33  LEU33      -0.1980
     17  CA        21.3320  -67.7610  -40.5580 C.3    33  LEU33       0.1596
     18  C         21.1010  -69.1390  -41.1790 C.2    33  LEU33       0.2287
     19  O         22.0400  -69.9180  -41.3470 O.2    33  LEU33      -0.2864
     20  CB        21.2930  -67.8720  -39.0340 C.3    33  LEU33       0.0297
     21  CG        21.6280  -66.5930  -38.2720 C.3    33  LEU33       0.0022
     22  CD1       21.3220  -66.7770  -36.7970 C.3    33  LEU33       0.0001
     23  CD2       23.0830  -66.2010  -38.4690 C.3    33  LEU33       0.0001
     24  N         20.2970  -63.7940  -49.1200 N.3    40  HIS40      -0.1241
     25  CA        20.7260  -63.2510  -47.8310 C.3    40  HIS40       0.1621
     26  C         21.0420  -61.7520  -47.8970 C.2    40  HIS40       0.2264
     27  O         20.7080  -61.0010  -46.9780 O.2    40  HIS40      -0.2867
     28  CB        21.9670  -64.0280  -47.3620 C.3    40  HIS40       0.0745
     29  CG        22.6060  -63.4840  -46.1220 C.ar   40  HIS40       0.0817
     30  ND1       23.5960  -62.5250  -46.1550 N.ar   40  HIS40      -0.2268
     31  CD2       22.4170  -63.7850  -44.8160 C.ar   40  HIS40       0.1154
     32  CE1       23.9780  -62.2480  -44.9210 C.ar   40  HIS40       0.1986
     33  NE2       23.2780  -62.9990  -44.0900 N.ar   40  HIS40      -0.2212
     34  N         18.8750  -58.6620  -46.2160 N.3    44  ARG44      -0.1245
     35  CA        19.5010  -57.6870  -45.3260 C.3    44  ARG44       0.1563
     36  C         19.1950  -56.2380  -45.7150 C.2    44  ARG44       0.2260
     37  O         19.3560  -55.3340  -44.8990 O.2    44  ARG44      -0.2867
     38  CB        21.0180  -57.8850  -45.3140 C.3    44  ARG44       0.0307
     39  CG        21.4950  -59.0800  -44.5040 C.3    44  ARG44       0.0489
     40  CD        21.4920  -58.7930  -43.0090 C.3    44  ARG44       0.2205
     41  NE        22.7400  -59.2050  -42.3620 N.pl3  44  ARG44      -0.0865
     42  CZ        23.8530  -58.4690  -42.2850 C.cat  44  ARG44       0.5346
     43  NH1       23.9190  -57.2510  -42.8190 N.pl3  44  ARG44       0.1354
     44  NH2       24.9180  -58.9570  -41.6610 N.pl3  44  ARG44       0.1354
     45  N         19.5750  -49.5550  -40.3030 N.3    51  PHE51      -0.1241
     46  CA        20.6940  -49.8650  -39.3880 C.3    51  PHE51       0.1605
     47  C         22.0680  -49.3410  -39.8420 C.2    51  PHE51       0.2264
     48  O         23.0870  -50.0150  -39.6580 O.2    51  PHE51      -0.2867
     49  CB        20.7780  -51.3810  -39.1540 C.3    51  PHE51       0.0534
     50  CG        19.7480  -51.9040  -38.2010 C.ar   51  PHE51      -0.0203
     51  CD1       18.4520  -52.1510  -38.6250 C.ar   51  PHE51      -0.0042
     52  CD2       20.0730  -52.1520  -36.8770 C.ar   51  PHE51      -0.0042
     53  CE1       17.4970  -52.6390  -37.7470 C.ar   51  PHE51      -0.0003
     54  CE2       19.1240  -52.6400  -35.9940 C.ar   51  PHE51      -0.0003
     55  CZ        17.8330  -52.8840  -36.4280 C.ar   51  PHE51      -0.0000
     56  N         12.7970  -51.7540  -29.9040 N.3    96  ILE96      -0.1245
     57  CA        12.4020  -52.6370  -31.0180 C.3    96  ILE96       0.1561
     58  C         10.8950  -52.6620  -31.2550 C.2    96  ILE96       0.2260
     59  O         10.4510  -52.9670  -32.3590 O.2    96  ILE96      -0.2867
     60  CB        12.8950  -54.0960  -30.8470 C.3    96  ILE96       0.0252
     61  CG1       12.4850  -54.6680  -29.4830 C.3    96  ILE96       0.0019
     62  CG2       14.4020  -54.1650  -31.0280 C.3    96  ILE96       0.0019
     63  CD1       11.9970  -56.0950  -29.5370 C.3    96  ILE96       0.0001
     64  N         10.7110  -49.3190  -33.0700 N.3    99  LEU99      -0.1245
     65  CA        11.5040  -49.4950  -34.2950 C.3    99  LEU99       0.1561
     66  C         10.7230  -50.3270  -35.3190 C.2    99  LEU99       0.2260
     67  O         10.5290  -49.8920  -36.4570 O.2    99  LEU99      -0.2867
     68  CB        12.8440  -50.1870  -33.9760 C.3    99  LEU99       0.0270
     69  CG        14.0670  -50.0560  -34.9020 C.3    99  LEU99       0.0019
     70  CD1       14.9280  -51.3120  -34.8080 C.3    99  LEU99       0.0001
     71  CD2       13.7030  -49.7840  -36.3520 C.3    99  LEU99       0.0001
     72  N         12.1030  -62.5680  -41.4540 N.3   167  MET167     -0.1245
     73  CA        13.2760  -61.8120  -41.0090 C.3   167  MET167      0.1570
     74  C         12.8630  -60.8260  -39.9150 C.2   167  MET167      0.2261
     75  O         13.6540  -60.5150  -39.0250 O.2   167  MET167     -0.2867
     76  CB        13.9650  -61.0720  -42.1600 C.3   167  MET167      0.0387
     77  CG        15.4360  -60.7810  -41.8740 C.3   167  MET167      0.0595
     78  SD        16.0680  -59.2520  -42.5950 S.3   167  MET167     -0.1393
     79  CE        17.6680  -59.1330  -41.7950 C.3   167  MET167      0.0692
     80  N         13.2950  -62.7990  -36.7540 N.3   170  SER170     -0.1202
     81  CA        14.7060  -62.7960  -36.3660 C.3   170  SER170      0.2020
     82  C         15.1710  -61.4090  -35.9040 C.2   170  SER170      0.2618
     83  O         16.0850  -61.3000  -35.0870 O.2   170  SER170     -0.2717
     84  CB        15.5700  -63.2870  -37.5340 C.3   170  SER170      0.2103
     85  OG        16.9360  -63.3630  -37.1720 O.3   170  SER170     -0.2182
     86  N         14.5400  -60.3600  -36.4310 N.am  171  LEU171     -0.1979
     87  CA        14.8040  -58.9820  -35.9980 C.3   171  LEU171      0.1596
     88  C         14.2200  -58.6760  -34.6170 C.2   171  LEU171      0.2287
     89  O         14.8250  -57.9390  -33.8360 O.2   171  LEU171     -0.2864
     90  CB        14.2640  -57.9700  -37.0270 C.3   171  LEU171      0.0297
     91  CG        15.2490  -57.3010  -38.0010 C.3   171  LEU171      0.0022
     92  CD1       15.9070  -56.0910  -37.3500 C.3   171  LEU171      0.0001
     93  CD2       16.3080  -58.2610  -38.5310 C.3   171  LEU171      0.0001
     94  N         16.1160  -61.1850  -31.7470 N.3   174  ALA174     -0.1231
     95  CA        17.5100  -60.7840  -31.5630 C.3   174  ALA174      0.1694
     96  C         17.6430  -59.4080  -30.9160 C.2   174  ALA174      0.2592
     97  O         18.6400  -59.1230  -30.2550 O.2   174  ALA174     -0.2718
     98  CB        18.2340  -60.7940  -32.8990 C.3   174  ALA174      0.0304
     99  N         16.6390  -58.5590  -31.1180 N.am  175  GLY175     -0.1957
    100  CA        16.6720  -57.1820  -30.6370 C.3   175  GLY175      0.1869
    101  C         16.7550  -57.0100  -29.1310 C.2   175  GLY175      0.2309
    102  O         17.3730  -56.0570  -28.6500 O.2   175  GLY175     -0.2863
    103  N         19.2590  -60.5150  -26.9050 N.3   178  THR178     -0.1203
    104  CA        20.6790  -60.2020  -26.9130 C.3   178  THR178      0.1994
    105  C         20.9710  -59.1170  -25.8830 C.2   178  THR178      0.2618
    106  O         21.7190  -59.3410  -24.9340 O.2   178  THR178     -0.2717
    107  CB        21.1430  -59.7170  -28.3030 C.3   178  THR178      0.1784
    108  OG1       20.4070  -60.3980  -29.3240 O.3   178  THR178     -0.2211
    109  CG2       22.6070  -59.9970  -28.4940 C.3   178  THR178      0.0376
    110  N         20.3520  -57.9520  -26.0660 N.am  179  SER179     -0.1951
    111  CA        20.6540  -56.7650  -25.2610 C.3   179  SER179      0.1924
    112  C         20.0210  -56.7700  -23.8530 C.2   179  SER179      0.2314
    113  O         20.4860  -56.0470  -22.9710 O.2   179  SER179     -0.2863
    114  CB        20.2410  -55.5040  -26.0300 C.3   179  SER179      0.2116
    115  OG        20.7010  -54.3310  -25.3820 O.3   179  SER179     -0.2180
    116  N         22.6700  -58.9630  -22.1820 N.3   182  GLN182     -0.1245
    117  CA        24.0040  -58.3700  -22.2510 C.3   182  GLN182      0.1566
    118  C         24.1720  -57.2330  -21.2420 C.2   182  GLN182      0.2260
    119  O         25.2660  -57.0320  -20.7210 O.2   182  GLN182     -0.2867
    120  CB        24.3060  -57.8880  -23.6760 C.3   182  GLN182      0.0367
    121  CG        25.7750  -57.6030  -23.9640 C.3   182  GLN182      0.0905
    122  CD        26.6270  -58.8560  -24.1210 C.2   182  GLN182      0.2608
    123  OE1       26.6090  -59.7530  -23.2740 O.2   182  GLN182     -0.2717
    124  NE2       27.3930  -58.9160  -25.2090 N.am  182  GLN182     -0.0878
    125  N         32.5350  -56.6920  -24.5560 N.3   211  LEU211     -0.1245
    126  CA        31.7780  -57.5960  -25.3910 C.3   211  LEU211      0.1561
    127  C         32.6290  -58.8060  -25.6640 C.2   211  LEU211      0.2260
    128  O         32.1590  -59.9370  -25.5940 O.2   211  LEU211     -0.2867
    129  CB        31.4530  -56.9200  -26.7100 C.3   211  LEU211      0.0270
    130  CG        30.3480  -55.8820  -26.6530 C.3   211  LEU211      0.0019
    131  CD1       30.6880  -54.7210  -27.5670 C.3   211  LEU211      0.0001
    132  CD2       29.0480  -56.5350  -27.0750 C.3   211  LEU211      0.0001
    133  N         28.3390  -64.2360  -24.4700 N.3   216  LEU216     -0.1231
    134  CA        26.9020  -64.0850  -24.6030 C.3   216  LEU216      0.1693
    135  C         26.2840  -65.3660  -25.1000 C.2   216  LEU216      0.2591
    136  O         25.1790  -65.7200  -24.7150 O.2   216  LEU216     -0.2718
    137  CB        26.5380  -62.9330  -25.5230 C.3   216  LEU216      0.0284
    138  CG        25.0510  -62.6170  -25.4760 C.3   216  LEU216      0.0019
    139  CD1       24.6500  -62.2630  -24.0610 C.3   216  LEU216      0.0001
    140  CD2       24.7520  -61.4720  -26.4170 C.3   216  LEU216      0.0001
    141  N         26.9840  -66.0430  -25.9940 N.am  217  VAL217     -0.1980
    142  CA        26.5190  -67.3330  -26.4680 C.3   217  VAL217      0.1595
    143  C         27.4710  -68.4390  -26.0420 C.2   217  VAL217      0.2287
    144  O         28.6530  -68.3750  -26.3290 O.2   217  VAL217     -0.2864
    145  CB        26.3650  -67.3430  -28.0000 C.3   217  VAL217      0.0276
    146  CG1       27.7220  -67.3900  -28.6810 C.3   217  VAL217      0.0022
    147  CG2       25.4860  -68.5000  -28.4410 C.3   217  VAL217      0.0022
    148  N         27.7750  -63.1380  -42.0650 N.3   233  HIS233     -0.1226
    149  CA        26.7470  -63.2040  -41.0130 C.3   233  HIS233      0.1752
    150  C         27.0870  -62.3070  -39.8150 C.2   233  HIS233      0.2596
    151  O         27.0520  -62.7610  -38.6700 O.2   233  HIS233     -0.2718
    152  CB        26.5670  -64.6460  -40.5140 C.3   233  HIS233      0.0759
    153  CG        26.1000  -65.6050  -41.5640 C.ar  233  HIS233      0.0818
    154  ND1       24.7980  -65.6400  -42.0170 N.ar  233  HIS233     -0.2268
    155  CD2       26.7560  -66.5840  -42.2300 C.ar  233  HIS233      0.1154
    156  CE1       24.6760  -66.5890  -42.9280 C.ar  233  HIS233      0.1986
    157  NE2       25.8490  -67.1770  -43.0760 N.ar  233  HIS233     -0.2212
    158  N         27.4120  -61.0420  -40.0760 N.am  234  HIS234     -0.1961
    159  CA        27.7450  -60.0910  -39.0110 C.3   234  HIS234      0.1787
    160  C         26.4670  -59.4860  -38.4310 C.2   234  HIS234      0.2620
    161  O         25.4280  -59.4400  -39.0960 O.2   234  HIS234     -0.2715
    162  CB        28.6720  -58.9870  -39.5380 C.3   234  HIS234      0.0785
    163  CG        29.2350  -58.1010  -38.4670 C.ar  234  HIS234      0.0821
    164  ND1       29.1190  -56.7270  -38.5000 N.ar  234  HIS234     -0.2267
    165  CD2       29.9120  -58.3930  -37.3320 C.ar  234  HIS234      0.1154
    166  CE1       29.7070  -56.2120  -37.4360 C.ar  234  HIS234      0.1986
    167  NE2       30.1940  -57.2010  -36.7090 N.ar  234  HIS234     -0.2212
    168  N         26.5520  -59.0350  -37.1830 N.am  235  CYS235     -0.1954
    169  CA        25.4290  -58.4110  -36.4960 C.3   235  CYS235      0.1843
    170  C         24.8110  -57.2860  -37.3290 C.2   235  CYS235      0.2625
    171  O         25.5180  -56.5200  -37.9840 O.2   235  CYS235     -0.2714
    172  CB        25.8910  -57.8710  -35.1370 C.3   235  CYS235      0.0997
    173  SG        24.6290  -57.0090  -34.1690 S.3   235  CYS235     -0.0797
    174  N         23.4850  -57.2110  -37.2990 N.am  236  ILE236     -0.1963
    175  CA        22.7410  -56.1240  -37.9410 C.3   236  ILE236      0.1727
    176  C         22.7750  -54.9120  -37.0170 C.2   236  ILE236      0.2616
    177  O         22.7900  -53.7640  -37.4730 O.2   236  ILE236     -0.2715
    178  CB        21.2500  -56.4770  -38.1810 C.3   236  ILE236      0.0290
    179  CG1       21.0660  -57.9610  -38.4840 C.3   236  ILE236      0.0022
    180  CG2       20.6680  -55.6380  -39.3130 C.3   236  ILE236      0.0023
    181  CD1       22.0340  -58.5030  -39.5070 C.3   236  ILE236      0.0001
    182  N         22.7900  -55.1970  -35.7180 N.am  237  GLY237     -0.1955
    183  CA        22.6400  -54.1930  -34.6860 C.3   237  GLY237      0.1869
    184  C         23.7130  -53.1350  -34.6290 C.2   237  GLY237      0.2309
    185  O         23.4000  -51.9560  -34.5020 O.2   237  GLY237     -0.2863
    186  N         23.3080  -50.0130  -32.7470 N.3   240  LEU240     -0.1231
    187  CA        22.1290  -50.1990  -31.8970 C.3   240  LEU240      0.1693
    188  C         22.4960  -50.9620  -30.6170 C.2   240  LEU240      0.2593
    189  O         22.2460  -50.4830  -29.5090 O.2   240  LEU240     -0.2718
    190  CB        21.0140  -50.9350  -32.6520 C.3   240  LEU240      0.0284
    191  CG        19.6230  -50.8440  -32.0080 C.3   240  LEU240      0.0019
    192  CD1       18.9480  -49.5300  -32.3720 C.3   240  LEU240      0.0001
    193  CD2       18.7370  -52.0150  -32.4040 C.3   240  LEU240      0.0001
    194  N         23.1050  -52.1360  -30.7840 N.am  241  GLY241     -0.1942
    195  CA        23.5180  -52.9790  -29.6580 C.3   241  GLY241      0.2014
    196  C         24.6010  -52.3750  -28.7790 C.2   241  GLY241      0.2638
    197  O         24.7000  -52.7180  -27.6050 O.2   241  GLY241     -0.2714
    198  N         25.4180  -51.4870  -29.3490 N.am  242  ARG242     -0.1977
    199  CA        26.4480  -50.7560  -28.5910 C.3   242  ARG242      0.1597
    200  C         25.9070  -49.4620  -27.9610 C.2   242  ARG242      0.2287
    201  O         26.3100  -49.1030  -26.8530 O.2   242  ARG242     -0.2864
    202  CB        27.6670  -50.4310  -29.4750 C.3   242  ARG242      0.0334
    203  CG        28.8030  -51.4510  -29.3990 C.3   242  ARG242      0.0492
    204  CD        28.7070  -52.5700  -30.4330 C.3   242  ARG242      0.2205
    205  NE        29.8510  -52.5800  -31.3490 N.pl3 242  ARG242     -0.0865
    206  CZ        30.0320  -51.7460  -32.3730 C.cat 242  ARG242      0.5346
    207  NH1       29.1480  -50.7970  -32.6570 N.pl3 242  ARG242      0.1354
    208  NH2       31.1180  -51.8610  -33.1250 N.pl3 242  ARG242      0.1354
    209  N         22.8510  -48.9640  -26.9320 N.3   244  GLU244     -0.1231
    210  CA        22.0610  -49.4160  -25.7890 C.3   244  GLU244      0.1699
    211  C         22.9270  -49.7660  -24.5760 C.2   244  GLU244      0.2592
    212  O         22.5760  -49.4320  -23.4420 O.2   244  GLU244     -0.2718
    213  CB        21.2140  -50.6270  -26.1810 C.3   244  GLU244      0.0402
    214  CG        20.0860  -50.2950  -27.1380 C.3   244  GLU244      0.1161
    215  CD        19.3960  -51.5260  -27.6830 C.2   244  GLU244      0.3649
    216  OE1       18.5630  -51.3680  -28.5970 O.co2 244  GLU244     -0.2457
    217  OE2       19.6820  -52.6480  -27.2060 O.co2 244  GLU244     -0.2457
    218  N         24.0510  -50.4380  -24.8150 N.am  245  LEU245     -0.1980
    219  CA        24.9460  -50.8360  -23.7310 C.3   245  LEU245      0.1596
    220  C         25.7780  -49.6860  -23.1720 C.2   245  LEU245      0.2287
    221  O         26.2260  -49.7550  -22.0330 O.2   245  LEU245     -0.2864
    222  CB        25.8810  -51.9560  -24.1840 C.3   245  LEU245      0.0297
    223  CG        25.2500  -53.3020  -24.5420 C.3   245  LEU245      0.0022
    224  CD1       26.3640  -54.2970  -24.8170 C.3   245  LEU245      0.0001
    225  CD2       24.3200  -53.8210  -23.4550 C.3   245  LEU245      0.0001
@<TRIPOS>BOND
     1    24    25    1
     2    26    25    1
     3    26    27    2
     4    25    28    1
     5    28    29    1
     6    34    35    1
     7    30    29   ar
     8    30    32   ar
     9    29    31   ar
    10    36    35    1
    11    36    37    2
    12    35    38    1
    13    38    39    1
    14    32    33   ar
    15    31    33   ar
    16    39    40    1
    17     4     3    2
    18     3     2    1
    19   157   156   ar
    20   157   155   ar
    21    40    41    1
    22   156   154   ar
    23    12    11    2
    24    43    42    1
    25    14    13    1
    26    10     9    1
    27    10    11    1
    28    10    13    1
    29    78    77    1
    30    78    79    1
    31    41    42    2
    32    42    44    1
    33   155   153   ar
    34    11    16   am
    35    76    77    1
    36    76    73    1
    37   148   149    1
    38   154   153   ar
    39    13    15    1
    40     2     1    1
    41     2     5    1
    42   153   152    1
    43    72    73    1
    44    19    18    2
    45    18    17    1
    46    16    17    1
    47   149   152    1
    48   149   150    1
    49    73    74    1
    50     5     6    1
    51    17    20    1
    52    45    46    1
    53   158   150   am
    54   158   159    1
    55    74    75    2
    56    47    48    2
    57    47    46    1
    58   150   151    2
    59   162   159    1
    60   162   163    1
    61   181   179    1
    62    46    49    1
    63   180   178    1
    64     6     8    1
    65     6     7    1
    66    49    50    1
    67   161   160    2
    68    20    21    1
    69   159   160    1
    70    51    50   ar
    71    51    53   ar
    72    93    91    1
    73   164   163   ar
    74   164   166   ar
    75   179   178    1
    76    23    21    1
    77   163   165   ar
    78   160   168   am
    79    21    22    1
    80    50    52   ar
    81   178   175    1
    82    91    92    1
    83    91    90    1
    84   171   170    2
    85   175   174    1
    86   175   176    1
    87    53    55   ar
    88    84    85    1
    89    84    81    1
    90   177   176    2
    91   166   167   ar
    92   165   167   ar
    93   170   174   am
    94   170   169    1
    95   168   169    1
    96    90    87    1
    97   176   182   am
    98    52    54   ar
    99    80    81    1
   100   169   172    1
   101    67    66    2
   102    86    87    1
   103    86    82   am
   104    55    54   ar
   105    81    82    1
   106    71    69    1
   107    87    88    1
   108    82    83    2
   109   182   183    1
   110    66    65    1
   111   172   173    1
   112    69    70    1
   113    69    68    1
   114   183   184    1
   115   184   185    2
   116    88    89    2
   117    65    68    1
   118    65    64    1
   119   208   206    1
   120    98    95    1
   121   186   187    1
   122   207   206    1
   123   190   191    1
   124   190   187    1
   125   193   191    1
   126   206   205    2
   127   192   191    1
   128    59    58    2
   129   187   188    1
   130    94    95    1
   131    95    96    1
   132   205   204    1
   133    58    57    1
   134    99    96   am
   135    99   100    1
   136    62    60    1
   137    57    60    1
   138    57    56    1
   139    96    97    2
   140    60    61    1
   141   194   188   am
   142   194   195    1
   143   100   101    1
   144   188   189    2
   145   204   203    1
   146   195   196    1
   147    63    61    1
   148   202   203    1
   149   202   199    1
   150   198   196   am
   151   198   199    1
   152   108   107    1
   153   101   102    2
   154   196   197    2
   155   146   145    1
   156   216   215   ar
   157   199   200    1
   158   109   107    1
   159   147   145    1
   160   107   104    1
   161   145   142    1
   162   200   201    2
   163   215   217   ar
   164   215   214    1
   165   131   130    1
   166   214   213    1
   167   132   130    1
   168   209   210    1
   169   104   103    1
   170   104   105    1
   171   129   130    1
   172   129   126    1
   173   142   143    1
   174   142   141    1
   175   140   138    1
   176   144   143    2
   177   213   210    1
   178   110   105   am
   179   110   111    1
   180   114   115    1
   181   114   111    1
   182   141   135   am
   183   105   106    2
   184   210   211    1
   185   127   128    2
   186   127   126    1
   187   137   138    1
   188   137   134    1
   189   138   139    1
   190   126   125    1
   191   111   112    1
   192   124   122   am
   193   135   136    2
   194   135   134    1
   195   224   223    1
   196   218   211   am
   197   218   219    1
   198   134   133    1
   199   211   212    2
   200   223   222    1
   201   223   225    1
   202   222   219    1
   203   122   121    1
   204   122   123    2
   205   121   120    1
   206   112   113    2
   207   219   220    1
   208   120   117    1
   209   220   221    2
   210   117   116    1
   211   117   118    1
   212   118   119    2
