@<TRIPOS>MOLECULE
tmp/5mnwA00.pdb
 236 230 0 0 0
SMALL
GASTEIGER

@<TRIPOS>ATOM
      1  N         -5.4620   10.3950    5.4670 N.3     1  MET1       -0.1230
      2  CA        -3.9850   10.4260    5.3580 C.3     1  MET1        0.1702
      3  C         -3.3690   11.0630    6.5970 C.2     1  MET1        0.2592
      4  O         -3.5570   12.2530    6.8490 O.2     1  MET1       -0.2718
      5  CB        -3.5600   11.2050    4.1100 C.3     1  MET1        0.0401
      6  CG        -3.9450   10.5270    2.8050 C.3     1  MET1        0.0596
      7  SD        -3.0010    9.0230    2.4890 S.3     1  MET1       -0.1393
      8  CE        -1.3780    9.7010    2.1460 C.3     1  MET1        0.0692
      9  N         -2.6450   10.2670    7.3790 N.am    2  TYR2       -0.1976
     10  CA        -1.9800   10.7720    8.5760 C.3     2  TYR2        0.1639
     11  C         -0.9290   11.8170    8.2170 C.2     2  TYR2        0.2290
     12  O         -0.3150   11.7660    7.1490 O.2     2  TYR2       -0.2864
     13  CB        -1.3480    9.6270    9.3700 C.3     2  TYR2        0.0560
     14  CG        -2.3230    8.9380   10.2980 C.ar    2  TYR2       -0.0198
     15  CD1       -2.2000    9.0550   11.6760 C.ar    2  TYR2       -0.0009
     16  CD2       -3.3740    8.1830    9.7960 C.ar    2  TYR2       -0.0009
     17  CE1       -3.0990    8.4400   12.5270 C.ar    2  TYR2        0.0417
     18  CE2       -4.2740    7.5630   10.6400 C.ar    2  TYR2        0.0417
     19  CZ        -4.1310    7.6940   12.0020 C.ar    2  TYR2        0.1957
     20  OH        -5.0290    7.0830   12.8430 O.3     2  TYR2       -0.2866
     21  N          2.0020   12.4780    8.9210 N.3     4  PHE4       -0.1227
     22  CA         3.3960   12.1240    8.6710 C.3     4  PHE4        0.1736
     23  C          3.6630   12.0630    7.1700 C.2     4  PHE4        0.2595
     24  O          4.4690   12.8260    6.6430 O.2     4  PHE4       -0.2718
     25  CB         3.7390   10.7810    9.3260 C.3     4  PHE4        0.0547
     26  CG         5.2130   10.4770    9.3550 C.ar    4  PHE4       -0.0202
     27  CD1        5.9720   10.7800   10.4740 C.ar    4  PHE4       -0.0042
     28  CD2        5.8410    9.8860    8.2680 C.ar    4  PHE4       -0.0042
     29  CE1        7.3240   10.5000   10.5090 C.ar    4  PHE4       -0.0003
     30  CE2        7.1940    9.6060    8.2970 C.ar    4  PHE4       -0.0003
     31  CZ         7.9360    9.9120    9.4200 C.ar    4  PHE4       -0.0000
     32  N          2.9520   11.1760    6.4810 N.am    5  VAL5       -0.1980
     33  CA         3.1220   11.0160    5.0410 C.3     5  VAL5        0.1595
     34  C          2.5810   12.2290    4.2890 C.2     5  VAL5        0.2287
     35  O          3.0250   12.5330    3.1860 O.2     5  VAL5       -0.2864
     36  CB         2.4360    9.7360    4.5100 C.3     5  VAL5        0.0276
     37  CG1        3.1570    8.4920    5.0070 C.3     5  VAL5        0.0022
     38  CG2        0.9660    9.6960    4.9050 C.3     5  VAL5        0.0022
     39  N          1.3110   15.2470   12.3390 N.3    39  VAL39      -0.1245
     40  CA         0.9780   13.8240   12.2600 C.3    39  VAL39       0.1561
     41  C         -0.3670   13.4900   12.9030 C.2    39  VAL39       0.2260
     42  O         -1.0250   12.5330   12.4910 O.2    39  VAL39      -0.2867
     43  CB         2.0800   12.9320   12.8890 C.3    39  VAL39       0.0252
     44  CG1        3.4260   13.1860   12.2260 C.3    39  VAL39       0.0019
     45  CG2        2.1830   13.1440   14.3930 C.3    39  VAL39       0.0019
     46  N         11.0110    9.3020    0.0020 N.3    74  PHE74      -0.1241
     47  CA        10.7430    8.8410    1.3590 C.3    74  PHE74       0.1605
     48  C         11.8830    7.9660    1.8780 C.2    74  PHE74       0.2264
     49  O         12.3770    8.1700    2.9880 O.2    74  PHE74      -0.2867
     50  CB         9.4180    8.0690    1.3930 C.3    74  PHE74       0.0534
     51  CG         8.9670    7.6770    2.7720 C.ar   74  PHE74      -0.0203
     52  CD1        9.2140    6.4070    3.2660 C.ar   74  PHE74      -0.0042
     53  CD2        8.2880    8.5820    3.5710 C.ar   74  PHE74      -0.0042
     54  CE1        8.7950    6.0460    4.5330 C.ar   74  PHE74      -0.0003
     55  CE2        7.8670    8.2290    4.8380 C.ar   74  PHE74      -0.0003
     56  CZ         8.1190    6.9590    5.3200 C.ar   74  PHE74      -0.0000
     57  N         11.0260   -5.9840    4.8240 N.3    97  PHE97      -0.1241
     58  CA        10.1660   -4.8060    4.7380 C.3    97  PHE97       0.1605
     59  C          8.7150   -5.2150    4.5160 C.2    97  PHE97       0.2264
     60  O          7.8220   -4.8190    5.2670 O.2    97  PHE97      -0.2867
     61  CB        10.6370   -3.9080    3.5840 C.3    97  PHE97       0.0534
     62  CG        10.0670   -2.5140    3.5910 C.ar   97  PHE97      -0.0203
     63  CD1        8.7200   -2.2940    3.3620 C.ar   97  PHE97      -0.0042
     64  CD2       10.8920   -1.4240    3.8160 C.ar   97  PHE97      -0.0042
     65  CE1        8.2030   -1.0140    3.3600 C.ar   97  PHE97      -0.0003
     66  CE2       10.3790   -0.1390    3.8160 C.ar   97  PHE97      -0.0003
     67  CZ         9.0330    0.0660    3.5870 C.ar   97  PHE97      -0.0000
     68  N          5.7100   -4.9830    7.5800 N.3   101  LEU101     -0.1245
     69  CA         4.7860   -3.8590    7.4750 C.3   101  LEU101      0.1561
     70  C          3.8500   -3.8190    8.6860 C.2   101  LEU101      0.2260
     71  O          3.7010   -2.7840    9.3420 O.2   101  LEU101     -0.2867
     72  CB         3.9810   -3.9560    6.1760 C.3   101  LEU101      0.0270
     73  CG         3.0760   -2.7560    5.8760 C.3   101  LEU101      0.0019
     74  CD1        3.8900   -1.4760    5.8280 C.3   101  LEU101      0.0001
     75  CD2        2.3370   -2.9610    4.5620 C.3   101  LEU101      0.0001
     76  N          5.6250   -2.7400   12.0600 N.3   104  LEU104     -0.1231
     77  CA         5.7250   -1.3260   12.4020 C.3   104  LEU104      0.1693
     78  C          4.3520   -0.7910   12.7770 C.2   104  LEU104      0.2592
     79  O          4.2400    0.1590   13.5500 O.2   104  LEU104     -0.2718
     80  CB         6.3720   -0.4970   11.2690 C.3   104  LEU104      0.0284
     81  CG         5.6400   -0.4470    9.9160 C.3   104  LEU104      0.0019
     82  CD1        4.4740    0.5360    9.9460 C.3   104  LEU104      0.0001
     83  CD2        6.6120   -0.0640    8.8140 C.3   104  LEU104      0.0001
     84  N          3.3120   -1.4310   12.2420 N.am  105  HIS105     -0.1976
     85  CA         1.9320   -1.1070   12.5890 C.3   105  HIS105      0.1656
     86  C          1.7560   -1.0550   14.1020 C.2   105  HIS105      0.2291
     87  O          1.1530   -0.1270   14.6280 O.2   105  HIS105     -0.2864
     88  CB         0.9780   -2.1460   11.9780 C.3   105  HIS105      0.0771
     89  CG        -0.3740   -2.2000   12.6320 C.ar  105  HIS105      0.0820
     90  ND1       -0.6970   -3.1130   13.6130 N.ar  105  HIS105     -0.2267
     91  CD2       -1.4780   -1.4450   12.4470 C.ar  105  HIS105      0.1154
     92  CE1       -1.9400   -2.9170   14.0010 C.ar  105  HIS105      0.1986
     93  NE2       -2.4370   -1.9100   13.3080 N.ar  105  HIS105     -0.2212
     94  N          5.4970    0.9740   15.8910 N.3   108  LEU108     -0.1245
     95  CA         5.6170    2.4140   15.7270 C.3   108  LEU108      0.1561
     96  C          4.3750    3.1190   16.2640 C.2   108  LEU108      0.2260
     97  O          4.3740    4.3350   16.4660 O.2   108  LEU108     -0.2867
     98  CB         5.8400    2.7570   14.2490 C.3   108  LEU108      0.0270
     99  CG         6.2010    4.2160   13.9540 C.3   108  LEU108      0.0019
    100  CD1        7.5060    4.5940   14.6400 C.3   108  LEU108      0.0001
    101  CD2        6.3020    4.4430   12.4540 C.3   108  LEU108      0.0001
    102  N          3.8210    6.4860   18.3340 N.3   112  TYR112     -0.1228
    103  CA         2.9170    7.4680   17.7500 C.3   112  TYR112      0.1721
    104  C          1.4970    6.9170   17.6900 C.2   112  TYR112      0.2437
    105  O          1.1190    6.2860   16.6980 O.2   112  TYR112     -0.2733
    106  CB         3.3770    7.8560   16.3440 C.3   112  TYR112      0.0547
    107  CG         4.7660    8.4460   16.2870 C.ar  112  TYR112     -0.0200
    108  CD1        5.0050    9.7550   16.6820 C.ar  112  TYR112     -0.0009
    109  CD2        5.8390    7.6920   15.8280 C.ar  112  TYR112     -0.0009
    110  CE1        6.2710   10.2970   16.6210 C.ar  112  TYR112      0.0417
    111  CE2        7.1100    8.2270   15.7660 C.ar  112  TYR112      0.0417
    112  CZ         7.3210    9.5290   16.1650 C.ar  112  TYR112      0.1957
    113  OH         8.5850   10.0650   16.0990 O.3   112  TYR112     -0.2866
    114  N          0.7030    7.1240   18.7610 N.am  113  PRO113     -0.2729
    115  CA        -0.6830    6.6440   18.8320 C.3   113  PRO113      0.1401
    116  C         -1.5300    7.0820   17.6380 C.2   113  PRO113      0.2269
    117  O         -1.3300    8.1610   17.0740 O.2   113  PRO113     -0.2865
    118  CB        -1.2340    7.2570   20.1280 C.3   113  PRO113      0.0296
    119  CG        -0.2010    8.2240   20.6100 C.3   113  PRO113      0.0237
    120  CD         1.1050    7.8170   19.9930 C.3   113  PRO113      0.0939
    121  N         -5.0320    5.0840   15.1350 N.3   115  MET115     -0.1230
    122  CA        -5.5610    3.8490   14.5700 C.3   115  MET115      0.1702
    123  C         -5.0270    3.6290   13.1550 C.2   115  MET115      0.2592
    124  O         -5.2270    4.4470   12.2560 O.2   115  MET115     -0.2718
    125  CB        -7.1030    3.8400   14.6020 C.3   115  MET115      0.0401
    126  CG        -7.7790    4.8160   13.6440 C.3   115  MET115      0.0596
    127  SD        -8.1660    4.0680   12.0470 S.3   115  MET115     -0.1393
    128  CE        -8.7620    5.4930   11.1400 C.3   115  MET115      0.0692
    129  N         -4.2680    2.5620   12.9920 N.am  116  ARG116     -0.1966
    130  CA        -3.7610    2.1740   11.6900 C.3   116  ARG116      0.1729
    131  C         -4.3950    0.8540   11.2730 C.2   116  ARG116      0.2616
    132  O         -4.2560   -0.1470   11.9770 O.2   116  ARG116     -0.2715
    133  CB        -2.2390    2.0490   11.7390 C.3   116  ARG116      0.0348
    134  CG        -1.5640    3.2600   12.3580 C.3   116  ARG116      0.0492
    135  CD        -0.0790    3.0290   12.5690 C.3   116  ARG116      0.2205
    136  NE         0.5080    4.0310   13.4590 N.pl3 116  ARG116     -0.0865
    137  CZ         1.8130    4.2710   13.5610 C.cat 116  ARG116      0.5346
    138  NH1        2.6760    3.6010   12.8030 N.pl3 116  ARG116      0.1354
    139  NH2        2.2590    5.1710   14.4250 N.pl3 116  ARG116      0.1354
    140  N         -5.0960    0.8410   10.1500 N.am  117  ALA117     -0.1964
    141  CA        -5.7700   -0.3730    9.7080 C.3   117  ALA117      0.1713
    142  C         -4.9730   -1.0820    8.6150 C.2   117  ALA117      0.2458
    143  O         -4.8810   -0.5930    7.4890 O.2   117  ALA117     -0.2730
    144  CB        -7.1730   -0.0480    9.2150 C.3   117  ALA117      0.0333
    145  N         -4.3540   -2.2260    8.9440 N.am  118  PRO118     -0.2716
    146  CA        -3.6600   -3.0620    7.9870 C.3   118  PRO118      0.1536
    147  C         -4.4770   -4.2810    7.5580 C.2   118  PRO118      0.2599
    148  O         -4.8400   -5.1250    8.3810 O.2   118  PRO118     -0.2715
    149  CB        -2.4410   -3.4960    8.7930 C.3   118  PRO118      0.0310
    150  CG        -2.9260   -3.5730   10.2130 C.3   118  PRO118      0.0237
    151  CD        -4.2190   -2.7840   10.2930 C.3   118  PRO118      0.0939
    152  N         -4.7750   -4.3690    6.2780 N.am  119  SER119     -0.1936
    153  CA        -5.3910   -5.5570    5.7250 C.3   119  SER119      0.2055
    154  C         -4.7330   -5.8980    4.3980 C.2   119  SER119      0.2643
    155  O         -5.0360   -5.2940    3.3640 O.2   119  SER119     -0.2714
    156  CB        -6.8980   -5.3500    5.5700 C.3   119  SER119      0.2130
    157  OG        -7.1990   -3.9920    5.2950 O.3   119  SER119     -0.2179
    158  N         -3.8080   -6.8480    4.4410 N.am  120  PHE120     -0.1973
    159  CA        -3.0350   -7.2170    3.2710 C.3   120  PHE120      0.1639
    160  C         -2.5160   -8.6440    3.3930 C.2   120  PHE120      0.2290
    161  O         -2.2410   -9.1250    4.4930 O.2   120  PHE120     -0.2864
    162  CB        -1.8620   -6.2430    3.0590 C.3   120  PHE120      0.0560
    163  CG        -0.8710   -6.2040    4.1950 C.ar  120  PHE120     -0.0200
    164  CD1       -1.0490   -5.3350    5.2590 C.ar  120  PHE120     -0.0042
    165  CD2        0.2410   -7.0310    4.1920 C.ar  120  PHE120     -0.0042
    166  CE1       -0.1400   -5.2930    6.3000 C.ar  120  PHE120     -0.0003
    167  CE2        1.1550   -6.9940    5.2300 C.ar  120  PHE120     -0.0003
    168  CZ         0.9630   -6.1250    6.2840 C.ar  120  PHE120     -0.0000
    169  N         -4.3950   -6.0210   -1.2810 N.3   135  TYR135     -0.1241
    170  CA        -4.4420   -4.7320   -0.6050 C.3   135  TYR135      0.1605
    171  C         -5.8870   -4.2950   -0.3980 C.2   135  TYR135      0.2264
    172  O         -6.5780   -3.9130   -1.3480 O.2   135  TYR135     -0.2867
    173  CB        -3.6660   -3.6980   -1.4310 C.3   135  TYR135      0.0534
    174  CG        -3.6510   -2.3000   -0.8530 C.ar  135  TYR135     -0.0201
    175  CD1       -4.1800   -1.2320   -1.5710 C.ar  135  TYR135     -0.0009
    176  CD2       -3.1050   -2.0430    0.3990 C.ar  135  TYR135     -0.0009
    177  CE1       -4.1650    0.0480   -1.0580 C.ar  135  TYR135      0.0417
    178  CE2       -3.0870   -0.7620    0.9190 C.ar  135  TYR135      0.0417
    179  CZ        -3.6190    0.2790    0.1850 C.ar  135  TYR135      0.1957
    180  OH        -3.6100    1.5570    0.6980 O.3   135  TYR135     -0.2866
    181  N         -7.9890   -1.5920    1.0280 N.3   137  SER137     -0.1217
    182  CA        -8.0260   -0.2150    1.5120 C.3   137  SER137      0.1889
    183  C         -8.8040    0.6540    0.5280 C.2   137  SER137      0.2288
    184  O         -8.8100    0.3850   -0.6730 O.2   137  SER137     -0.2866
    185  CB        -6.6070    0.3340    1.6740 C.3   137  SER137      0.2089
    186  OG        -5.8730   -0.3920    2.6480 O.3   137  SER137     -0.2183
    187  N         -8.2800    3.7810   -0.2830 N.3   139  ARG139     -0.1245
    188  CA        -7.4400    4.6550   -1.1010 C.3   139  ARG139      0.1563
    189  C         -6.7720    3.8580   -2.2250 C.2   139  ARG139      0.2260
    190  O         -5.5690    3.5940   -2.2090 O.2   139  ARG139     -0.2867
    191  CB        -6.3920    5.4050   -0.2550 C.3   139  ARG139      0.0307
    192  CG        -5.4800    4.5150    0.5790 C.3   139  ARG139      0.0489
    193  CD        -6.0310    4.2880    1.9750 C.3   139  ARG139      0.2205
    194  NE        -6.1160    5.5290    2.7480 N.pl3 139  ARG139     -0.0865
    195  CZ        -5.8660    5.6120    4.0560 C.cat 139  ARG139      0.5346
    196  NH1       -5.4630    4.5410    4.7340 N.pl3 139  ARG139      0.1354
    197  NH2       -5.9980    6.7730    4.6790 N.pl3 139  ARG139      0.1354
    198  N         -3.7270    5.2100   -4.1740 N.3   142  LEU142     -0.1245
    199  CA        -2.4960    5.4390   -3.4250 C.3   142  LEU142      0.1561
    200  C         -1.5140    4.3030   -3.7020 C.2   142  LEU142      0.2260
    201  O         -0.5030    4.1390   -3.0190 O.2   142  LEU142     -0.2867
    202  CB        -2.7970    5.5360   -1.9260 C.3   142  LEU142      0.0270
    203  CG        -1.7690    6.3120   -1.0960 C.3   142  LEU142      0.0019
    204  CD1       -1.7560    7.7800   -1.4980 C.3   142  LEU142      0.0001
    205  CD2       -2.0650    6.1730    0.3880 C.3   142  LEU142      0.0001
    206  N          2.3300    4.7830   -4.3550 N.3   145  ILE145     -0.1231
    207  CA         3.1600    4.9870   -3.1710 C.3   145  ILE145      0.1692
    208  C          3.8950    3.6940   -2.8300 C.2   145  ILE145      0.2591
    209  O          5.1030    3.6920   -2.5840 O.2   145  ILE145     -0.2718
    210  CB         2.3150    5.4310   -1.9470 C.3   145  ILE145      0.0266
    211  CG1        1.6620    6.7980   -2.1950 C.3   145  ILE145      0.0019
    212  CG2        3.1630    5.4670   -0.6780 C.3   145  ILE145      0.0020
    213  CD1        2.6480    7.9360   -2.3660 C.3   145  ILE145      0.0001
    214  N          3.1530    2.5920   -2.8550 N.am  146  VAL146     -0.1980
    215  CA         3.7130    1.2790   -2.5650 C.3   146  VAL146      0.1595
    216  C          4.7850    0.9310   -3.5870 C.2   146  VAL146      0.2287
    217  O          5.8680    0.4630   -3.2360 O.2   146  VAL146     -0.2864
    218  CB         2.6180    0.1880   -2.5750 C.3   146  VAL146      0.0276
    219  CG1        3.1910   -1.1640   -2.1750 C.3   146  VAL146      0.0022
    220  CG2        1.4610    0.5720   -1.6580 C.3   146  VAL146      0.0022
    221  N          8.1300    2.7290   -3.0790 N.3   149  ILE149     -0.1231
    222  CA         8.9000    2.3460   -1.8990 C.3   149  ILE149      0.1692
    223  C          9.5050    0.9520   -2.0610 C.2   149  ILE149      0.2591
    224  O         10.7110    0.7590   -1.8820 O.2   149  ILE149     -0.2718
    225  CB         8.0390    2.3870   -0.6140 C.3   149  ILE149      0.0266
    226  CG1        7.5290    3.8090   -0.3630 C.3   149  ILE149      0.0019
    227  CG2        8.8440    1.8870    0.5840 C.3   149  ILE149      0.0020
    228  CD1        6.6230    3.9340    0.8470 C.3   149  ILE149      0.0001
    229  N          8.6640   -0.0050   -2.4310 N.am  150  ILE150     -0.1980
    230  CA         9.0530   -1.4130   -2.4530 C.3   150  ILE150      0.1595
    231  C         10.1520   -1.6870   -3.4820 C.2   150  ILE150      0.2287
    232  O         11.1270   -2.3790   -3.1850 O.2   150  ILE150     -0.2864
    233  CB         7.8340   -2.3280   -2.7320 C.3   150  ILE150      0.0276
    234  CG1        6.7570   -2.1410   -1.6520 C.3   150  ILE150      0.0022
    235  CG2        8.2580   -3.7890   -2.8100 C.3   150  ILE150      0.0022
    236  CD1        7.2140   -2.4960   -0.2500 C.3   150  ILE150      0.0001
@<TRIPOS>BOND
     1   206   207    1
     2   198   199    1
     3   200   199    1
     4   200   201    2
     5   216   217    2
     6   216   215    1
     7   231   232    2
     8   231   230    1
     9   199   202    1
    10   207   208    1
    11   207   210    1
    12   221   222    1
    13   214   208   am
    14   214   215    1
    15   208   209    2
    16   235   233    1
    17   233   230    1
    18   233   234    1
    19   218   215    1
    20   218   219    1
    21   218   220    1
    22   230   229    1
    23   229   223   am
    24   213   211    1
    25   189   190    2
    26   189   188    1
    27   211   210    1
    28   223   222    1
    29   223   224    2
    30   210   212    1
    31   202   203    1
    32   222   225    1
    33   234   236    1
    34   175   177   ar
    35   175   174   ar
    36   204   203    1
    37   173   174    1
    38   173   170    1
    39   172   171    2
    40   169   170    1
    41   188   187    1
    42   188   191    1
    43   203   205    1
    44   177   179   ar
    45   174   176   ar
    46   184   183    2
    47   225   226    1
    48   225   227    1
    49   170   171    1
    50   226   228    1
    51   191   192    1
    52    46    47    1
    53   179   180    1
    54   179   178   ar
    55   176   178   ar
    56   183   182    1
    57   192   193    1
    58   181   182    1
    59    47    50    1
    60    47    48    1
    61    50    51    1
    62   182   185    1
    63   185   186    1
    64    48    49    2
    65   193   194    1
    66     8     7    1
    67     7     6    1
    68   194   195    2
    69    51    52   ar
    70    51    53   ar
    71     6     5    1
    72   162   159    1
    73   162   163    1
    74    35    34    2
    75    52    54   ar
    76   159   160    1
    77   159   158    1
    78    65    63   ar
    79    65    67   ar
    80    63    62   ar
    81   155   154    2
    82   160   161    2
    83    53    55   ar
    84    61    62    1
    85    61    58    1
    86    67    66   ar
    87    62    64   ar
    88    66    64   ar
    89   195   197    1
    90   195   196    1
    91     5     2    1
    92   165   163   ar
    93   165   167   ar
    94   163   164   ar
    95    34    33    1
    96   154   158   am
    97   154   153    1
    98    36    38    1
    99    36    37    1
   100    36    33    1
   101    59    58    1
   102    59    60    2
   103    54    56   ar
   104    75    73    1
   105    58    57    1
   106    55    56   ar
   107    33    32    1
   108   167   168   ar
   109   164   166   ar
   110   157   156    1
   111     2     1    1
   112     2     3    1
   113   156   153    1
   114   153   152    1
   115    74    73    1
   116    73    72    1
   117    72    69    1
   118   152   147   am
   119   168   166   ar
   120    32    23   am
   121     3     4    2
   122     3     9   am
   123    24    23    2
   124    12    11    2
   125    23    22    1
   126     9    10    1
   127    69    68    1
   128    69    70    1
   129   143   142    2
   130   147   146    1
   131   147   148    2
   132   146   149    1
   133   146   145    1
   134    11    10    1
   135    28    30   ar
   136    28    26   ar
   137    30    31   ar
   138    10    13    1
   139   142   145   am
   140   142   141    1
   141    22    21    1
   142    22    25    1
   143    70    71    2
   144   149   150    1
   145    83    81    1
   146   145   151    1
   147   144   141    1
   148    25    26    1
   149    26    27   ar
   150    13    14    1
   151    31    29   ar
   152   141   140    1
   153    16    14   ar
   154    16    18   ar
   155    81    82    1
   156    81    80    1
   157   140   131   am
   158   150   151    1
   159    14    15   ar
   160    27    29   ar
   161    18    19   ar
   162   128   127    1
   163    80    77    1
   164   131   130    1
   165   131   132    2
   166    15    17   ar
   167   130   133    1
   168   130   129    1
   169   133   134    1
   170    88    85    1
   171    88    89    1
   172    19    17   ar
   173    19    20    1
   174   127   126    1
   175    76    77    1
   176    44    43    1
   177    84    85    1
   178    84    78   am
   179   124   123    2
   180    40    39    1
   181    40    43    1
   182    40    41    1
   183   134   135    1
   184    77    78    1
   185    91    89   ar
   186    91    93   ar
   187   101    99    1
   188    42    41    2
   189   135   136    1
   190    85    86    1
   191    89    90   ar
   192    78    79    2
   193   138   137    1
   194    43    45    1
   195   129   123   am
   196   123   122    1
   197    93    92   ar
   198   136   137    2
   199   137   139    1
   200    90    92   ar
   201   126   125    1
   202    99    98    1
   203    99   100    1
   204    86    87    2
   205    98    95    1
   206   122   125    1
   207   122   121    1
   208    95    94    1
   209    95    96    1
   210   111   109   ar
   211   111   112   ar
   212   109   107   ar
   213   113   112    1
   214   112   110   ar
   215    96    97    2
   216   107   106    1
   217   107   108   ar
   218   106   103    1
   219   110   108   ar
   220   105   104    2
   221   117   116    2
   222   116   115    1
   223   104   103    1
   224   104   114   am
   225   103   102    1
   226   114   115    1
   227   114   120    1
   228   115   118    1
   229   120   119    1
   230   118   119    1
