@<TRIPOS>MOLECULE
tmp/5mo3C01.pdb
 92 92 0 0 0
SMALL
GASTEIGER

@<TRIPOS>ATOM
      1  N         57.2710    4.5790  -50.4400 N.3    46  PRO46      -0.2116
      2  CA        55.9800    5.2910  -50.4780 C.3    46  PRO46       0.1372
      3  C         55.0610    4.9370  -49.3480 C.2    46  PRO46       0.2244
      4  O         54.9080    3.7660  -49.0250 O.2    46  PRO46      -0.2868
      5  CB        55.3660    4.8540  -51.8250 C.3    46  PRO46       0.0268
      6  CG        56.4960    4.3180  -52.6160 C.3    46  PRO46       0.0207
      7  CD        57.4940    3.7680  -51.6530 C.3    46  PRO46       0.0892
      8  N         49.0150   -1.3820  -64.9610 N.3   143  ASN143     -0.1240
      9  CA        50.2360   -2.1970  -65.1020 C.3   143  ASN143      0.1653
     10  C         51.0170   -1.9810  -66.3730 C.2   143  ASN143      0.2266
     11  O         51.2240   -2.9240  -67.1300 O.2   143  ASN143     -0.2867
     12  CB        49.9260   -3.6840  -64.9410 C.3   143  ASN143      0.1155
     13  CG        49.1440   -3.9710  -63.6940 C.2   143  ASN143      0.2627
     14  OD1       49.6850   -3.9770  -62.6020 O.2   143  ASN143     -0.2716
     15  ND2       47.8580   -4.2080  -63.8540 N.am  143  ASN143     -0.0877
     16  N         48.1080    9.0670  -60.7460 N.3   168  TRP168     -0.1227
     17  CA        49.1340    8.1000  -61.1080 C.3   168  TRP168      0.1737
     18  C         49.6470    7.4630  -59.8540 C.2   168  TRP168      0.2596
     19  O         49.9650    8.1760  -58.9190 O.2   168  TRP168     -0.2718
     20  CB        50.3040    8.8190  -61.7930 C.3   168  TRP168      0.0564
     21  CG        49.9000    9.5290  -63.0460 C.ar  168  TRP168      0.0003
     22  CD1       49.9100    9.0250  -64.3080 C.ar  168  TRP168      0.0946
     23  CD2       49.3970   10.8760  -63.1490 C.ar  168  TRP168      0.0152
     24  NE1       49.4200    9.9610  -65.1990 N.ar  168  TRP168     -0.2442
     25  CE2       49.1110   11.1110  -64.5200 C.ar  168  TRP168      0.0810
     26  CE3       49.1590   11.9050  -62.2180 C.ar  168  TRP168      0.0012
     27  CZ2       48.6190   12.3450  -64.9910 C.ar  168  TRP168      0.0191
     28  CZ3       48.6450   13.1490  -62.6910 C.ar  168  TRP168      0.0001
     29  CH2       48.3940   13.3510  -64.0590 C.ar  168  TRP168      0.0015
     30  N         49.7300    6.1380  -59.8340 N.am  169  THR169     -0.1939
     31  CA        50.3080    5.4290  -58.7040 C.3   169  THR169      0.2028
     32  C         51.8190    5.5530  -58.6970 C.2   169  THR169      0.2642
     33  O         52.4290    5.7760  -59.7410 O.2   169  THR169     -0.2714
     34  CB        50.0170    3.9360  -58.7300 C.3   169  THR169      0.1808
     35  OG1       50.3920    3.3940  -60.0130 O.3   169  THR169     -0.2208
     36  CG2       48.5240    3.6940  -58.4280 C.3   169  THR169      0.0379
     37  N         52.4230    5.3900  -57.5150 N.am  170  ASP170     -0.1957
     38  CA        53.8660    5.0590  -57.4230 C.3   170  ASP170      0.1840
     39  C         54.1550    3.7730  -58.1850 C.2   170  ASP170      0.2622
     40  O         53.2740    2.9220  -58.3490 O.2   170  ASP170     -0.2715
     41  CB        54.3050    4.8060  -55.9820 C.3   170  ASP170      0.1450
     42  CG        53.9800    5.9320  -55.0680 C.2   170  ASP170      0.3671
     43  OD1       54.5830    6.9990  -55.2260 O.co2 170  ASP170     -0.2456
     44  OD2       53.1280    5.7260  -54.1760 O.co2 170  ASP170     -0.2456
     45  N         55.4070    3.6060  -58.6130 N.am  171  GLN171     -0.1963
     46  CA        55.8420    2.3570  -59.1760 C.3   171  GLN171      0.1733
     47  C         55.5580    1.2360  -58.1690 C.2   171  GLN171      0.2616
     48  O         55.7830    1.3900  -56.9880 O.2   171  GLN171     -0.2715
     49  CB        57.3260    2.3900  -59.5180 C.3   171  GLN171      0.0408
     50  CG        57.7400    1.2130  -60.3930 C.3   171  GLN171      0.0908
     51  CD        59.1390    1.3900  -60.9420 C.2   171  GLN171      0.2608
     52  OE1       59.9640    2.0530  -60.3320 O.2   171  GLN171     -0.2717
     53  NE2       59.4000    0.8150  -62.1050 N.am  171  GLN171     -0.0878
     54  N         55.0150    0.1410  -58.6650 N.am  172  ASP172     -0.1957
     55  CA        54.6540   -1.0190  -57.8690 C.3   172  ASP172      0.1840
     56  C         55.9090   -1.8540  -57.5990 C.2   172  ASP172      0.2622
     57  O         56.5730   -2.2470  -58.5270 O.2   172  ASP172     -0.2715
     58  CB        53.6730   -1.8480  -58.7110 C.3   172  ASP172      0.1450
     59  CG        52.9100   -2.9050  -57.9110 C.2   172  ASP172      0.3671
     60  OD1       53.4870   -3.5550  -57.0080 O.co2 172  ASP172     -0.2456
     61  OD2       51.7040   -3.0860  -58.2180 O.co2 172  ASP172     -0.2456
     62  N         56.2050   -2.1470  -56.3500 N.am  173  SER173     -0.1950
     63  CA        57.3080   -3.0630  -56.0150 C.3   173  SER173      0.1924
     64  C         57.0790   -4.5290  -56.4660 C.2   173  SER173      0.2314
     65  O         58.0280   -5.2490  -56.7150 O.2   173  SER173     -0.2863
     66  CB        57.6160   -2.9860  -54.5290 C.3   173  SER173      0.2116
     67  OG        56.4250   -3.0290  -53.7550 O.3   173  SER173     -0.2180
     68  N         55.7200   -1.9210  -62.3450 N.3   177  THR177     -0.1203
     69  CA        54.8440   -1.2340  -63.2970 C.3   177  THR177      0.1994
     70  C         54.1960   -0.0100  -62.6620 C.2   177  THR177      0.2618
     71  O         54.2240    0.1970  -61.4420 O.2   177  THR177     -0.2717
     72  CB        53.6800   -2.1420  -63.7940 C.3   177  THR177      0.1784
     73  OG1       52.8620   -2.4760  -62.6820 O.3   177  THR177     -0.2211
     74  CG2       54.1950   -3.4150  -64.4750 C.3   177  THR177      0.0376
     75  N         53.5750    0.7790  -63.5320 N.am  178  TYR178     -0.1961
     76  CA        52.8040    1.9390  -63.1850 C.3   178  TYR178      0.1771
     77  C         51.3450    1.7030  -63.5680 C.2   178  TYR178      0.2620
     78  O         51.0380    0.8290  -64.3990 O.2   178  TYR178     -0.2715
     79  CB        53.3480    3.1400  -63.9450 C.3   178  TYR178      0.0574
     80  CG        54.7650    3.5420  -63.5190 C.ar  178  TYR178     -0.0198
     81  CD1       54.9730    4.4390  -62.4810 C.ar  178  TYR178     -0.0009
     82  CD2       55.8730    3.0140  -64.1520 C.ar  178  TYR178     -0.0009
     83  CE1       56.2650    4.8030  -62.0800 C.ar  178  TYR178      0.0417
     84  CE2       57.1830    3.3730  -63.7750 C.ar  178  TYR178      0.0417
     85  CZ        57.3600    4.2710  -62.7470 C.ar  178  TYR178      0.1957
     86  OH        58.6180    4.6190  -62.3500 O.3   178  TYR178     -0.2866
     87  N         50.4680    2.4800  -62.9370 N.am  179  SER179     -0.1950
     88  CA        49.0630    2.5280  -63.2910 C.3   179  SER179      0.1924
     89  C         48.5550    3.9690  -63.2140 C.2   179  SER179      0.2314
     90  O         49.1480    4.8420  -62.5190 O.2   179  SER179     -0.2863
     91  CB        48.2770    1.6450  -62.3360 C.3   179  SER179      0.2116
     92  OG        48.6370    0.2840  -62.4880 O.3   179  SER179     -0.2180
@<TRIPOS>BOND
     1    11    10    2
     2    10     9    1
     3    24    25   ar
     4    24    22   ar
     5     9     8    1
     6     9    12    1
     7    27    25   ar
     8    27    29   ar
     9    12    13    1
    10    25    23   ar
    11    74    72    1
    12    78    77    2
    13    22    21   ar
    14    82    84   ar
    15    82    80   ar
    16    29    28   ar
    17    79    80    1
    18    79    76    1
    19    15    13   am
    20    72    69    1
    21    72    73    1
    22    84    85   ar
    23    13    14    2
    24    77    76    1
    25    77    87   am
    26    75    76    1
    27    75    70   am
    28    80    81   ar
    29    69    70    1
    30    69    68    1
    31    88    89    1
    32    88    87    1
    33    88    91    1
    34    89    90    2
    35    23    21   ar
    36    23    26   ar
    37    21    20    1
    38    85    86    1
    39    85    83   ar
    40    28    26   ar
    41    70    71    2
    42    92    91    1
    43    81    83   ar
    44    53    51   am
    45    20    17    1
    46    17    16    1
    47    17    18    1
    48    51    50    1
    49    51    52    2
    50    50    49    1
    51    35    34    1
    52    18    30   am
    53    18    19    2
    54    30    31    1
    55    33    32    2
    56    49    46    1
    57    46    45    1
    58    46    47    1
    59    34    31    1
    60    34    36    1
    61    58    59    1
    62    58    55    1
    63    31    32    1
    64    32    37   am
    65    54    47   am
    66    54    55    1
    67    45    39   am
    68    57    56    2
    69    40    39    2
    70    61    59   ar
    71    39    38    1
    72    47    48    2
    73    59    60   ar
    74    55    56    1
    75    56    62   am
    76    37    38    1
    77    38    41    1
    78    65    64    2
    79    64    63    1
    80    62    63    1
    81    63    66    1
    82    41    42    1
    83    43    42   ar
    84    42    44   ar
    85    66    67    1
    86     6     5    1
    87     6     7    1
    88     5     2    1
    89     7     1    1
    90     2     1    1
    91     2     3    1
    92     3     4    2
