@<TRIPOS>MOLECULE
tmp/5mo3C02.pdb
 98 93 0 0 0
SMALL
GASTEIGER

@<TRIPOS>ATOM
      1  N         66.2750    5.7360  -46.0060 N.3    43  GLN43      -0.1245
      2  CA        65.4610    5.2250  -47.0840 C.3    43  GLN43       0.1566
      3  C         63.9930    5.5020  -46.7420 C.2    43  GLN43       0.2260
      4  O         63.5410    5.2160  -45.6240 O.2    43  GLN43      -0.2867
      5  CB        65.7160    3.7140  -47.2230 C.3    43  GLN43       0.0367
      6  CG        64.8370    2.9800  -48.2230 C.3    43  GLN43       0.0905
      7  CD        64.9170    1.4820  -48.0530 C.2    43  GLN43       0.2608
      8  OE1       64.5440    0.9250  -46.9940 O.2    43  GLN43      -0.2717
      9  NE2       65.4460    0.8150  -49.0560 N.am   43  GLN43      -0.0878
     10  N         60.3140    4.5900  -48.4150 N.3    45  LYS45      -0.1245
     11  CA        59.4060    3.9650  -49.3800 C.3    45  LYS45       0.1561
     12  C         58.0590    4.7080  -49.3680 C.2    45  LYS45       0.2260
     13  O         57.7130    5.3570  -48.3770 O.2    45  LYS45      -0.2867
     14  CB        59.2210    2.4820  -49.0450 C.3    45  LYS45       0.0271
     15  CG        60.5700    1.7440  -49.0510 C.3    45  LYS45       0.0035
     16  CD        60.4810    0.2630  -48.7990 C.3    45  LYS45       0.0206
     17  CE        61.8670   -0.3550  -48.9010 C.3    45  LYS45       0.1093
     18  NZ        61.8910   -1.8330  -48.9370 N.3    45  LYS45      -0.1314
     19  N         63.5830    5.3660  -42.9220 N.3    51  LYS51      -0.1245
     20  CA        64.2750    4.3450  -42.1710 C.3    51  LYS51       0.1561
     21  C         65.7880    4.5860  -42.2020 C.2    51  LYS51       0.2260
     22  O         66.3520    4.7620  -43.2750 O.2    51  LYS51      -0.2867
     23  CB        63.9370    2.9760  -42.7590 C.3    51  LYS51       0.0271
     24  CG        64.8020    1.8390  -42.2580 C.3    51  LYS51       0.0035
     25  CD        64.2860    0.5100  -42.7830 C.3    51  LYS51       0.0206
     26  CE        65.2640   -0.6310  -42.5730 C.3    51  LYS51       0.1093
     27  NZ        65.3900   -0.9450  -41.1220 N.3    51  LYS51      -0.1314
     28  N         69.5000    3.7280  -42.5890 N.3    53  LEU53      -0.1245
     29  CA        70.2610    2.6510  -43.2190 C.3    53  LEU53       0.1561
     30  C         71.7220    2.6210  -42.7580 C.2    53  LEU53       0.2260
     31  O         72.2620    1.5350  -42.4920 O.2    53  LEU53      -0.2867
     32  CB        70.2490    2.7740  -44.7480 C.3    53  LEU53       0.0270
     33  CG        68.9390    2.4990  -45.4680 C.3    53  LEU53       0.0019
     34  CD1       69.2100    2.4410  -46.9660 C.3    53  LEU53       0.0001
     35  CD2       68.2600    1.2210  -45.0210 C.3    53  LEU53       0.0001
     36  N         70.7440   -5.2400  -44.6030 N.3    65  PRO65      -0.2102
     37  CA        71.6710   -6.1900  -45.2770 C.3    65  PRO65       0.1504
     38  C         72.8840   -5.4800  -45.9440 C.2    65  PRO65       0.2576
     39  O         72.8210   -4.2750  -46.2230 O.2    65  PRO65      -0.2718
     40  CB        70.7670   -6.8670  -46.3020 C.3    65  PRO65       0.0282
     41  CG        69.7480   -5.8230  -46.6380 C.3    65  PRO65       0.0208
     42  CD        69.5030   -5.0410  -45.3720 C.3    65  PRO65       0.0893
     43  N         73.9700   -6.2210  -46.1730 N.am   66  ASP66      -0.1960
     44  CA        75.2370   -5.6200  -46.5860 C.3    66  ASP66       0.1840
     45  C         75.2610   -5.1530  -48.0250 C.2    66  ASP66       0.2622
     46  O         76.1920   -4.4910  -48.4320 O.2    66  ASP66      -0.2715
     47  CB        76.4860   -6.4850  -46.2410 C.3    66  ASP66       0.1450
     48  CG        76.5890   -7.7930  -47.0300 C.2    66  ASP66       0.3671
     49  OD1       75.8180   -8.0700  -47.9630 O.co2  66  ASP66      -0.2456
     50  OD2       77.4970   -8.5940  -46.6740 O.co2  66  ASP66      -0.2456
     51  N         74.2180   -5.4450  -48.7870 N.am   67  ARG67      -0.1963
     52  CA        74.1120   -4.8380  -50.0970 C.3    67  ARG67       0.1729
     53  C         73.9060   -3.3110  -50.0780 C.2    67  ARG67       0.2616
     54  O         74.1060   -2.6820  -51.1150 O.2    67  ARG67      -0.2715
     55  CB        73.0670   -5.5370  -50.9370 C.3    67  ARG67       0.0348
     56  CG        71.6460   -5.4020  -50.4880 C.3    67  ARG67       0.0492
     57  CD        70.7860   -6.4410  -51.1990 C.3    67  ARG67       0.2205
     58  NE        69.4020   -6.1570  -50.8500 N.pl3  67  ARG67      -0.0865
     59  CZ        68.6870   -5.1670  -51.3660 C.cat  67  ARG67       0.5346
     60  NH1       69.2020   -4.3920  -52.3230 N.pl3  67  ARG67       0.1354
     61  NH2       67.4470   -4.9700  -50.9270 N.pl3  67  ARG67       0.1354
     62  N         73.5510   -2.7100  -48.9430 N.am   68  PHE68      -0.1974
     63  CA        73.6060   -1.2520  -48.7950 C.3    68  PHE68       0.1639
     64  C         74.9390   -0.8810  -48.1570 C.2    68  PHE68       0.2290
     65  O         75.2190   -1.3260  -47.0490 O.2    68  PHE68      -0.2864
     66  CB        72.4680   -0.7440  -47.9150 C.3    68  PHE68       0.0560
     67  CG        71.1110   -1.0080  -48.4710 C.ar   68  PHE68      -0.0200
     68  CD1       70.4330   -2.1710  -48.1380 C.ar   68  PHE68      -0.0042
     69  CD2       70.4890   -0.0740  -49.2920 C.ar   68  PHE68      -0.0042
     70  CE1       69.1700   -2.4260  -48.6440 C.ar   68  PHE68      -0.0003
     71  CE2       69.2330   -0.3160  -49.8000 C.ar   68  PHE68      -0.0003
     72  CZ        68.5770   -1.5070  -49.4870 C.ar   68  PHE68      -0.0000
     73  N         66.8750   -4.6570  -55.7460 N.3    85  GLN85      -0.1245
     74  CA        65.6320   -5.3950  -55.8040 C.3    85  GLN85       0.1566
     75  C         64.5060   -4.4150  -56.0970 C.2    85  GLN85       0.2260
     76  O         64.6060   -3.2300  -55.7790 O.2    85  GLN85      -0.2867
     77  CB        65.3530   -6.0860  -54.4710 C.3    85  GLN85       0.0367
     78  CG        66.3730   -7.1290  -54.0250 C.3    85  GLN85       0.0905
     79  CD        66.1240   -7.6820  -52.5940 C.2    85  GLN85       0.2608
     80  OE1       67.0600   -8.1790  -51.9500 O.2    85  GLN85      -0.2717
     81  NE2       64.8730   -7.5970  -52.0960 N.am   85  GLN85      -0.0878
     82  N         61.8260   -4.1330  -54.5250 N.3    87  GLU87      -0.1231
     83  CA        61.3780   -3.6270  -53.2240 C.3    87  GLU87       0.1699
     84  C         62.2220   -2.4450  -52.7080 C.2    87  GLU87       0.2592
     85  O         61.7920   -1.7780  -51.7570 O.2    87  GLU87      -0.2718
     86  CB        61.3590   -4.7670  -52.1810 C.3    87  GLU87       0.0402
     87  CG        60.3020   -5.8750  -52.4140 C.3    87  GLU87       0.1161
     88  CD        60.4910   -6.7320  -53.6870 C.2    87  GLU87       0.3649
     89  OE1       61.6600   -7.0390  -54.1040 O.co2  87  GLU87      -0.2457
     90  OE2       59.4450   -7.0880  -54.3060 O.co2  87  GLU87      -0.2457
     91  N         63.3770   -2.1700  -53.3360 N.am   88  ASP88      -0.1974
     92  CA        64.2310   -1.0140  -53.0030 C.3    88  ASP88       0.1709
     93  C         63.7610    0.3560  -53.5430 C.2    88  ASP88       0.2293
     94  O         64.3930    1.3930  -53.2500 O.2    88  ASP88      -0.2864
     95  CB        65.6600   -1.2450  -53.5150 C.3    88  ASP88       0.1436
     96  CG        66.3050   -2.4490  -52.8980 C.2    88  ASP88       0.3671
     97  OD1       65.8340   -2.8680  -51.8100 O.co2  88  ASP88      -0.2456
     98  OD2       67.2910   -2.9740  -53.4850 O.co2  88  ASP88      -0.2456
@<TRIPOS>BOND
     1    75    74    1
     2    75    76    2
     3    74    73    1
     4    74    77    1
     5    82    83    1
     6    77    78    1
     7    90    88   ar
     8    89    88   ar
     9    78    79    1
    10    88    87    1
    11    93    94    2
    12    93    92    1
    13    95    92    1
    14    95    96    1
    15    98    96   ar
    16    91    92    1
    17    91    84   am
    18    83    84    1
    19    83    86    1
    20    96    97   ar
    21    84    85    2
    22    79    81   am
    23    79    80    2
    24    87    86    1
    25    60    59    1
    26    59    61    1
    27    59    58    2
    28    57    58    1
    29    57    56    1
    30    54    53    2
    31    55    56    1
    32    55    52    1
    33    52    53    1
    34    52    51    1
    35    53    62   am
    36    71    72   ar
    37    71    69   ar
    38    72    70   ar
    39    11    12    1
    40    11    14    1
    41    11    10    1
    42    12    13    2
    43    69    67   ar
    44     9     7   am
    45    15    14    1
    46    15    16    1
    47    62    63    1
    48    18    17    1
    49    17    16    1
    50    63    64    1
    51    63    66    1
    52    51    45   am
    53    70    68   ar
    54    67    68   ar
    55    67    66    1
    56    46    45    2
    57     6     7    1
    58     6     5    1
    59    64    65    2
    60     7     8    2
    61    45    44    1
    62    49    48   ar
    63     5     2    1
    64     2     3    1
    65     2     1    1
    66    48    50   ar
    67    48    47    1
    68    34    33    1
    69     3     4    2
    70    41    40    1
    71    41    42    1
    72    44    47    1
    73    44    43    1
    74    40    37    1
    75    39    38    2
    76    43    38   am
    77    38    37    1
    78    33    35    1
    79    33    32    1
    80    42    36    1
    81    37    36    1
    82    32    29    1
    83    22    21    2
    84    29    30    1
    85    29    28    1
    86    19    20    1
    87    25    26    1
    88    25    24    1
    89    23    24    1
    90    23    20    1
    91    30    31    2
    92    26    27    1
    93    21    20    1
