@<TRIPOS>MOLECULE
tmp/5mo4A00.pdb
 224 211 0 0 0
SMALL
GASTEIGER

@<TRIPOS>ATOM
      1  N        -52.6780   13.3250  -20.1400 N.3   185  LEU185     -0.1231
      2  CA       -52.0540   13.3780  -18.8250 C.3   185  LEU185      0.1693
      3  C        -52.9460   13.9310  -17.7460 C.2   185  LEU185      0.2592
      4  O        -53.7430   14.8330  -18.0080 O.2   185  LEU185     -0.2718
      5  CB       -50.7170   14.1340  -18.8650 C.3   185  LEU185      0.0284
      6  CG       -49.5690   13.2740  -19.3370 C.3   185  LEU185      0.0019
      7  CD1      -48.2640   14.0020  -19.2400 C.3   185  LEU185      0.0001
      8  CD2      -49.5310   11.9770  -18.5710 C.3   185  LEU185      0.0001
      9  N        -52.8060   13.3650  -16.5430 N.am  186  GLY186     -0.1957
     10  CA       -53.5590   13.7460  -15.3520 C.3   186  GLY186      0.1869
     11  C        -55.0530   13.8790  -15.5650 C.2   186  GLY186      0.2309
     12  O        -55.6670   14.8190  -15.0520 O.2   186  GLY186     -0.2863
     13  N        -54.2660   19.0740  -17.6350 N.3   190  TYR190     -0.1241
     14  CA       -53.2870   19.9730  -18.2550 C.3   190  TYR190      0.1605
     15  C        -53.6150   20.3520  -19.7050 C.2   190  TYR190      0.2264
     16  O        -52.8660   21.1020  -20.3290 O.2   190  TYR190     -0.2867
     17  CB       -51.8740   19.3860  -18.1500 C.3   190  TYR190      0.0534
     18  CG       -51.5200   18.8400  -16.7810 C.ar  190  TYR190     -0.0201
     19  CD1      -51.1150   19.6890  -15.7500 C.ar  190  TYR190     -0.0009
     20  CD2      -51.5220   17.4700  -16.5350 C.ar  190  TYR190     -0.0009
     21  CE1      -50.7720   19.1870  -14.4940 C.ar  190  TYR190      0.0417
     22  CE2      -51.1710   16.9590  -15.2880 C.ar  190  TYR190      0.0417
     23  CZ       -50.7940   17.8210  -14.2680 C.ar  190  TYR190      0.1957
     24  OH       -50.4460   17.3040  -13.0390 O.3   190  TYR190     -0.2866
     25  N        -51.9500   17.6610  -23.3150 N.3   193  VAL193     -0.1245
     26  CA       -50.6840   17.0630  -22.8550 C.3   193  VAL193      0.1561
     27  C        -50.9120   15.5600  -22.7180 C.2   193  VAL193      0.2260
     28  O        -51.8450   15.1360  -22.0390 O.2   193  VAL193     -0.2867
     29  CB       -50.0960   17.7310  -21.5730 C.3   193  VAL193      0.0252
     30  CG1      -48.7100   17.1830  -21.2490 C.3   193  VAL193      0.0019
     31  CG2      -50.0310   19.2510  -21.7250 C.3   193  VAL193      0.0019
     32  N        -43.8090   13.3420  -21.8940 N.3   206  ALA206     -0.1231
     33  CA       -45.0120   14.1700  -21.7540 C.3   206  ALA206      0.1694
     34  C        -44.9960   15.0580  -23.0120 C.2   206  ALA206      0.2592
     35  O        -43.9990   15.7440  -23.2670 O.2   206  ALA206     -0.2718
     36  CB       -44.9550   15.0070  -20.4760 C.3   206  ALA206      0.0304
     37  N        -46.0340   14.9180  -23.8670 N.am  207  VAL207     -0.1966
     38  CA       -46.1540   15.5850  -25.1680 C.3   207  VAL207      0.1727
     39  C        -47.2930   16.6110  -25.2150 C.2   207  VAL207      0.2616
     40  O        -48.4620   16.2370  -25.1420 O.2   207  VAL207     -0.2715
     41  CB       -46.2580   14.5730  -26.3630 C.3   207  VAL207      0.0290
     42  CG1      -46.2810   15.3050  -27.7090 C.3   207  VAL207      0.0023
     43  CG2      -45.1280   13.5460  -26.3460 C.3   207  VAL207      0.0023
     44  N        -46.9460   17.8910  -25.4030 N.am  208  LYS208     -0.1977
     45  CA       -47.9280   18.9620  -25.5680 C.3   208  LYS208      0.1596
     46  C        -48.2030   19.1050  -27.0730 C.2   208  LYS208      0.2287
     47  O        -47.2700   19.3220  -27.8520 O.2   208  LYS208     -0.2864
     48  CB       -47.4370   20.2800  -24.9700 C.3   208  LYS208      0.0298
     49  CG       -48.5140   21.3410  -24.8760 C.3   208  LYS208      0.0038
     50  CD       -47.9280   22.6420  -24.3730 C.3   208  LYS208      0.0206
     51  CE       -49.0140   23.6710  -24.2010 C.3   208  LYS208      0.1093
     52  NZ       -48.5290   24.8510  -23.4530 N.3   208  LYS208     -0.1314
     53  N        -47.9140   31.3890  -30.2770 N.3   217  GLU217     -0.1245
     54  CA       -47.6880   31.2340  -28.8410 C.3   217  GLU217      0.1567
     55  C        -46.9570   29.9100  -28.5450 C.2   217  GLU217      0.2260
     56  O        -46.0650   29.8780  -27.7010 O.2   217  GLU217     -0.2867
     57  CB       -49.0220   31.3070  -28.0780 C.3   217  GLU217      0.0388
     58  CG       -48.8360   30.8890  -26.6190 C.3   217  GLU217      0.1160
     59  CD       -49.9860   31.2430  -25.6930 C.2   217  GLU217      0.3649
     60  OE1      -50.9980   31.7940  -26.1630 O.co2 217  GLU217     -0.2457
     61  OE2      -49.8550   30.9740  -24.4780 O.co2 217  GLU217     -0.2457
     62  N        -43.3880   30.2090  -29.6480 N.3   220  LYS220     -0.1231
     63  CA       -42.6610   31.0680  -28.7190 C.3   220  LYS220      0.1693
     64  C        -42.3150   30.2780  -27.4550 C.2   220  LYS220      0.2591
     65  O        -41.2560   30.5060  -26.8800 O.2   220  LYS220     -0.2718
     66  CB       -43.4880   32.3080  -28.3440 C.3   220  LYS220      0.0285
     67  CG       -42.7150   33.6250  -28.4240 C.3   220  LYS220      0.0035
     68  CD       -41.6840   33.8270  -27.3080 C.3   220  LYS220      0.0206
     69  CE       -40.7120   34.9350  -27.6250 C.3   220  LYS220      0.1093
     70  NZ       -39.6170   35.0080  -26.6230 N.3   220  LYS220     -0.1314
     71  N        -43.2260   29.3590  -27.0270 N.am  221  GLU221     -0.1979
     72  CA       -43.0230   28.5100  -25.8670 C.3   221  GLU221      0.1602
     73  C        -41.8350   27.5630  -26.1140 C.2   221  GLU221      0.2287
     74  O        -40.9370   27.4970  -25.2690 O.2   221  GLU221     -0.2864
     75  CB       -44.2970   27.7340  -25.5070 C.3   221  GLU221      0.0415
     76  CG       -44.0760   26.8950  -24.2600 C.3   221  GLU221      0.1163
     77  CD       -45.1950   25.9930  -23.8000 C.2   221  GLU221      0.3649
     78  OE1      -45.1180   25.5340  -22.6400 O.co2 221  GLU221     -0.2457
     79  OE2      -46.1280   25.7260  -24.5900 O.co2 221  GLU221     -0.2457
     80  N        -38.5210   29.6570  -26.0950 N.3   224  VAL224     -0.1231
     81  CA       -38.1690   30.0250  -24.7200 C.3   224  VAL224      0.1692
     82  C        -37.5290   28.8020  -23.9880 C.2   224  VAL224      0.2591
     83  O        -36.4740   28.9350  -23.3670 O.2   224  VAL224     -0.2718
     84  CB       -39.4140   30.5980  -23.9800 C.3   224  VAL224      0.0266
     85  CG1      -39.2810   30.4840  -22.4620 C.3   224  VAL224      0.0020
     86  CG2      -39.6850   32.0480  -24.3900 C.3   224  VAL224      0.0020
     87  N        -38.1700   27.6330  -24.0950 N.am  225  MET225     -0.1979
     88  CA       -37.7380   26.3710  -23.4980 C.3   225  MET225      0.1605
     89  C        -36.3710   25.8980  -23.9630 C.2   225  MET225      0.2287
     90  O        -35.6870   25.2190  -23.1930 O.2   225  MET225     -0.2864
     91  CB       -38.7840   25.2760  -23.7070 C.3   225  MET225      0.0413
     92  CG       -40.0080   25.4470  -22.8330 C.3   225  MET225      0.0598
     93  SD       -41.2970   24.2550  -23.2890 S.3   225  MET225     -0.1393
     94  CE       -40.5720   22.7440  -22.6520 C.3   225  MET225      0.0692
     95  N        -33.8820   27.4370  -21.5320 N.3   228  ILE228     -0.1245
     96  CA       -34.0400   27.1330  -20.1000 C.3   228  ILE228      0.1561
     97  C        -33.3170   25.8170  -19.7860 C.2   228  ILE228      0.2260
     98  O        -33.8230   24.7380  -20.1030 O.2   228  ILE228     -0.2867
     99  CB       -35.5320   27.1650  -19.6470 C.3   228  ILE228      0.0252
    100  CG1      -36.1790   28.5580  -19.9140 C.3   228  ILE228      0.0019
    101  CG2      -35.6380   26.8240  -18.1690 C.3   228  ILE228      0.0019
    102  CD1      -37.7060   28.5190  -19.9670 C.3   228  ILE228      0.0001
    103  N        -35.6680   22.7580  -13.6770 N.3   233  LEU233     -0.1231
    104  CA       -36.6370   23.3760  -14.5810 C.3   233  LEU233      0.1693
    105  C        -36.8710   22.3410  -15.6580 C.2   233  LEU233      0.2591
    106  O        -35.9090   21.6920  -16.0800 O.2   233  LEU233     -0.2718
    107  CB       -36.1640   24.7310  -15.1660 C.3   233  LEU233      0.0284
    108  CG       -36.2710   25.9160  -14.2040 C.3   233  LEU233      0.0019
    109  CD1      -35.1920   26.9210  -14.4650 C.3   233  LEU233      0.0001
    110  CD2      -37.6590   26.5500  -14.2360 C.3   233  LEU233      0.0001
    111  N        -38.1260   22.1000  -16.0480 N.am  234  VAL234     -0.1980
    112  CA       -38.3950   21.1100  -17.1130 C.3   234  VAL234      0.1595
    113  C        -37.4460   21.3420  -18.3130 C.2   234  VAL234      0.2287
    114  O        -37.2030   22.4870  -18.6900 O.2   234  VAL234     -0.2864
    115  CB       -39.8860   21.0060  -17.5230 C.3   234  VAL234      0.0276
    116  CG1      -40.7300   20.4710  -16.3600 C.3   234  VAL234      0.0022
    117  CG2      -40.4260   22.3420  -18.0430 C.3   234  VAL234      0.0022
    118  N        -44.3400   19.4230  -28.5040 N.3   248  ILE248     -0.1245
    119  CA       -43.3280   19.9130  -27.5370 C.3   248  ILE248      0.1561
    120  C        -43.1530   18.7250  -26.5740 C.2   248  ILE248      0.2260
    121  O        -44.1430   18.2220  -26.0150 O.2   248  ILE248     -0.2867
    122  CB       -43.6280   21.2580  -26.8070 C.3   248  ILE248      0.0252
    123  CG1      -43.7210   22.4390  -27.8060 C.3   248  ILE248      0.0019
    124  CG2      -42.5420   21.5570  -25.7550 C.3   248  ILE248      0.0019
    125  CD1      -44.2110   23.8320  -27.1650 C.3   248  ILE248      0.0001
    126  N        -41.1010   16.7360  -23.3150 N.3   250  ILE250     -0.1245
    127  CA       -40.2930   16.7460  -22.0870 C.3   250  ILE250      0.1561
    128  C        -40.3690   15.3430  -21.5200 C.2   250  ILE250      0.2260
    129  O        -41.2480   14.5710  -21.9140 O.2   250  ILE250     -0.2867
    130  CB       -40.6860   17.8300  -21.0240 C.3   250  ILE250      0.0252
    131  CG1      -42.0270   17.4880  -20.2920 C.3   250  ILE250      0.0019
    132  CG2      -40.6890   19.2450  -21.6120 C.3   250  ILE250      0.0019
    133  CD1      -42.1750   18.1460  -18.8440 C.3   250  ILE250      0.0001
    134  N        -41.4940   12.5920  -18.9640 N.3   252  PHE252     -0.1227
    135  CA       -42.6150   12.3670  -18.0800 C.3   252  PHE252      0.1736
    136  C        -42.1420   12.3290  -16.6120 C.2   252  PHE252      0.2595
    137  O        -41.1640   11.6580  -16.2910 O.2   252  PHE252     -0.2718
    138  CB       -43.3100   11.0550  -18.4770 C.3   252  PHE252      0.0547
    139  CG       -44.4910   10.6680  -17.6260 C.ar  252  PHE252     -0.0202
    140  CD1      -45.7590   11.1630  -17.9020 C.ar  252  PHE252     -0.0042
    141  CD2      -44.3400    9.7870  -16.5560 C.ar  252  PHE252     -0.0042
    142  CE1      -46.8600   10.7810  -17.1150 C.ar  252  PHE252     -0.0003
    143  CE2      -45.4310    9.4200  -15.7640 C.ar  252  PHE252     -0.0003
    144  CZ       -46.6820    9.9270  -16.0400 C.ar  252  PHE252     -0.0000
    145  N        -42.8310   13.0580  -15.7250 N.am  253  MET253     -0.1979
    146  CA       -42.4880   13.0990  -14.3090 C.3   253  MET253      0.1605
    147  C        -43.4290   12.1440  -13.5390 C.2   253  MET253      0.2287
    148  O        -44.5920   12.4500  -13.3440 O.2   253  MET253     -0.2864
    149  CB       -42.4840   14.5530  -13.7760 C.3   253  MET253      0.0413
    150  CG       -41.3770   15.4230  -14.4170 C.3   253  MET253      0.0598
    151  SD       -39.7120   15.0200  -13.7990 S.3   253  MET253     -0.1393
    152  CE       -39.7090   16.0120  -12.3170 C.3   253  MET253      0.0692
    153  N        -46.3830   13.1880  -10.8680 N.3   256  GLY256     -0.1225
    154  CA       -47.2710   14.2890  -11.2350 C.3   256  GLY256      0.1811
    155  C        -46.9210   15.6100  -10.5850 C.2   256  GLY256      0.2280
    156  O        -45.7670   15.8350  -10.1880 O.2   256  GLY256     -0.2866
    157  N        -33.5500   31.3670  -12.9280 N.3   289  LEU289     -0.1245
    158  CA       -34.4140   32.2510  -13.7230 C.3   289  LEU289      0.1561
    159  C        -34.1350   33.7190  -13.4100 C.2   289  LEU289      0.2260
    160  O        -34.2070   34.5580  -14.3070 O.2   289  LEU289     -0.2867
    161  CB       -35.9190   31.9280  -13.5880 C.3   289  LEU289      0.0270
    162  CG       -36.4460   30.5720  -14.1370 C.3   289  LEU289      0.0019
    163  CD1      -37.9360   30.3940  -13.8000 C.3   289  LEU289      0.0001
    164  CD2      -36.2520   30.4430  -15.6550 C.3   289  LEU289      0.0001
    165  N        -35.5360   36.1850  -16.1740 N.3   294  PHE294     -0.1241
    166  CA       -36.7830   35.6000  -16.6560 C.3   294  PHE294      0.1605
    167  C        -37.8550   35.7200  -15.5570 C.2   294  PHE294      0.2264
    168  O        -37.6070   35.3130  -14.4240 O.2   294  PHE294     -0.2867
    169  CB       -36.5780   34.1210  -17.0760 C.3   294  PHE294      0.0534
    170  CG       -37.7890   33.4820  -17.7350 C.ar  294  PHE294     -0.0203
    171  CD1      -37.9940   33.5900  -19.1070 C.ar  294  PHE294     -0.0042
    172  CD2      -38.7240   32.7750  -16.9810 C.ar  294  PHE294     -0.0042
    173  CE1      -39.1200   33.0080  -19.7120 C.ar  294  PHE294     -0.0003
    174  CE2      -39.8400   32.1850  -17.5860 C.ar  294  PHE294     -0.0003
    175  CZ       -40.0340   32.3090  -18.9440 C.ar  294  PHE294     -0.0000
    176  N        -41.2530   34.3480  -14.2390 N.3   296  HIS296     -0.1241
    177  CA       -42.1000   33.1500  -14.3190 C.3   296  HIS296      0.1621
    178  C        -43.5690   33.5290  -14.4190 C.2   296  HIS296      0.2264
    179  O        -44.2600   33.0150  -15.3000 O.2   296  HIS296     -0.2867
    180  CB       -41.8540   32.1900  -13.1220 C.3   296  HIS296      0.0745
    181  CG       -42.5370   30.8620  -13.2740 C.ar  296  HIS296      0.0817
    182  ND1      -43.8880   30.7140  -13.0300 N.ar  296  HIS296     -0.2268
    183  CD2      -42.0410   29.6790  -13.7060 C.ar  296  HIS296      0.1154
    184  CE1      -44.1730   29.4490  -13.2990 C.ar  296  HIS296      0.1986
    185  NE2      -43.0920   28.7820  -13.6960 N.ar  296  HIS296     -0.2212
    186  N        -43.3860   19.7870  -10.8260 N.3   305  LEU305     -0.1245
    187  CA       -43.5380   18.3500  -11.0950 C.3   305  LEU305      0.1561
    188  C        -42.5720   17.5330  -10.2530 C.2   305  LEU305      0.2260
    189  O        -41.4600   17.9750   -9.9850 O.2   305  LEU305     -0.2867
    190  CB       -43.3420   18.0430  -12.6040 C.3   305  LEU305      0.0270
    191  CG       -44.4330   18.5660  -13.5720 C.3   305  LEU305      0.0019
    192  CD1      -43.9440   18.5500  -15.0050 C.3   305  LEU305      0.0001
    193  CD2      -45.7490   17.7690  -13.4370 C.3   305  LEU305      0.0001
    194  N        -39.5780   22.8970  -11.7630 N.3   314  VAL314     -0.1231
    195  CA       -40.4960   24.0150  -11.9560 C.3   314  VAL314      0.1692
    196  C        -40.8900   23.9630  -13.4530 C.2   314  VAL314      0.2592
    197  O        -40.0630   23.6230  -14.3130 O.2   314  VAL314     -0.2718
    198  CB       -39.8780   25.3860  -11.5200 C.3   314  VAL314      0.0266
    199  CG1      -40.8140   26.5540  -11.8330 C.3   314  VAL314      0.0020
    200  CG2      -39.5180   25.3770  -10.0450 C.3   314  VAL314      0.0020
    201  N        -42.1790   24.1840  -13.7210 N.am  315  ALA315     -0.1966
    202  CA       -42.7880   24.1580  -15.0410 C.3   315  ALA315      0.1728
    203  C        -43.7780   25.3340  -15.1390 C.2   315  ALA315      0.2616
    204  O        -43.8360   26.1580  -14.2240 O.2   315  ALA315     -0.2715
    205  CB       -43.5140   22.8250  -15.2420 C.3   315  ALA315      0.0334
    206  N        -44.4810   25.4560  -16.2740 N.am  316  ASP316     -0.1957
    207  CA       -45.4790   26.5090  -16.5300 C.3   316  ASP316      0.1840
    208  C        -46.5470   25.9300  -17.4730 C.2   316  ASP316      0.2622
    209  O        -46.3080   25.8050  -18.6740 O.2   316  ASP316     -0.2715
    210  CB       -44.8210   27.7900  -17.1100 C.3   316  ASP316      0.1450
    211  CG       -45.7590   29.0080  -17.2360 C.2   316  ASP316      0.3671
    212  OD1      -46.8910   28.9510  -16.7100 O.co2 316  ASP316     -0.2456
    213  OD2      -45.3330   30.0300  -17.8100 O.co2 316  ASP316     -0.2456
    214  N        -47.6900   25.4910  -16.9020 N.am  317  PHE317     -0.1974
    215  CA       -48.7890   24.8730  -17.6540 C.3   317  PHE317      0.1639
    216  C        -49.8240   25.9100  -18.0770 C.2   317  PHE317      0.2290
    217  O        -49.4640   26.9870  -18.5480 O.2   317  PHE317     -0.2864
    218  CB       -49.4750   23.7550  -16.8440 C.3   317  PHE317      0.0560
    219  CG       -48.5980   22.8510  -16.0120 C.ar  317  PHE317     -0.0200
    220  CD1      -47.4210   22.3210  -16.5330 C.ar  317  PHE317     -0.0042
    221  CD2      -48.9830   22.4700  -14.7360 C.ar  317  PHE317     -0.0042
    222  CE1      -46.6290   21.4620  -15.7730 C.ar  317  PHE317     -0.0003
    223  CE2      -48.1850   21.6150  -13.9770 C.ar  317  PHE317     -0.0003
    224  CZ       -47.0090   21.1230  -14.4960 C.ar  317  PHE317     -0.0000
@<TRIPOS>BOND
     1    53    54    1
     2    62    63    1
     3    54    55    1
     4    54    57    1
     5    63    66    1
     6    63    64    1
     7    55    56    2
     8   118   119    1
     9    67    66    1
    10    67    68    1
    11    57    58    1
    12    47    46    2
    13   123   125    1
    14   123   122    1
    15    42    41    1
    16    69    68    1
    17    69    70    1
    18   119   122    1
    19   119   120    1
    20    64    71   am
    21    64    65    2
    22    46    45    1
    23    71    72    1
    24   122   124    1
    25    58    59    1
    26   120   121    2
    27    41    43    1
    28    41    38    1
    29    60    59   ar
    30    73    72    1
    31    73    74    2
    32    80    81    1
    33    72    75    1
    34    59    61   ar
    35    45    44    1
    36    45    48    1
    37    75    76    1
    38    44    39   am
    39    39    38    1
    40    39    40    2
    41    38    37    1
    42    48    49    1
    43    49    50    1
    44    81    82    1
    45    81    84    1
    46    79    77   ar
    47    86    84    1
    48    50    51    1
    49    76    77    1
    50    51    52    1
    51    87    82   am
    52    87    88    1
    53    82    83    2
    54    84    85    1
    55    89    88    1
    56    89    90    2
    57    37    34   am
    58    77    78   ar
    59    91    88    1
    60    91    92    1
    61    25    26    1
    62   126   127    1
    63    93    92    1
    64    93    94    1
    65    35    34    2
    66    34    33    1
    67    26    27    1
    68    26    29    1
    69    27    28    2
    70   127   128    1
    71   127   130    1
    72   129   128    2
    73    32    33    1
    74    33    36    1
    75    31    29    1
    76   132   130    1
    77    29    30    1
    78    95    96    1
    79   130   131    1
    80    16    15    2
    81   131   133    1
    82     1     2    1
    83    98    97    2
    84    96    97    1
    85    96    99    1
    86   102   100    1
    87   100    99    1
    88   173   171   ar
    89   173   175   ar
    90    15    14    1
    91    99   101    1
    92     6     7    1
    93     6     5    1
    94     6     8    1
    95   171   170   ar
    96   134   135    1
    97   175   174   ar
    98     5     2    1
    99     2     3    1
   100   114   113    2
   101   209   208    2
   102   217   216    2
   103   138   135    1
   104   138   139    1
   105   113   112    1
   106    14    17    1
   107    14    13    1
   108    17    18    1
   109   135   136    1
   110   216   215    1
   111   117   115    1
   112     4     3    2
   113   140   139   ar
   114   140   142   ar
   115   213   211   ar
   116     3     9   am
   117   170   169    1
   118   170   172   ar
   119   215   214    1
   120   215   218    1
   121   139   141   ar
   122   174   172   ar
   123   115   112    1
   124   115   116    1
   125   208   214   am
   126   208   207    1
   127   211   210    1
   128   211   212   ar
   129   142   144   ar
   130   112   111    1
   131   210   207    1
   132   169   166    1
   133   218   219    1
   134    18    20   ar
   135    18    19   ar
   136   166   165    1
   137   166   167    1
   138   136   137    2
   139   136   145   am
   140   141   143   ar
   141     9    10    1
   142    20    22   ar
   143   220   219   ar
   144   220   222   ar
   145   207   206    1
   146   206   203   am
   147   106   105    2
   148   111   105   am
   149   144   143   ar
   150   219   221   ar
   151   222   224   ar
   152    19    21   ar
   153   145   146    1
   154   105   104    1
   155   164   162    1
   156    11    10    1
   157    11    12    2
   158   167   168    2
   159   179   178    2
   160    22    23   ar
   161   205   202    1
   162   107   104    1
   163   107   108    1
   164   203   202    1
   165   203   204    2
   166   202   201    1
   167   192   191    1
   168   221   223   ar
   169   104   103    1
   170   224   223   ar
   171    21    23   ar
   172   109   108    1
   173   178   177    1
   174   150   151    1
   175   150   149    1
   176   177   176    1
   177   177   180    1
   178   197   196    2
   179   146   149    1
   180   146   147    1
   181   160   159    2
   182    23    24    1
   183   110   108    1
   184   162   163    1
   185   162   161    1
   186   151   152    1
   187   158   161    1
   188   158   159    1
   189   158   157    1
   190   201   196   am
   191   183   185   ar
   192   183   181   ar
   193   185   184   ar
   194   191   193    1
   195   191   190    1
   196   147   148    2
   197   196   195    1
   198   184   182   ar
   199   181   180    1
   200   181   182   ar
   201   190   187    1
   202   195   194    1
   203   195   198    1
   204   199   198    1
   205   198   200    1
   206   154   153    1
   207   154   155    1
   208   187   186    1
   209   187   188    1
   210   155   156    2
   211   188   189    2
