@<TRIPOS>MOLECULE
tmp/5mo4A01.pdb
 152 142 0 0 0
SMALL
GASTEIGER

@<TRIPOS>ATOM
      1  N        -46.7610   10.6480    4.6660 N.3   267  ARG267     -0.1245
      2  CA       -46.1230   11.6630    5.5100 C.3   267  ARG267      0.1563
      3  C        -44.9900   11.1340    6.4080 C.2   267  ARG267      0.2260
      4  O        -44.2150   11.9430    6.9340 O.2   267  ARG267     -0.2867
      5  CB       -47.1630   12.4350    6.3380 C.3   267  ARG267      0.0307
      6  CG       -48.0760   13.3060    5.5030 C.3   267  ARG267      0.0489
      7  CD       -48.7430   14.3600    6.3570 C.3   267  ARG267      0.2205
      8  NE       -49.8440   15.0100    5.6410 N.pl3 267  ARG267     -0.0865
      9  CZ       -50.6550   15.9160    6.1760 C.cat 267  ARG267      0.5346
     10  NH1      -50.5030   16.2900    7.4440 N.pl3 267  ARG267      0.1354
     11  NH2      -51.6290   16.4480    5.4540 N.pl3 267  ARG267      0.1354
     12  N        -39.7750   16.2240    7.1680 N.3   272  ALA272     -0.1245
     13  CA       -39.2260   17.5870    7.0940 C.3   272  ALA272      0.1562
     14  C        -38.0230   17.7120    6.1670 C.2   272  ALA272      0.2260
     15  O        -37.8960   18.7260    5.5010 O.2   272  ALA272     -0.2867
     16  CB       -38.8810   18.1080    8.4890 C.3   272  ALA272      0.0290
     17  N        -39.2700   17.5800    2.6060 N.3   275  LEU275     -0.1231
     18  CA       -39.9570   18.8350    2.2910 C.3   275  LEU275      0.1693
     19  C        -38.9350   19.9450    2.0290 C.2   275  LEU275      0.2591
     20  O        -39.0900   20.6550    1.0540 O.2   275  LEU275     -0.2718
     21  CB       -40.9460   19.2470    3.3840 C.3   275  LEU275      0.0284
     22  CG       -42.1260   18.2960    3.6800 C.3   275  LEU275      0.0019
     23  CD1      -42.9400   18.8090    4.8700 C.3   275  LEU275      0.0001
     24  CD2      -43.0700   18.1540    2.5000 C.3   275  LEU275      0.0001
     25  N        -37.8410   20.0270    2.8430 N.am  276  LEU276     -0.1980
     26  CA       -36.8010   21.0450    2.6880 C.3   276  LEU276      0.1596
     27  C        -36.0370   20.8370    1.3640 C.2   276  LEU276      0.2287
     28  O        -35.6340   21.8070    0.7030 O.2   276  LEU276     -0.2864
     29  CB       -35.8310   20.9830    3.9020 C.3   276  LEU276      0.0297
     30  CG       -34.6360   21.9370    3.9090 C.3   276  LEU276      0.0022
     31  CD1      -35.0930   23.4220    3.8860 C.3   276  LEU276      0.0001
     32  CD2      -33.7180   21.6610    5.1060 C.3   276  LEU276      0.0001
     33  N        -38.2700   22.2080   -1.4480 N.3   279  ALA279     -0.1245
     34  CA       -38.2730   23.6840   -1.4110 C.3   279  ALA279      0.1562
     35  C        -36.9480   24.2710   -1.9500 C.2   279  ALA279      0.2260
     36  O        -36.9720   25.2850   -2.6490 O.2   279  ALA279     -0.2867
     37  CB       -38.5320   24.1860    0.0130 C.3   279  ALA279      0.0290
     38  N        -43.8240   27.9580   -0.3160 N.3   346  LEU346     -0.1245
     39  CA       -43.1340   27.5150    0.8980 C.3   346  LEU346      0.1561
     40  C        -44.1890   27.1750    1.9800 C.2   346  LEU346      0.2260
     41  O        -44.0710   26.1470    2.6580 O.2   346  LEU346     -0.2867
     42  CB       -42.2410   28.6900    1.3450 C.3   346  LEU346      0.0270
     43  CG       -40.7930   28.4550    1.7310 C.3   346  LEU346      0.0019
     44  CD1      -40.0740   27.4940    0.7580 C.3   346  LEU346      0.0001
     45  CD2      -40.0510   29.7810    1.8260 C.3   346  LEU346      0.0001
     46  N        -45.8880   23.9270    1.0000 N.3   349  ILE349     -0.1231
     47  CA       -44.9950   22.8170    1.3570 C.3   349  ILE349      0.1692
     48  C        -45.0800   22.5600    2.8760 C.2   349  ILE349      0.2592
     49  O        -45.3220   21.4170    3.2910 O.2   349  ILE349     -0.2718
     50  CB       -43.5440   23.0460    0.8340 C.3   349  ILE349      0.0266
     51  CG1      -43.5320   23.0690   -0.7380 C.3   349  ILE349      0.0019
     52  CG2      -42.5770   21.9660    1.3980 C.3   349  ILE349      0.0020
     53  CD1      -42.1570   23.3270   -1.4370 C.3   349  ILE349      0.0001
     54  N        -44.9460   23.6380    3.6770 N.am  350  ALA350     -0.1966
     55  CA       -45.0020   23.6130    5.1290 C.3   350  ALA350      0.1728
     56  C        -46.3150   23.0520    5.6920 C.2   350  ALA350      0.2617
     57  O        -46.3450   22.6420    6.8540 O.2   350  ALA350     -0.2715
     58  CB       -44.7150   24.9980    5.6960 C.3   350  ALA350      0.0334
     59  N        -47.3680   22.9570    4.8540 N.am  351  THR351     -0.1937
     60  CA       -48.6830   22.4600    5.2630 C.3   351  THR351      0.2028
     61  C        -49.1540   21.1910    4.5640 C.2   351  THR351      0.2642
     62  O        -50.3000   20.8030    4.7860 O.2   351  THR351     -0.2714
     63  CB       -49.7600   23.5720    5.1020 C.3   351  THR351      0.1808
     64  OG1      -49.8590   23.9650    3.7260 O.3   351  THR351     -0.2208
     65  CG2      -49.5180   24.7680    6.0120 C.3   351  THR351      0.0379
     66  N        -48.3040   20.5310    3.7250 N.am  352  TYR352     -0.1973
     67  CA       -48.7090   19.3430    2.9320 C.3   352  TYR352      0.1639
     68  C        -49.8400   19.6710    1.9350 C.2   352  TYR352      0.2290
     69  O        -50.7710   18.8780    1.7200 O.2   352  TYR352     -0.2864
     70  CB       -49.0500   18.1080    3.8010 C.3   352  TYR352      0.0560
     71  CG       -47.8300   17.4570    4.4080 C.ar  352  TYR352     -0.0198
     72  CD1      -47.0920   16.5170    3.6960 C.ar  352  TYR352     -0.0009
     73  CD2      -47.3860   17.8130    5.6770 C.ar  352  TYR352     -0.0009
     74  CE1      -45.9600   15.9220    4.2460 C.ar  352  TYR352      0.0417
     75  CE2      -46.2680   17.2100    6.2480 C.ar  352  TYR352      0.0417
     76  CZ       -45.5590   16.2610    5.5290 C.ar  352  TYR352      0.1957
     77  OH       -44.4460   15.6860    6.0900 O.3   352  TYR352     -0.2866
     78  N        -51.9680   22.6700    1.8180 N.3   354  MET354     -0.1245
     79  CA       -53.2390   23.2980    2.1820 C.3   354  MET354      0.1570
     80  C        -53.4940   24.5070    1.2680 C.2   354  MET354      0.2261
     81  O        -52.5630   25.0800    0.6800 O.2   354  MET354     -0.2867
     82  CB       -53.2540   23.7280    3.6560 C.3   354  MET354      0.0387
     83  CG       -53.6460   22.6120    4.6140 C.3   354  MET354      0.0595
     84  SD       -53.3230   22.9950    6.3760 S.3   354  MET354     -0.1393
     85  CE       -54.3190   24.5480    6.5890 C.3   354  MET354      0.0692
     86  N        -48.3690   24.9720   11.6010 N.3   379  GLU379     -0.1231
     87  CA       -48.0930   24.1270   12.7520 C.3   379  GLU379      0.1699
     88  C        -46.8840   23.2400   12.4440 C.2   379  GLU379      0.2593
     89  O        -46.8810   22.5390   11.4340 O.2   379  GLU379     -0.2718
     90  CB       -49.3270   23.2710   13.0880 C.3   379  GLU379      0.0402
     91  CG       -49.2790   22.6620   14.4800 C.3   379  GLU379      0.1161
     92  CD       -50.3110   21.5900   14.7790 C.2   379  GLU379      0.3649
     93  OE1      -51.1120   21.2440   13.8800 O.co2 379  GLU379     -0.2457
     94  OE2      -50.3160   21.0960   15.9290 O.co2 379  GLU379     -0.2457
     95  N        -45.8610   23.3470   13.2920 N.am  380  GLY380     -0.1942
     96  CA       -44.6210   22.5920   13.1960 C.3   380  GLY380      0.2014
     97  C        -43.5370   23.2820   12.4040 C.2   380  GLY380      0.2639
     98  O        -42.3930   22.8080   12.4000 O.2   380  GLY380     -0.2714
     99  N        -43.8900   24.4150   11.7350 N.am  381  CYS381     -0.1954
    100  CA       -42.9700   25.1760   10.9000 C.3   381  CYS381      0.1828
    101  C        -41.8550   25.8220   11.7040 C.2   381  CYS381      0.2467
    102  O        -42.1380   26.6410   12.5780 O.2   381  CYS381     -0.2730
    103  CB       -43.7060   26.1890   10.0160 C.3   381  CYS381      0.0996
    104  SG       -42.6420   27.1190    8.8730 S.3   381  CYS381     -0.0797
    105  N        -40.5730   25.5080   11.3930 N.am  382  PRO382     -0.2726
    106  CA       -39.4690   26.1710   12.1110 C.3   382  PRO382      0.1402
    107  C        -39.4750   27.6870   11.8770 C.2   382  PRO382      0.2269
    108  O        -39.7550   28.1340   10.7580 O.2   382  PRO382     -0.2865
    109  CB       -38.2080   25.5010   11.5310 C.3   382  PRO382      0.0296
    110  CG       -38.6890   24.2430   10.8690 C.3   382  PRO382      0.0237
    111  CD       -40.0620   24.5540   10.3820 C.3   382  PRO382      0.0939
    112  N        -37.7810   29.2440    8.7940 N.3   385  VAL385     -0.1245
    113  CA       -38.4820   29.0490    7.5290 C.3   385  VAL385      0.1561
    114  C        -39.6390   30.0890    7.4310 C.2   385  VAL385      0.2260
    115  O        -39.8450   30.6760    6.3640 O.2   385  VAL385     -0.2867
    116  CB       -38.9750   27.5870    7.3410 C.3   385  VAL385      0.0252
    117  CG1      -39.9230   27.4710    6.1410 C.3   385  VAL385      0.0019
    118  CG2      -37.7950   26.6110    7.2190 C.3   385  VAL385      0.0019
    119  N        -31.2530   28.9150    2.5320 N.3   410  PHE410     -0.1241
    120  CA       -31.5880   27.4940    2.7050 C.3   410  PHE410      0.1605
    121  C        -30.3560   26.6160    2.9810 C.2   410  PHE410      0.2264
    122  O        -30.4090   25.7190    3.8250 O.2   410  PHE410     -0.2867
    123  CB       -32.3560   26.9390    1.4870 C.3   410  PHE410      0.0534
    124  CG       -33.8420   27.1840    1.5220 C.ar  410  PHE410     -0.0203
    125  CD1      -34.5950   26.8450    2.6450 C.ar  410  PHE410     -0.0042
    126  CD2      -34.4930   27.7640    0.4380 C.ar  410  PHE410     -0.0042
    127  CE1      -35.9680   27.0990    2.6910 C.ar  410  PHE410     -0.0003
    128  CE2      -35.8650   28.0060    0.4810 C.ar  410  PHE410     -0.0003
    129  CZ       -36.5940   27.6650    1.6040 C.ar  410  PHE410     -0.0000
    130  N        -33.5270   19.8950   10.4440 N.3   419  ILE419     -0.1245
    131  CA       -34.8910   20.4170   10.3080 C.3   419  ILE419      0.1561
    132  C        -35.8840   19.4680   10.9950 C.2   419  ILE419      0.2260
    133  O        -36.9140   19.9160   11.4880 O.2   419  ILE419     -0.2867
    134  CB       -35.2510   20.7710    8.8250 C.3   419  ILE419      0.0252
    135  CG1      -36.6230   21.5250    8.7420 C.3   419  ILE419      0.0019
    136  CG2      -35.1860   19.5240    7.9030 C.3   419  ILE419      0.0019
    137  CD1      -36.9680   22.1970    7.4490 C.3   419  ILE419      0.0001
    138  N        -38.5180   20.9230   13.6670 N.3   423  VAL423     -0.1245
    139  CA       -39.9410   20.6300   13.5120 C.3   423  VAL423      0.1561
    140  C        -40.4710   19.9640   14.7740 C.2   423  VAL423      0.2260
    141  O        -41.5740   20.3070   15.2140 O.2   423  VAL423     -0.2867
    142  CB       -40.2650   19.8580   12.1930 C.3   423  VAL423      0.0252
    143  CG1      -41.6930   19.3090   12.1720 C.3   423  VAL423      0.0019
    144  CG2      -40.0300   20.7490   10.9790 C.3   423  VAL423      0.0019
    145  N        -43.5370   21.2920   17.2510 N.3   427  LEU427     -0.1245
    146  CA       -44.7260   20.4770   17.4990 C.3   427  LEU427      0.1561
    147  C        -44.9230   20.2330   19.0180 C.2   427  LEU427      0.2260
    148  O        -46.0320   19.9050   19.4460 O.2   427  LEU427     -0.2867
    149  CB       -44.7020   19.1520   16.7120 C.3   427  LEU427      0.0270
    150  CG       -44.8610   19.2230   15.1800 C.3   427  LEU427      0.0019
    151  CD1      -44.4910   17.8930   14.5350 C.3   427  LEU427      0.0001
    152  CD2      -46.2830   19.6400   14.7730 C.3   427  LEU427      0.0001
@<TRIPOS>BOND
     1    36    35    2
     2    35    34    1
     3    33    34    1
     4    53    51    1
     5    34    37    1
     6    51    50    1
     7    38    39    1
     8   126   128   ar
     9   126   124   ar
    10   128   129   ar
    11    81    80    2
    12    28    27    2
    13    44    43    1
    14    50    47    1
    15    50    52    1
    16    39    42    1
    17    39    40    1
    18    46    47    1
    19    20    19    2
    20    80    79    1
    21    42    43    1
    22    47    48    1
    23    27    26    1
    24   123   124    1
    25   123   120    1
    26   124   125   ar
    27   129   127   ar
    28    69    68    2
    29    43    45    1
    30    78    79    1
    31    68    67    1
    32    40    41    2
    33    19    18    1
    34    19    25   am
    35    79    82    1
    36    18    17    1
    37    18    21    1
    38    24    22    1
    39   119   120    1
    40   125   127   ar
    41    26    25    1
    42    26    29    1
    43   120   121    1
    44    48    49    2
    45    48    54   am
    46    67    66    1
    47    67    70    1
    48   121   122    2
    49    21    22    1
    50    82    83    1
    51    54    55    1
    52    22    23    1
    53    72    74   ar
    54    72    71   ar
    55    66    61   am
    56    64    63    1
    57    70    71    1
    58    31    30    1
    59    29    30    1
    60    30    32    1
    61    74    76   ar
    62    71    73   ar
    63    61    62    2
    64    61    60    1
    65    83    84    1
    66     1     2    1
    67    59    60    1
    68    59    56   am
    69    63    60    1
    70    63    65    1
    71    55    56    1
    72    55    58    1
    73    11     9    1
    74    15    14    2
    75     6     5    1
    76     6     7    1
    77     2     5    1
    78     2     3    1
    79    76    77    1
    80    76    75   ar
    81     8     9    2
    82     8     7    1
    83    73    75   ar
    84    56    57    2
    85   117   116    1
    86    14    13    1
    87     9    10    1
    88   115   114    2
    89    84    85    1
    90     3     4    2
    91    13    12    1
    92    13    16    1
    93   118   116    1
    94   116   113    1
    95   114   113    1
    96   137   135    1
    97   113   112    1
    98   136   134    1
    99   135   134    1
   100   134   131    1
   101   104   103    1
   102   103   100    1
   103   131   130    1
   104   131   132    1
   105   111   110    1
   106   111   105    1
   107   108   107    2
   108   110   109    1
   109   100   101    1
   110   100    99    1
   111   144   142    1
   112   132   133    2
   113   105   101   am
   114   105   106    1
   115    89    88    2
   116   109   106    1
   117    86    87    1
   118   101   102    2
   119    99    97   am
   120   107   106    1
   121   143   142    1
   122   142   139    1
   123    98    97    2
   124    97    96    1
   125    88    87    1
   126    88    95   am
   127    87    90    1
   128    90    91    1
   129    96    95    1
   130   139   138    1
   131   139   140    1
   132    93    92   ar
   133    91    92    1
   134   151   150    1
   135   152   150    1
   136   140   141    2
   137    92    94   ar
   138   150   149    1
   139   149   146    1
   140   145   146    1
   141   146   147    1
   142   147   148    2
