@<TRIPOS>MOLECULE
tmp/5mo5A00.pdb
 169 159 0 0 0
SMALL
GASTEIGER

@<TRIPOS>ATOM
      1  N          7.9460  124.4590  360.2870 N.3    44  LEU44      -0.1231
      2  CA         7.3920  125.6710  359.6710 C.3    44  LEU44       0.1693
      3  C          8.2380  126.1490  358.4790 C.2    44  LEU44       0.2592
      4  O          7.7930  127.0030  357.7150 O.2    44  LEU44      -0.2718
      5  CB         7.2850  126.8090  360.6930 C.3    44  LEU44       0.0284
      6  CG         6.3950  126.5830  361.8990 C.3    44  LEU44       0.0019
      7  CD1        6.4900  127.7530  362.8410 C.3    44  LEU44       0.0001
      8  CD2        4.9600  126.3810  361.4860 C.3    44  LEU44       0.0001
      9  N          9.4550  125.6160  358.3610 N.am   45  GLY45      -0.1957
     10  CA        10.3810  125.9790  357.2980 C.3    45  GLY45       0.1869
     11  C         11.8120  125.5640  357.5560 C.2    45  GLY45       0.2309
     12  O         12.1300  124.9930  358.6060 O.2    45  GLY45      -0.2863
     13  N         13.0060  125.7350  361.5310 N.3    52  VAL52      -0.1245
     14  CA        12.0290  126.4040  362.3790 C.3    52  VAL52       0.1561
     15  C         10.8090  125.4900  362.6290 C.2    52  VAL52       0.2260
     16  O         10.2920  124.8850  361.7080 O.2    52  VAL52      -0.2867
     17  CB        11.6850  127.7960  361.8360 C.3    52  VAL52       0.0252
     18  CG1       10.6840  128.5170  362.7350 C.3    52  VAL52       0.0019
     19  CG2       12.9650  128.6350  361.6910 C.3    52  VAL52       0.0019
     20  N          1.3560  133.2880  361.2840 N.3   117  ASN117     -0.1225
     21  CA         1.4550  133.7670  359.9280 C.3   117  ASN117      0.1785
     22  C          0.3760  133.2930  358.9460 C.2   117  ASN117      0.2597
     23  O          0.0470  132.1380  358.8870 O.2   117  ASN117     -0.2718
     24  CB         2.8370  133.4370  359.3750 C.3   117  ASN117      0.1169
     25  CG         3.0910  134.0540  358.0080 C.2   117  ASN117      0.2627
     26  OD1        3.2100  133.3490  357.0260 O.2   117  ASN117     -0.2716
     27  ND2        3.1600  135.3620  357.9460 N.am  117  ASN117     -0.0877
     28  N         -0.1460  134.2440  358.1910 N.am  118  THR118     -0.1953
     29  CA        -1.1050  134.0760  357.1130 C.3   118  THR118      0.1897
     30  C         -0.2360  133.9260  355.8200 C.2   118  THR118      0.2313
     31  O          0.7790  134.5870  355.6950 O.2   118  THR118     -0.2863
     32  CB        -2.0000  135.3210  357.0310 C.3   118  THR118      0.1794
     33  OG1       -2.3400  135.7880  358.3390 O.3   118  THR118     -0.2208
     34  CG2       -3.2480  135.0110  356.3170 C.3   118  THR118      0.0378
     35  N          1.7880  134.1940  352.3530 N.3   120  PHE120     -0.1241
     36  CA         2.2830  135.2650  351.4640 C.3   120  PHE120      0.1605
     37  C          1.7160  135.1500  350.0510 C.2   120  PHE120      0.2264
     38  O          1.4520  136.1740  349.4130 O.2   120  PHE120     -0.2867
     39  CB         3.8290  135.2810  351.4090 C.3   120  PHE120      0.0534
     40  CG         4.4770  136.1700  350.3520 C.ar  120  PHE120     -0.0203
     41  CD1        4.2760  137.5490  350.3520 C.ar  120  PHE120     -0.0042
     42  CD2        5.3170  135.6280  349.3810 C.ar  120  PHE120     -0.0042
     43  CE1        4.8760  138.3630  349.3840 C.ar  120  PHE120     -0.0003
     44  CE2        5.9260  136.4470  348.4140 C.ar  120  PHE120     -0.0003
     45  CZ         5.7020  137.8070  348.4250 C.ar  120  PHE120     -0.0000
     46  N         -2.0040  136.1770  350.6890 N.3   123  LEU123     -0.1245
     47  CA        -2.0020  137.5720  351.1540 C.3   123  LEU123      0.1561
     48  C         -1.3920  138.3960  350.0000 C.2   123  LEU123      0.2260
     49  O         -0.2240  138.7990  350.0410 O.2   123  LEU123     -0.2867
     50  CB        -1.1560  137.6720  352.4570 C.3   123  LEU123      0.0270
     51  CG        -1.3690  138.8430  353.4290 C.3   123  LEU123      0.0019
     52  CD1       -2.7590  138.8300  354.0330 C.3   123  LEU123      0.0001
     53  CD2       -0.3770  138.7690  354.5680 C.3   123  LEU123      0.0001
     54  N         -5.1740  142.1840  349.4610 N.3   127  LEU127     -0.1245
     55  CA        -4.5790  143.3710  350.0980 C.3   127  LEU127      0.1561
     56  C         -4.8890  144.6340  349.2920 C.2   127  LEU127      0.2260
     57  O         -4.9240  144.6090  348.0580 O.2   127  LEU127     -0.2867
     58  CB        -3.0620  143.2430  350.3380 C.3   127  LEU127      0.0270
     59  CG        -2.5700  142.1470  351.3090 C.3   127  LEU127      0.0019
     60  CD1       -1.1150  141.8580  351.0780 C.3   127  LEU127      0.0001
     61  CD2       -2.7650  142.5280  352.7920 C.3   127  LEU127      0.0001
     62  N         -1.2210  147.9750  352.5170 N.3   132  ILE132     -0.1245
     63  CA         0.1760  148.0960  352.1380 C.3   132  ILE132      0.1561
     64  C          0.7640  149.2410  352.9190 C.2   132  ILE132      0.2260
     65  O          1.7790  149.0520  353.5630 O.2   132  ILE132     -0.2867
     66  CB         0.3730  148.2010  350.6010 C.3   132  ILE132      0.0252
     67  CG1       -0.1020  146.8800  349.9040 C.3   132  ILE132      0.0019
     68  CG2        1.8500  148.4540  350.2630 C.3   132  ILE132      0.0019
     69  CD1       -0.0920  146.9850  348.4460 C.3   132  ILE132      0.0001
     70  N          1.0750  148.0310  356.7680 N.3   135  TYR135     -0.1227
     71  CA         2.1410  147.0720  357.0670 C.3   135  TYR135      0.1736
     72  C          3.5340  147.6420  356.8170 C.2   135  TYR135      0.2595
     73  O          4.4250  147.3960  357.6210 O.2   135  TYR135     -0.2718
     74  CB         1.8830  145.7620  356.3240 C.3   135  TYR135      0.0548
     75  CG         0.7620  144.9780  356.9800 C.ar  135  TYR135     -0.0200
     76  CD1        0.7720  144.7160  358.3500 C.ar  135  TYR135     -0.0009
     77  CD2       -0.3000  144.4840  356.2310 C.ar  135  TYR135     -0.0009
     78  CE1       -0.2510  143.9910  358.9580 C.ar  135  TYR135      0.0417
     79  CE2       -1.3380  143.7600  356.8300 C.ar  135  TYR135      0.0417
     80  CZ        -1.3020  143.5050  358.1910 C.ar  135  TYR135      0.1957
     81  OH        -2.3030  142.7680  358.7840 O.3   135  TYR135     -0.2866
     82  N          3.6880  148.4920  355.7770 N.am  136  MET136     -0.1979
     83  CA         4.9580  149.1570  355.5180 C.3   136  MET136      0.1605
     84  C          5.3410  150.0210  356.7490 C.2   136  MET136      0.2287
     85  O          6.4970  150.0210  357.1440 O.2   136  MET136     -0.2864
     86  CB         4.8720  150.0210  354.2470 C.3   136  MET136      0.0413
     87  CG         5.0360  149.2230  352.9770 C.3   136  MET136      0.0598
     88  SD         6.7290  148.6180  352.7250 S.3   136  MET136     -0.1393
     89  CE         7.6060  150.1950  352.8410 C.3   136  MET136      0.0692
     90  N          6.6380  147.8530  359.6080 N.3   139  ILE139     -0.1245
     91  CA         8.0310  147.4300  359.3310 C.3   139  ILE139      0.1561
     92  C          8.9650  148.6290  359.6300 C.2   139  ILE139      0.2260
     93  O         10.0410  148.4400  360.1810 O.2   139  ILE139     -0.2867
     94  CB         8.2050  146.9670  357.8470 C.3   139  ILE139      0.0252
     95  CG1        7.2940  145.7390  357.5560 C.3   139  ILE139      0.0019
     96  CG2        9.6890  146.6110  357.5260 C.3   139  ILE139      0.0019
     97  CD1        7.1810  145.3720  356.0130 C.3   139  ILE139      0.0001
     98  N         10.4290  139.6530  352.1610 N.3   158  PRO158     -0.2102
     99  CA         9.0970  139.1910  352.6070 C.3   158  PRO158      0.1504
    100  C          9.1150  137.9620  353.4700 C.2   158  PRO158      0.2575
    101  O          8.3310  137.9300  354.3850 O.2   158  PRO158     -0.2718
    102  CB         8.3220  138.9990  351.3020 C.3   158  PRO158      0.0282
    103  CG         8.9910  139.9540  350.3250 C.3   158  PRO158      0.0208
    104  CD        10.4470  139.8480  350.6870 C.3   158  PRO158      0.0893
    105  N         10.0670  137.0200  353.2590 N.am  159  HIS159     -0.1976
    106  CA        10.1970  135.8060  354.0620 C.3   159  HIS159      0.1656
    107  C         10.5260  136.0910  355.5350 C.2   159  HIS159      0.2291
    108  O         10.1920  135.2940  356.4080 O.2   159  HIS159     -0.2864
    109  CB        11.2600  134.8940  353.4300 C.3   159  HIS159      0.0771
    110  CG        11.2030  133.4780  353.9080 C.ar  159  HIS159      0.0820
    111  ND1       10.1140  132.6540  353.6130 N.ar  159  HIS159     -0.2267
    112  CD2       12.1180  132.7580  354.6000 C.ar  159  HIS159      0.1154
    113  CE1       10.3970  131.4740  354.1500 C.ar  159  HIS159      0.1986
    114  NE2       11.5890  131.4820  354.7520 N.ar  159  HIS159     -0.2212
    115  N          9.3460  138.7520  357.2310 N.3   161  VAL161     -0.1231
    116  CA         8.2600  139.5870  357.7710 C.3   161  VAL161      0.1692
    117  C          7.0470  138.6620  358.0020 C.2   161  VAL161      0.2592
    118  O          6.5130  138.0880  357.0410 O.2   161  VAL161     -0.2718
    119  CB         7.9060  140.7700  356.8760 C.3   161  VAL161      0.0266
    120  CG1        6.7070  141.5450  357.4670 C.3   161  VAL161      0.0020
    121  CG2        9.0980  141.7030  356.7120 C.3   161  VAL161      0.0020
    122  N          6.6760  138.4600  359.2750 N.am  162  MET162     -0.1965
    123  CA         5.5250  137.6030  359.5920 C.3   162  MET162      0.1736
    124  C          4.3390  138.4490  359.9230 C.2   162  MET162      0.2616
    125  O          4.4560  139.3760  360.7150 O.2   162  MET162     -0.2715
    126  CB         5.8300  136.6260  360.6980 C.3   162  MET162      0.0427
    127  CG         6.8520  135.6010  360.2780 C.3   162  MET162      0.0599
    128  SD         7.0410  134.2400  361.4540 S.3   162  MET162     -0.1393
    129  CE         7.4000  135.0450  362.9180 C.3   162  MET162      0.0692
    130  N          3.2200  138.1580  359.2900 N.am  163  ILE163     -0.1977
    131  CA         1.9830  138.8800  359.4870 C.3   163  ILE163      0.1596
    132  C          0.8070  138.0000  359.8780 C.2   163  ILE163      0.2287
    133  O          0.5760  136.9990  359.2760 O.2   163  ILE163     -0.2864
    134  CB         1.6020  139.6410  358.2300 C.3   163  ILE163      0.0276
    135  CG1        2.6060  140.7310  357.9630 C.3   163  ILE163      0.0022
    136  CG2        0.2490  140.2860  358.3420 C.3   163  ILE163      0.0022
    137  CD1        2.6270  141.1650  356.5470 C.3   163  ILE163      0.0001
    138  N         11.4960  139.1270  361.6260 N.3   173  ILE173     -0.1245
    139  CA        12.1970  137.9400  362.1520 C.3   173  ILE173      0.1561
    140  C         13.5570  137.7310  361.5070 C.2   173  ILE173      0.2260
    141  O         13.9880  138.5160  360.6530 O.2   173  ILE173     -0.2867
    142  CB        11.2990  136.6330  362.0200 C.3   173  ILE173      0.0252
    143  CG1       11.2020  136.1470  360.5390 C.3   173  ILE173      0.0019
    144  CG2        9.9230  136.8120  362.6430 C.3   173  ILE173      0.0019
    145  CD1       10.7520  134.6600  360.3670 C.3   173  ILE173      0.0001
    146  N         10.8100  145.5880  348.5020 N.3   220  MET220     -0.1230
    147  CA         9.5660  144.9250  348.9560 C.3   220  MET220      0.1702
    148  C          8.3670  145.8110  348.5870 C.2   220  MET220      0.2592
    149  O          7.3330  145.2980  348.1560 O.2   220  MET220     -0.2718
    150  CB         9.5380  144.7480  350.4770 C.3   220  MET220      0.0401
    151  CG        10.4530  143.6890  350.9930 C.3   220  MET220      0.0596
    152  SD        10.2380  143.5490  352.7770 S.3   220  MET220     -0.1393
    153  CE         8.6690  142.8350  352.8750 C.3   220  MET220      0.0692
    154  N          8.5040  147.1230  348.7760 N.am  221  LEU221     -0.1980
    155  CA         7.3930  148.0250  348.4600 C.3   221  LEU221      0.1596
    156  C          7.1130  147.9880  346.9470 C.2   221  LEU221      0.2287
    157  O          5.9570  147.8330  346.5540 O.2   221  LEU221     -0.2864
    158  CB         7.6540  149.4530  348.9620 C.3   221  LEU221      0.0297
    159  CG         6.5760  150.5230  348.5840 C.3   221  LEU221      0.0022
    160  CD1        5.2940  150.3180  349.3540 C.3   221  LEU221      0.0001
    161  CD2        7.1220  151.9310  348.7550 C.3   221  LEU221      0.0001
    162  N          5.2920  144.8760  345.9410 N.3   224  MET224     -0.1245
    163  CA         3.9310  144.9230  346.4350 C.3   224  MET224      0.1570
    164  C          3.0290  145.8440  345.6240 C.2   224  MET224      0.2261
    165  O          1.9620  145.4070  345.2020 O.2   224  MET224     -0.2867
    166  CB         3.8750  145.3240  347.9050 C.3   224  MET224      0.0387
    167  CG         4.0960  144.1720  348.8620 C.3   224  MET224      0.0595
    168  SD         2.9960  142.7190  348.7530 S.3   224  MET224     -0.1393
    169  CE         1.3870  143.4740  348.9200 C.3   224  MET224      0.0692
@<TRIPOS>BOND
     1   165   164    2
     2   164   163    1
     3   162   163    1
     4   163   166    1
     5   157   156    2
     6   156   155    1
     7   166   167    1
     8    57    56    2
     9   149   148    2
    10    44    45   ar
    11    44    42   ar
    12    45    43   ar
    13    69    67    1
    14   155   154    1
    15   155   158    1
    16   146   147    1
    17   159   161    1
    18   159   158    1
    19   159   160    1
    20   148   154   am
    21   148   147    1
    22   168   167    1
    23   168   169    1
    24   147   150    1
    25    56    55    1
    26    42    40   ar
    27    43    41   ar
    28    38    37    2
    29    54    55    1
    30    67    66    1
    31    48    49    2
    32    48    47    1
    33    37    36    1
    34    55    58    1
    35    68    66    1
    36   103   104    1
    37   103   102    1
    38    58    59    1
    39    40    41   ar
    40    40    39    1
    41   150   151    1
    42    66    63    1
    43   104    98    1
    44    46    47    1
    45   151   152    1
    46    60    59    1
    47    47    50    1
    48   102    99    1
    49    59    61    1
    50    39    36    1
    51    36    35    1
    52    63    62    1
    53    63    64    1
    54    98    99    1
    55    50    51    1
    56    99   100    1
    57    88    89    1
    58    88    87    1
    59   152   153    1
    60    64    65    2
    61    87    86    1
    62   105   100   am
    63   105   106    1
    64    51    52    1
    65    51    53    1
    66   109   110    1
    67   109   106    1
    68   100   101    2
    69   111   110   ar
    70   111   113   ar
    71   110   112   ar
    72   106   107    1
    73   113   114   ar
    74    86    83    1
    75   112   114   ar
    76    83    82    1
    77    83    84    1
    78   107   108    2
    79    31    30    2
    80    82    72   am
    81    30    29    1
    82    97    95    1
    83    77    79   ar
    84    77    75   ar
    85    34    32    1
    86    74    75    1
    87    74    71    1
    88   137   135    1
    89   121   119    1
    90    84    85    2
    91    70    71    1
    92    72    71    1
    93    72    73    2
    94    79    80   ar
    95   119   120    1
    96   119   116    1
    97    75    76   ar
    98    26    25    2
    99    32    29    1
   100    32    33    1
   101   118   117    2
   102    29    28    1
   103   115   116    1
   104    10    11    1
   105    10     9    1
   106    96    94    1
   107    95    94    1
   108    11    12    2
   109     4     3    2
   110   116   117    1
   111    94    91    1
   112    27    25   am
   113   135   134    1
   114   117   122   am
   115    25    24    1
   116    80    81    1
   117    80    78   ar
   118    28    22   am
   119   134   136    1
   120   134   131    1
   121    76    78   ar
   122     9     3   am
   123     3     2    1
   124    23    22    2
   125    22    21    1
   126   122   123    1
   127   133   132    2
   128   130   131    1
   129   130   124   am
   130    91    90    1
   131    91    92    1
   132    24    21    1
   133   131   132    1
   134   123   124    1
   135   123   126    1
   136    92    93    2
   137     2     1    1
   138     2     5    1
   139   124   125    2
   140    21    20    1
   141   127   126    1
   142   127   128    1
   143   145   143    1
   144   143   142    1
   145   141   140    2
   146     5     6    1
   147   128   129    1
   148     8     6    1
   149   140   139    1
   150    13    14    1
   151   138   139    1
   152    19    17    1
   153    16    15    2
   154    17    14    1
   155    17    18    1
   156     6     7    1
   157   142   139    1
   158   142   144    1
   159    14    15    1
