@<TRIPOS>MOLECULE
tmp/5mo6B00.pdb
 170 165 0 0 0
SMALL
GASTEIGER

@<TRIPOS>ATOM
      1  N          1.3220  134.0680  360.7870 N.3   116  ASN116     -0.1225
      2  CA         1.5240  134.6340  359.4530 C.3   116  ASN116      0.1785
      3  C          0.4350  134.1910  358.4770 C.2   116  ASN116      0.2598
      4  O          0.2990  133.0010  358.1860 O.2   116  ASN116     -0.2718
      5  CB         2.9250  134.3270  358.9180 C.3   116  ASN116      0.1169
      6  CG         3.1600  134.8700  357.5230 C.2   116  ASN116      0.2627
      7  OD1        3.1810  134.1250  356.5350 O.2   116  ASN116     -0.2716
      8  ND2        3.2620  136.1910  357.4020 N.am  116  ASN116     -0.0877
      9  N         -0.3350  135.1520  357.9780 N.am  117  THR117     -0.1939
     10  CA        -1.4110  134.8620  357.0360 C.3   117  THR117      0.2028
     11  C         -0.8590  134.5340  355.6530 C.2   117  THR117      0.2642
     12  O          0.2700  134.8970  355.3230 O.2   117  THR117     -0.2714
     13  CB        -2.3940  136.0410  356.9200 C.3   117  THR117      0.1808
     14  OG1       -1.6720  137.2770  356.9810 O.3   117  THR117     -0.2208
     15  CG2       -3.4130  135.9970  358.0490 C.3   117  THR117      0.0379
     16  N         -1.6630  133.8470  354.8480 N.am  118  ASP118     -0.1957
     17  CA        -1.2560  133.4690  353.5000 C.3   118  ASP118      0.1840
     18  C         -0.9320  134.6980  352.6570 C.2   118  ASP118      0.2622
     19  O         -1.6200  135.7160  352.7360 O.2   118  ASP118     -0.2715
     20  CB        -2.3500  132.6400  352.8230 C.3   118  ASP118      0.1450
     21  CG        -3.6540  133.4000  352.6840 C.2   118  ASP118      0.3671
     22  OD1       -3.7340  134.5430  353.1800 O.co2 118  ASP118     -0.2456
     23  OD2       -4.6000  132.8530  352.0780 O.co2 118  ASP118     -0.2456
     24  N          0.1180  134.5950  351.8500 N.am  119  PHE119     -0.1974
     25  CA         0.5360  135.6980  350.9900 C.3   119  PHE119      0.1639
     26  C         -0.3420  135.7990  349.7460 C.2   119  PHE119      0.2290
     27  O         -0.4320  136.8580  349.1240 O.2   119  PHE119     -0.2864
     28  CB         2.0030  135.5360  350.5870 C.3   119  PHE119      0.0560
     29  CG         2.2710  134.3170  349.7520 C.ar  119  PHE119     -0.0200
     30  CD1        2.1190  134.3560  348.3760 C.ar  119  PHE119     -0.0042
     31  CD2        2.6760  133.1320  350.3430 C.ar  119  PHE119     -0.0042
     32  CE1        2.3650  133.2360  347.6050 C.ar  119  PHE119     -0.0003
     33  CE2        2.9240  132.0080  349.5770 C.ar  119  PHE119     -0.0003
     34  CZ         2.7680  132.0600  348.2060 C.ar  119  PHE119     -0.0000
     35  N         -2.9360  138.2240  350.3350 N.3   122  LEU122     -0.1231
     36  CA        -2.3520  139.5440  350.5470 C.3   122  LEU122      0.1693
     37  C         -1.5700  140.0090  349.3230 C.2   122  LEU122      0.2592
     38  O         -0.6680  140.8400  349.4300 O.2   122  LEU122     -0.2718
     39  CB        -1.4440  139.5360  351.7790 C.3   122  LEU122      0.0284
     40  CG        -2.0920  139.1070  353.0960 C.3   122  LEU122      0.0019
     41  CD1       -1.0440  138.5800  354.0640 C.3   122  LEU122      0.0001
     42  CD2       -2.8670  140.2610  353.7150 C.3   122  LEU122      0.0001
     43  N         -1.9220  139.4690  348.1610 N.am  123  TYR123     -0.1976
     44  CA        -1.2540  139.8280  346.9150 C.3   123  TYR123      0.1639
     45  C         -2.2460  139.9010  345.7590 C.2   123  TYR123      0.2290
     46  O         -1.8730  139.7410  344.5970 O.2   123  TYR123     -0.2864
     47  CB        -0.1440  138.8260  346.5930 C.3   123  TYR123      0.0560
     48  CG         0.9970  139.4130  345.7930 C.ar  123  TYR123     -0.0198
     49  CD1        0.9510  139.4520  344.4060 C.ar  123  TYR123     -0.0009
     50  CD2        2.1210  139.9290  346.4250 C.ar  123  TYR123     -0.0009
     51  CE1        1.9920  139.9870  343.6710 C.ar  123  TYR123      0.0417
     52  CE2        3.1670  140.4660  345.6990 C.ar  123  TYR123      0.0417
     53  CZ         3.0970  140.4930  344.3220 C.ar  123  TYR123      0.1957
     54  OH         4.1350  141.0270  343.5940 O.3   123  TYR123     -0.2866
     55  N         -5.1450  143.1760  348.6750 N.3   126  LEU126     -0.1245
     56  CA        -4.6330  144.3180  349.3970 C.3   126  LEU126      0.1561
     57  C         -5.0340  145.6040  348.7090 C.2   126  LEU126      0.2260
     58  O         -5.1740  145.6680  347.5130 O.2   126  LEU126     -0.2867
     59  CB        -3.1160  144.2240  349.5860 C.3   126  LEU126      0.0270
     60  CG        -2.6180  143.1360  350.5330 C.3   126  LEU126      0.0019
     61  CD1       -1.3360  143.4970  351.2420 C.3   126  LEU126      0.0001
     62  CD2       -3.6620  142.7360  351.5600 C.3   126  LEU126      0.0001
     63  N         -3.8590  149.4480  352.8330 N.3   130  ASP130     -0.1225
     64  CA        -3.1850  148.2800  353.4330 C.3   130  ASP130      0.1805
     65  C         -1.6620  148.3430  353.2360 C.2   130  ASP130      0.2597
     66  O         -0.9330  148.0500  354.1680 O.2   130  ASP130     -0.2718
     67  CB        -3.7090  146.9530  352.8560 C.3   130  ASP130      0.1424
     68  CG        -5.1680  146.6480  353.1660 C.2   130  ASP130      0.3668
     69  OD1       -5.5800  146.8210  354.3430 O.co2 130  ASP130     -0.2456
     70  OD2       -5.8730  146.1760  352.2600 O.co2 130  ASP130     -0.2456
     71  N         -1.1860  148.6930  352.0220 N.am  131  ILE131     -0.1980
     72  CA         0.2600  148.8460  351.7430 C.3   131  ILE131      0.1595
     73  C          0.8100  150.0170  352.5810 C.2   131  ILE131      0.2287
     74  O          1.8790  149.8830  353.1860 O.2   131  ILE131     -0.2864
     75  CB         0.5350  149.0780  350.2250 C.3   131  ILE131      0.0276
     76  CG1        0.0150  147.8750  349.3780 C.3   131  ILE131      0.0022
     77  CG2        2.0520  149.3540  349.9430 C.3   131  ILE131      0.0022
     78  CD1       -0.0790  148.1910  347.9440 C.3   131  ILE131      0.0001
     79  N          1.0090  148.8490  356.4260 N.3   134  TYR134     -0.1227
     80  CA         2.0920  147.8990  356.6980 C.3   134  TYR134      0.1736
     81  C          3.4890  148.4450  356.4290 C.2   134  TYR134      0.2595
     82  O          4.3990  148.1320  357.2060 O.2   134  TYR134     -0.2718
     83  CB         1.8750  146.5630  355.9870 C.3   134  TYR134      0.0548
     84  CG         0.7290  145.7920  356.5940 C.ar  134  TYR134     -0.0200
     85  CD1        0.7750  145.3630  357.9190 C.ar  134  TYR134     -0.0009
     86  CD2       -0.3730  145.4240  355.8280 C.ar  134  TYR134     -0.0009
     87  CE1       -0.2540  144.6140  358.4750 C.ar  134  TYR134      0.0417
     88  CE2       -1.4310  144.6960  356.3840 C.ar  134  TYR134      0.0417
     89  CZ        -1.3700  144.3030  357.7130 C.ar  134  TYR134      0.1957
     90  OH        -2.3770  143.5690  358.2950 O.3   134  TYR134     -0.2866
     91  N          3.6350  149.3180  355.4030 N.am  135  MET135     -0.1979
     92  CA         4.9100  149.9770  355.1310 C.3   135  MET135      0.1605
     93  C          5.2550  150.8140  356.3720 C.2   135  MET135      0.2287
     94  O          6.4190  150.8580  356.8020 O.2   135  MET135     -0.2864
     95  CB         4.8100  150.8720  353.8780 C.3   135  MET135      0.0413
     96  CG         4.9730  150.1190  352.5970 C.3   135  MET135      0.0598
     97  SD         6.6870  149.4680  352.3770 S.3   135  MET135     -0.1393
     98  CE         7.5680  151.0130  352.2970 C.3   135  MET135      0.0692
     99  N          6.6280  148.5480  359.2070 N.3   138  ILE138     -0.1245
    100  CA         8.0250  148.1450  358.9530 C.3   138  ILE138      0.1561
    101  C          8.9140  149.3410  359.3060 C.2   138  ILE138      0.2260
    102  O         10.0130  149.1580  359.8000 O.2   138  ILE138     -0.2867
    103  CB         8.2280  147.7750  357.4380 C.3   138  ILE138      0.0252
    104  CG1        7.3000  146.5720  357.0630 C.3   138  ILE138      0.0019
    105  CG2        9.7440  147.3600  357.2120 C.3   138  ILE138      0.0019
    106  CD1        7.3120  146.1210  355.6190 C.3   138  ILE138      0.0001
    107  N         10.4130  140.4920  351.8000 N.3   157  PRO157     -0.2102
    108  CA         9.0760  139.9950  352.2110 C.3   157  PRO157      0.1504
    109  C          9.1160  138.7510  353.0810 C.2   157  PRO157      0.2575
    110  O          8.3140  138.6690  353.9990 O.2   157  PRO157     -0.2718
    111  CB         8.3700  139.7610  350.8640 C.3   157  PRO157      0.0282
    112  CG         9.0070  140.7790  349.9600 C.3   157  PRO157      0.0208
    113  CD        10.4600  140.6580  350.3290 C.3   157  PRO157      0.0893
    114  N         10.0930  137.8350  352.8610 N.am  158  HIS158     -0.1976
    115  CA        10.2210  136.6020  353.6540 C.3   158  HIS158      0.1656
    116  C         10.5520  136.8700  355.1190 C.2   158  HIS158      0.2291
    117  O         10.2590  136.0340  355.9640 O.2   158  HIS158     -0.2864
    118  CB        11.2520  135.6440  353.0400 C.3   158  HIS158      0.0771
    119  CG        10.7090  134.7520  351.9610 C.ar  158  HIS158      0.0820
    120  ND1       11.5590  134.1010  351.0700 N.ar  158  HIS158     -0.2267
    121  CD2        9.4300  134.3640  351.7150 C.ar  158  HIS158      0.1154
    122  CE1       10.7700  133.3730  350.2930 C.ar  158  HIS158      0.1986
    123  NE2        9.4770  133.5000  350.6440 N.ar  158  HIS158     -0.2212
    124  N          9.3090  139.5480  356.7970 N.3   160  VAL160     -0.1231
    125  CA         8.2480  140.3720  357.3450 C.3   160  VAL160      0.1692
    126  C          7.0210  139.4530  357.5660 C.2   160  VAL160      0.2592
    127  O          6.4620  138.9370  356.5880 O.2   160  VAL160     -0.2718
    128  CB         7.9470  141.6230  356.4900 C.3   160  VAL160      0.0266
    129  CG1        6.7280  142.3850  357.0250 C.3   160  VAL160      0.0020
    130  CG2        9.1570  142.5620  356.4280 C.3   160  VAL160      0.0020
    131  N          6.6870  139.1790  358.8500 N.am  161  MET161     -0.1965
    132  CA         5.5490  138.3000  359.1910 C.3   161  MET161      0.1736
    133  C          4.3450  139.1810  359.4410 C.2   161  MET161      0.2616
    134  O          4.4460  140.1130  360.2330 O.2   161  MET161     -0.2715
    135  CB         5.8290  137.4420  360.4400 C.3   161  MET161      0.0427
    136  CG         6.9370  136.3960  360.2710 C.3   161  MET161      0.0599
    137  SD         6.6850  135.2540  358.9040 S.3   161  MET161     -0.1393
    138  CE         7.5580  133.8120  359.5210 C.3   161  MET161      0.0692
    139  N          3.2080  138.8990  358.7720 N.am  162  ILE162     -0.1977
    140  CA         1.9980  139.6880  358.9590 C.3   162  ILE162      0.1596
    141  C          0.8170  138.8140  359.4070 C.2   162  ILE162      0.2287
    142  O          0.4610  137.8810  358.7080 O.2   162  ILE162     -0.2864
    143  CB         1.6520  140.5110  357.6800 C.3   162  ILE162      0.0276
    144  CG1        2.6960  141.6360  357.4230 C.3   162  ILE162      0.0022
    145  CG2        0.2390  141.0970  357.7640 C.3   162  ILE162      0.0022
    146  CD1        2.5960  142.3430  356.1070 C.3   162  ILE162      0.0001
    147  N         10.7750  146.4190  348.0980 N.3   219  MET219     -0.1230
    148  CA         9.5420  145.7390  348.5230 C.3   219  MET219      0.1702
    149  C          8.3500  146.6290  348.2000 C.2   219  MET219      0.2592
    150  O          7.3630  146.1180  347.7240 O.2   219  MET219     -0.2718
    151  CB         9.5210  145.4470  350.0380 C.3   219  MET219      0.0401
    152  CG        10.6630  144.6580  350.5790 C.3   219  MET219      0.0596
    153  SD        10.2120  144.0490  352.2520 S.3   219  MET219     -0.1393
    154  CE         9.8360  145.4550  353.0790 C.3   219  MET219      0.0692
    155  N          8.5010  147.9690  348.3530 N.am  220  LEU220     -0.1980
    156  CA         7.4320  148.9160  348.0460 C.3   220  LEU220      0.1596
    157  C          7.1160  148.8520  346.5330 C.2   220  LEU220      0.2287
    158  O          5.9400  148.7790  346.1350 O.2   220  LEU220     -0.2864
    159  CB         7.8210  150.3730  348.4370 C.3   220  LEU220      0.0297
    160  CG         6.7480  151.4340  348.0870 C.3   220  LEU220      0.0022
    161  CD1        5.4550  151.1890  348.8450 C.3   220  LEU220      0.0001
    162  CD2        7.2770  152.8400  348.2330 C.3   220  LEU220      0.0001
    163  N          5.2660  145.7290  345.5490 N.3   223  MET223     -0.1245
    164  CA         3.8900  145.7960  346.0210 C.3   223  MET223      0.1570
    165  C          3.0050  146.7590  345.2340 C.2   223  MET223      0.2261
    166  O          1.9110  146.3830  344.8120 O.2   223  MET223     -0.2867
    167  CB         3.8580  146.1600  347.5080 C.3   223  MET223      0.0387
    168  CG         4.3160  145.0420  348.4310 C.3   223  MET223      0.0595
    169  SD         3.3230  143.5470  348.2590 S.3   223  MET223     -0.1393
    170  CE         1.6760  144.2030  348.5180 C.3   223  MET223      0.0692
@<TRIPOS>BOND
     1    54    53    1
     2    51    53   ar
     3    51    49   ar
     4    53    52   ar
     5    49    48   ar
     6    46    45    2
     7   166   165    2
     8   165   164    1
     9   163   164    1
    10    52    50   ar
    11    45    44    1
    12    48    50   ar
    13    48    47    1
    14   164   167    1
    15   158   157    2
    16   157   156    1
    17    47    44    1
    18    44    43    1
    19   167   168    1
    20    58    57    2
    21    32    34   ar
    22    32    30   ar
    23   150   149    2
    24    78    76    1
    25   156   155    1
    26   156   159    1
    27   160   162    1
    28   160   159    1
    29   160   161    1
    30   147   148    1
    31    43    37   am
    32   149   155   am
    33   149   148    1
    34    34    33   ar
    35   169   168    1
    36   169   170    1
    37    30    29   ar
    38   148   151    1
    39    55    56    1
    40    57    56    1
    41    27    26    2
    42    37    38    2
    43    37    36    1
    44    76    75    1
    45    56    59    1
    46    33    31   ar
    47    59    60    1
    48    26    25    1
    49    29    31   ar
    50    29    28    1
    51    77    75    1
    52   112   113    1
    53   112   111    1
    54   151   152    1
    55    75    72    1
    56   122   123   ar
    57   122   120   ar
    58   113   107    1
    59    35    36    1
    60    60    61    1
    61    60    62    1
    62    36    39    1
    63   152   153    1
    64    28    25    1
    65   123   121   ar
    66   111   108    1
    67    25    24    1
    68   120   119   ar
    69   121   119   ar
    70    72    71    1
    71    72    73    1
    72    39    40    1
    73   107   108    1
    74    24    18   am
    75   119   118    1
    76    71    65   am
    77    23    21   ar
    78   108   109    1
    79   153   154    1
    80    70    68   ar
    81    98    97    1
    82    97    96    1
    83    73    74    2
    84    96    95    1
    85    18    19    2
    86    18    17    1
    87    21    20    1
    88    21    22   ar
    89    20    17    1
    90    63    64    1
    91    67    68    1
    92    67    64    1
    93   114   109   am
    94   114   115    1
    95   118   115    1
    96   109   110    2
    97    40    42    1
    98    40    41    1
    99    68    69   ar
   100    65    64    1
   101    65    66    2
   102    17    16    1
   103   115   116    1
   104    95    92    1
   105    16    11   am
   106   116   117    2
   107    92    91    1
   108    92    93    1
   109    12    11    2
   110    91    81   am
   111   106   104    1
   112    11    10    1
   113    86    88   ar
   114    86    84   ar
   115    83    84    1
   116    83    80    1
   117   146   144    1
   118    93    94    2
   119    88    89   ar
   120    79    80    1
   121   130   128    1
   122    81    80    1
   123    81    82    2
   124   128   129    1
   125   128   125    1
   126     7     6    2
   127   127   126    2
   128    84    85   ar
   129   124   125    1
   130    13    14    1
   131    13    10    1
   132    13    15    1
   133    10     9    1
   134   104   103    1
   135   105   103    1
   136   125   126    1
   137     8     6   am
   138   144   143    1
   139   103   100    1
   140     6     5    1
   141   126   131   am
   142   143   145    1
   143   143   140    1
   144    89    90    1
   145    89    87   ar
   146    85    87   ar
   147     9     3   am
   148     4     3    2
   149     3     2    1
   150   142   141    2
   151   139   140    1
   152   139   133   am
   153   131   132    1
   154   137   138    1
   155   137   136    1
   156     5     2    1
   157   100    99    1
   158   100   101    1
   159   140   141    1
   160   132   133    1
   161   132   135    1
   162   101   102    2
   163   133   134    2
   164     2     1    1
   165   136   135    1
