@<TRIPOS>MOLECULE
tmp/5mobA00.pdb
 192 184 0 0 0
SMALL
GASTEIGER

@<TRIPOS>ATOM
      1  N         18.0910   21.2180    7.9440 N.3    69  LYS69      -0.1231
      2  CA        17.3480   20.3800    7.0050 C.3    69  LYS69       0.1693
      3  C         15.9060   20.8070    6.8940 C.2    69  LYS69       0.2592
      4  O         15.3040   21.2770    7.8590 O.2    69  LYS69      -0.2718
      5  CB        17.4410   18.8980    7.3930 C.3    69  LYS69       0.0285
      6  CG        18.8610   18.3700    7.3750 C.3    69  LYS69       0.0035
      7  CD        18.8760   16.8370    7.5380 C.3    69  LYS69       0.0206
      8  CE        20.3030   16.3080    7.5650 C.3    69  LYS69       0.1093
      9  NZ        20.3190   14.8080    7.6700 N.3    69  LYS69      -0.1314
     10  N         15.3590   20.6370    5.6970 N.am   70  HIS70      -0.1962
     11  CA        13.9650   20.9680    5.4280 C.3    70  HIS70       0.1787
     12  C         13.0170   19.8290    5.8430 C.2    70  HIS70       0.2620
     13  O         13.4200   18.6780    5.9620 O.2    70  HIS70      -0.2715
     14  CB        13.7790   21.2580    3.9350 C.3    70  HIS70       0.0785
     15  CG        14.4070   22.5370    3.4690 C.ar   70  HIS70       0.0821
     16  ND1       14.1650   23.7540    4.0720 N.ar   70  HIS70      -0.2267
     17  CD2       15.2420   22.7920    2.4340 C.ar   70  HIS70       0.1154
     18  CE1       14.8280   24.7010    3.4320 C.ar   70  HIS70       0.1986
     19  NE2       15.4860   24.1440    2.4320 N.ar   70  HIS70      -0.2212
     20  N         11.7520   20.1660    6.0830 N.am   71  PHE71      -0.1960
     21  CA        10.7020   19.1590    6.3150 C.3    71  PHE71       0.1771
     22  C         10.8940   18.2620    7.5430 C.2    71  PHE71       0.2619
     23  O         10.3430   17.1640    7.6010 O.2    71  PHE71      -0.2715
     24  CB        10.4660   18.2900    5.0590 C.3    71  PHE71       0.0574
     25  CG         9.9320   19.0560    3.8760 C.ar   71  PHE71      -0.0200
     26  CD1        8.5750   19.3410    3.7620 C.ar   71  PHE71      -0.0042
     27  CD2       10.7940   19.4950    2.8760 C.ar   71  PHE71      -0.0042
     28  CE1        8.0790   20.0510    2.6650 C.ar   71  PHE71      -0.0003
     29  CE2       10.3080   20.2050    1.7800 C.ar   71  PHE71      -0.0003
     30  CZ         8.9420   20.4810    1.6760 C.ar   71  PHE71      -0.0000
     31  N         11.6650   18.7110    8.5270 N.am   72  ILE72      -0.1977
     32  CA        11.8160   17.9250    9.7520 C.3    72  ILE72       0.1596
     33  C         10.7450   18.3190   10.7690 C.2    72  ILE72       0.2287
     34  O         10.7480   19.4420   11.2750 O.2    72  ILE72      -0.2864
     35  CB        13.2090   18.1140   10.3730 C.3    72  ILE72       0.0276
     36  CG1       14.3020   17.8650    9.3270 C.3    72  ILE72       0.0022
     37  CG2       13.3920   17.1880   11.5630 C.3    72  ILE72       0.0022
     38  CD1       14.2330   16.5020    8.6700 C.3    72  ILE72       0.0001
     39  N         13.9860   10.5150   13.2920 N.3    91  VAL91      -0.1245
     40  CA        13.5830   11.7310   12.6060 C.3    91  VAL91       0.1561
     41  C         12.1860   11.5170   12.0340 C.2    91  VAL91       0.2260
     42  O         11.8670   10.4360   11.5370 O.2    91  VAL91      -0.2867
     43  CB        14.5750   12.0560   11.4810 C.3    91  VAL91       0.0252
     44  CG1       14.3230   13.4500   10.9260 C.3    91  VAL91       0.0019
     45  CG2       16.0080   11.9580   12.0090 C.3    91  VAL91       0.0019
     46  N          9.6370   13.1680    9.2250 N.3    93  VAL93      -0.1245
     47  CA         9.8280   14.0260    8.0580 C.3    93  VAL93       0.1561
     48  C          8.4960   14.3320    7.3940 C.2    93  VAL93       0.2260
     49  O          7.8530   13.4440    6.8370 O.2    93  VAL93      -0.2867
     50  CB        10.7520   13.3600    7.0220 C.3    93  VAL93       0.0252
     51  CG1       10.8480   14.2120    5.7630 C.3    93  VAL93       0.0019
     52  CG2       12.1330   13.1160    7.6220 C.3    93  VAL93       0.0019
     53  N          7.2490   15.6610    4.6720 N.3    95  SER95      -0.1217
     54  CA         7.2010   15.9680    3.2460 C.3    95  SER95       0.1889
     55  C          6.1230   15.1360    2.5550 C.2    95  SER95       0.2288
     56  O          6.0580   15.0610    1.3220 O.2    95  SER95      -0.2866
     57  CB         8.5530   15.6780    2.6120 C.3    95  SER95       0.2089
     58  OG         8.8490   14.2990    2.7300 O.3    95  SER95      -0.2183
     59  N          7.0890   10.6210    6.6730 N.3   100  ALA100     -0.1231
     60  CA         8.0860    9.5560    6.5850 C.3   100  ALA100      0.1694
     61  C          8.8310    9.5220    7.9110 C.2   100  ALA100      0.2593
     62  O          8.8520   10.5050    8.6480 O.2   100  ALA100     -0.2718
     63  CB         9.0390    9.8080    5.4350 C.3   100  ALA100      0.0304
     64  N          9.4260    8.3830    8.2400 N.am  101  THR101     -0.1939
     65  CA        10.2230    8.3030    9.4540 C.3   101  THR101      0.2028
     66  C         11.5370    7.6370    9.1420 C.2   101  THR101      0.2642
     67  O         11.6190    6.7890    8.2540 O.2   101  THR101     -0.2714
     68  CB         9.5240    7.5190   10.5730 C.3   101  THR101      0.1808
     69  OG1        9.1310    6.2290   10.0860 O.3   101  THR101     -0.2208
     70  CG2        8.2990    8.2710   11.0540 C.3   101  THR101      0.0379
     71  N         12.5690    8.0440    9.8660 N.am  102  SER102     -0.1949
     72  CA        13.8850    7.4870    9.6530 C.3   102  SER102      0.1924
     73  C         14.6110    7.3480   10.9820 C.2   102  SER102      0.2314
     74  O         14.6710    8.2810   11.7820 O.2   102  SER102     -0.2863
     75  CB        14.6740    8.3860    8.7010 C.3   102  SER102      0.2116
     76  OG        15.9090    7.7910    8.3610 O.3   102  SER102     -0.2180
     77  N         18.2890    6.8250   12.3500 N.3   104  GLU104     -0.1245
     78  CA        19.6000    7.0640   11.7810 C.3   104  GLU104      0.1567
     79  C         20.6640    6.9160   12.8400 C.2   104  GLU104      0.2260
     80  O         20.4660    7.3250   13.9820 O.2   104  GLU104     -0.2867
     81  CB        19.6300    8.4610   11.1340 C.3   104  GLU104      0.0388
     82  CG        18.6300    8.5320    9.9810 C.3   104  GLU104      0.1160
     83  CD        18.3890    9.9310    9.4360 C.2   104  GLU104      0.3649
     84  OE1       18.9380   10.9270    9.9710 O.co2 104  GLU104     -0.2457
     85  OE2       17.6300   10.0250    8.4470 O.co2 104  GLU104     -0.2457
     86  N         26.1870    9.4920    8.6710 N.3   118  PHE118     -0.1241
     87  CA        25.1740    8.6450    9.2930 C.3   118  PHE118      0.1605
     88  C         24.6460    7.5850    8.3420 C.2   118  PHE118      0.2264
     89  O         24.8230    7.6770    7.1260 O.2   118  PHE118     -0.2867
     90  CB        24.0040    9.4920    9.8480 C.3   118  PHE118      0.0534
     91  CG        23.1170   10.0840    8.7860 C.ar  118  PHE118     -0.0203
     92  CD1       21.9910    9.4040    8.3420 C.ar  118  PHE118     -0.0042
     93  CD2       23.4110   11.3280    8.2350 C.ar  118  PHE118     -0.0042
     94  CE1       21.1700    9.9410    7.3620 C.ar  118  PHE118     -0.0003
     95  CE2       22.5910   11.8750    7.2560 C.ar  118  PHE118     -0.0003
     96  CZ        21.4660   11.1780    6.8200 C.ar  118  PHE118     -0.0000
     97  N         21.0370    5.1970    7.5960 N.3   120  ILE120     -0.1245
     98  CA        19.6310    4.9710    7.9080 C.3   120  ILE120      0.1561
     99  C         19.4550    3.4910    8.2430 C.2   120  ILE120      0.2260
    100  O         19.8520    2.6200    7.4620 O.2   120  ILE120     -0.2867
    101  CB        18.7280    5.3340    6.7410 C.3   120  ILE120      0.0252
    102  CG1       18.8340    6.8360    6.4490 C.3   120  ILE120      0.0019
    103  CG2       17.2880    4.9980    7.0680 C.3   120  ILE120      0.0019
    104  CD1       17.9190    7.2840    5.3320 C.3   120  ILE120      0.0001
    105  N         10.3790    4.3860    4.5330 N.3   125  HIS125     -0.1226
    106  CA        10.9570    5.1540    3.4360 C.3   125  HIS125      0.1752
    107  C         11.4240    4.1730    2.3750 C.2   125  HIS125      0.2596
    108  O         11.2650    2.9550    2.5300 O.2   125  HIS125     -0.2718
    109  CB        12.1490    5.9820    3.9410 C.3   125  HIS125      0.0759
    110  CG        13.1550    5.1630    4.6860 C.ar  125  HIS125      0.0818
    111  ND1       14.0980    4.3840    4.0490 N.ar  125  HIS125     -0.2268
    112  CD2       13.3280    4.9570    6.0120 C.ar  125  HIS125      0.1154
    113  CE1       14.8190    3.7440    4.9520 C.ar  125  HIS125      0.1986
    114  NE2       14.3680    4.0700    6.1520 N.ar  125  HIS125     -0.2212
    115  N         11.9970    4.6930    1.2960 N.am  126  ARG126     -0.1966
    116  CA        12.4580    3.8390    0.2070 C.3   126  ARG126      0.1729
    117  C         13.9370    4.0790   -0.1000 C.2   126  ARG126      0.2616
    118  O         14.3820    3.9170   -1.2410 O.2   126  ARG126     -0.2715
    119  CB        11.5880    4.0570   -1.0360 C.3   126  ARG126      0.0348
    120  CG        10.0990    3.8290   -0.7910 C.3   126  ARG126      0.0492
    121  CD         9.6490    2.4520   -1.2600 C.3   126  ARG126      0.2205
    122  NE         9.3710    2.4250   -2.6950 N.pl3 126  ARG126     -0.0865
    123  CZ         9.4820    1.3460   -3.4660 C.cat 126  ARG126      0.5346
    124  NH1        9.8790    0.1870   -2.9490 N.pl3 126  ARG126      0.1354
    125  NH2        9.2050    1.4270   -4.7600 N.pl3 126  ARG126      0.1354
    126  N         14.6880    4.4690    0.9290 N.am  127  LEU127     -0.1977
    127  CA        16.1270    4.6820    0.8090 C.3   127  LEU127      0.1596
    128  C         16.8960    3.6250    1.5940 C.2   127  LEU127      0.2287
    129  O         17.6810    3.9400    2.4960 O.2   127  LEU127     -0.2864
    130  CB        16.5150    6.0830    1.2800 C.3   127  LEU127      0.0297
    131  CG        15.8610    7.2090    0.4860 C.3   127  LEU127      0.0022
    132  CD1       16.4340    8.5450    0.9160 C.3   127  LEU127      0.0001
    133  CD2       16.0670    6.9790   -0.9990 C.3   127  LEU127      0.0001
    134  N         20.8190    3.5700    2.8290 N.3   130  TYR130     -0.1241
    135  CA        21.3150    4.9290    2.6930 C.3   130  TYR130      0.1605
    136  C         22.4020    5.2030    3.7220 C.2   130  TYR130      0.2264
    137  O         22.2250    4.9460    4.9200 O.2   130  TYR130     -0.2867
    138  CB        20.1810    5.9640    2.8240 C.3   130  TYR130      0.0534
    139  CG        20.6360    7.3850    2.5370 C.ar  130  TYR130     -0.0201
    140  CD1       20.5270    7.9280    1.2630 C.ar  130  TYR130     -0.0009
    141  CD2       21.1850    8.1800    3.5400 C.ar  130  TYR130     -0.0009
    142  CE1       20.9350    9.2450    0.9990 C.ar  130  TYR130      0.0417
    143  CE2       21.6110    9.5010    3.2800 C.ar  130  TYR130      0.0417
    144  CZ        21.4800   10.0160    2.0130 C.ar  130  TYR130      0.1957
    145  OH        21.9070   11.3030    1.7630 O.3   130  TYR130     -0.2866
    146  N         29.1290   16.6220    0.6190 N.3   151  GLU151     -0.1245
    147  CA        28.2700   15.5670    1.1410 C.3   151  GLU151      0.1567
    148  C         28.0270   14.5290    0.0650 C.2   151  GLU151      0.2260
    149  O         27.5700   14.8460   -1.0390 O.2   151  GLU151     -0.2867
    150  CB        26.9370   16.1430    1.6430 C.3   151  GLU151      0.0388
    151  CG        26.0500   15.1100    2.3370 C.3   151  GLU151      0.1160
    152  CD        24.8830   15.7600    3.0580 C.2   151  GLU151      0.3649
    153  OE1       24.8930   17.0000    3.2030 O.co2 151  GLU151     -0.2457
    154  OE2       23.9480   15.0470    3.4620 O.co2 151  GLU151     -0.2457
    155  N         15.9980   12.2960   -6.5710 N.3   169  PHE169     -0.1227
    156  CA        15.3680   12.4670   -5.2650 C.3   169  PHE169      0.1736
    157  C         16.3990   12.8110   -4.1880 C.2   169  PHE169      0.2595
    158  O         16.3140   13.8640   -3.5530 O.2   169  PHE169     -0.2718
    159  CB        14.5740   11.2040   -4.9010 C.3   169  PHE169      0.0547
    160  CG        14.0980   11.1640   -3.4760 C.ar  169  PHE169     -0.0202
    161  CD1       13.4740   12.2590   -2.9050 C.ar  169  PHE169     -0.0042
    162  CD2       14.2480   10.0120   -2.7160 C.ar  169  PHE169     -0.0042
    163  CE1       13.0370   12.2210   -1.5960 C.ar  169  PHE169     -0.0003
    164  CE2       13.8030    9.9670   -1.4040 C.ar  169  PHE169     -0.0003
    165  CZ        13.1920   11.0760   -0.8460 C.ar  169  PHE169     -0.0000
    166  N         17.3770   11.9260   -3.9970 N.am  170  ALA170     -0.1980
    167  CA        18.3870   12.1230   -2.9690 C.3   170  ALA170      0.1597
    168  C         19.2520   13.3510   -3.2340 C.2   170  ALA170      0.2287
    169  O         19.5460   14.1050   -2.3050 O.2   170  ALA170     -0.2864
    170  CB        19.2410   10.8720   -2.8000 C.3   170  ALA170      0.0319
    171  N         17.1890   16.4610   -2.1990 N.3   173  VAL173     -0.1231
    172  CA        17.0830   16.5930   -0.7560 C.3   173  VAL173      0.1692
    173  C         18.3930   17.1380   -0.1860 C.2   173  VAL173      0.2591
    174  O         18.3910   18.0870    0.6020 O.2   173  VAL173     -0.2718
    175  CB        16.7450   15.2500   -0.0820 C.3   173  VAL173      0.0266
    176  CG1       16.8490   15.3820    1.4300 C.3   173  VAL173      0.0020
    177  CG2       15.3390   14.7720   -0.4900 C.3   173  VAL173      0.0020
    178  N         19.5160   16.5440   -0.5900 N.am  174  VAL174     -0.1980
    179  CA        20.8020   16.9560   -0.0440 C.3   174  VAL174      0.1595
    180  C         21.1590   18.3660   -0.4840 C.2   174  VAL174      0.2287
    181  O         21.6410   19.1810    0.3170 O.2   174  VAL174     -0.2864
    182  CB        21.9190   15.9920   -0.4540 C.3   174  VAL174      0.0276
    183  CG1       23.2780   16.5230   -0.0090 C.3   174  VAL174      0.0022
    184  CG2       21.6640   14.6230    0.1690 C.3   174  VAL174      0.0022
    185  N         19.0420   20.9800    1.3390 N.3   177  ASN177     -0.1240
    186  CA        19.5310   21.0920    2.7090 C.3   177  ASN177      0.1653
    187  C         20.8980   21.7710    2.8220 C.2   177  ASN177      0.2266
    188  O         21.1500   22.4720    3.7970 O.2   177  ASN177     -0.2867
    189  CB        19.5510   19.7310    3.4100 C.3   177  ASN177      0.1155
    190  CG        18.1640   19.1890    3.6430 C.2   177  ASN177      0.2627
    191  OD1       17.1860   19.9510    3.6390 O.2   177  ASN177     -0.2716
    192  ND2       18.0630   17.8850    3.8490 N.am  177  ASN177     -0.0877
@<TRIPOS>BOND
     1   155   156    1
     2   156   159    1
     3   156   157    1
     4   159   160    1
     5   125   123    1
     6   157   166   am
     7   157   158    2
     8   166   167    1
     9   160   161   ar
    10   160   162   ar
    11   123   124    1
    12   123   122    2
    13   168   167    1
    14   168   169    2
    15   167   170    1
    16   161   163   ar
    17   162   164   ar
    18   122   121    1
    19   171   172    1
    20   163   165   ar
    21   164   165   ar
    22   121   120    1
    23   118   117    2
    24   149   148    2
    25   119   120    1
    26   119   116    1
    27   133   131    1
    28   172   173    1
    29   172   175    1
    30   178   173   am
    31   178   179    1
    32   177   175    1
    33   180   179    1
    34   180   181    2
    35   182   179    1
    36   182   183    1
    37   182   184    1
    38   173   174    2
    39   117   116    1
    40   117   126   am
    41   175   176    1
    42   148   147    1
    43   116   115    1
    44   131   132    1
    45   131   130    1
    46   146   147    1
    47   127   126    1
    48   127   130    1
    49   127   128    1
    50   142   140   ar
    51   142   144   ar
    52   147   150    1
    53   140   139   ar
    54   115   107   am
    55    56    55    2
    56   185   186    1
    57   128   129    2
    58   150   151    1
    59    30    29   ar
    60    30    28   ar
    61   145   144    1
    62    29    27   ar
    63   144   143   ar
    64   151   152    1
    65   107   108    2
    66   107   106    1
    67    19    17   ar
    68    19    18   ar
    69    17    15   ar
    70   139   138    1
    71   139   141   ar
    72    55    54    1
    73    57    58    1
    74    57    54    1
    75    28    26   ar
    76   135   138    1
    77   135   134    1
    78   135   136    1
    79   186   187    1
    80   186   189    1
    81   187   188    2
    82    27    25   ar
    83   152   153   ar
    84   152   154   ar
    85    54    53    1
    86   143   141   ar
    87   189   190    1
    88    18    16   ar
    89   106   109    1
    90   106   105    1
    91    15    14    1
    92    15    16   ar
    93   191   190    2
    94   190   192   am
    95   136   137    2
    96    26    25   ar
    97    25    24    1
    98    14    11    1
    99   109   110    1
   100   111   110   ar
   101   111   113   ar
   102   110   112   ar
   103   113   114   ar
   104    24    21    1
   105   104   102    1
   106    11    10    1
   107    11    12    1
   108    63    60    1
   109    10     3   am
   110    51    50    1
   111    12    13    2
   112    12    20   am
   113   112   114   ar
   114    20    21    1
   115    21    22    1
   116   102   101    1
   117    60    59    1
   118    60    61    1
   119   101   103    1
   120   101    98    1
   121    96    95   ar
   122    96    94   ar
   123    49    48    2
   124     3     2    1
   125     3     4    2
   126     2     5    1
   127     2     1    1
   128    50    52    1
   129    50    47    1
   130    89    88    2
   131    95    93   ar
   132    94    92   ar
   133     6     5    1
   134     6     7    1
   135    48    47    1
   136   100    99    2
   137     7     8    1
   138    22    23    2
   139    22    31   am
   140     8     9    1
   141    97    98    1
   142    98    99    1
   143    61    64   am
   144    61    62    2
   145    47    46    1
   146    93    91   ar
   147    64    65    1
   148    67    66    2
   149    92    91   ar
   150    88    87    1
   151    76    75    1
   152    85    83   ar
   153    31    32    1
   154    38    36    1
   155    86    87    1
   156    75    72    1
   157    91    90    1
   158    66    65    1
   159    66    71   am
   160    87    90    1
   161    36    35    1
   162    83    84   ar
   163    83    82    1
   164    65    68    1
   165    72    71    1
   166    72    73    1
   167    32    35    1
   168    32    33    1
   169    82    81    1
   170    69    68    1
   171    35    37    1
   172    68    70    1
   173    33    34    2
   174    44    43    1
   175    73    74    2
   176    81    78    1
   177    43    45    1
   178    43    40    1
   179    42    41    2
   180    78    77    1
   181    78    79    1
   182    41    40    1
   183    40    39    1
   184    79    80    2
