@<TRIPOS>MOLECULE
tmp/5modB00.pdb
 146 140 0 0 0
SMALL
GASTEIGER

@<TRIPOS>ATOM
      1  N          1.8060  133.8840  360.4580 N.3   117  ASN117     -0.1225
      2  CA         1.9880  134.5020  359.1400 C.3   117  ASN117      0.1785
      3  C          0.9460  134.1000  358.1100 C.2   117  ASN117      0.2597
      4  O          0.7580  132.9140  357.8180 O.2   117  ASN117     -0.2718
      5  CB         3.3980  134.2910  358.6120 C.3   117  ASN117      0.1169
      6  CG         3.6970  134.9870  357.3130 C.2   117  ASN117      0.2627
      7  OD1        3.6220  136.2270  357.1770 O.2   117  ASN117     -0.2716
      8  ND2        4.2300  134.2220  356.3940 N.am  117  ASN117     -0.0877
      9  N          0.2880  135.1280  357.5530 N.am  118  THR118     -0.1953
     10  CA        -0.7510  135.0310  356.5320 C.3   118  THR118      0.1897
     11  C         -0.0680  134.7840  355.2000 C.2   118  THR118      0.2313
     12  O          0.9430  135.4430  354.8850 O.2   118  THR118     -0.2863
     13  CB        -1.5960  136.3380  356.5220 C.3   118  THR118      0.1794
     14  OG1       -2.0890  136.5840  357.8370 O.3   118  THR118     -0.2208
     15  CG2       -2.7650  136.2990  355.5370 C.3   118  THR118      0.0378
     16  N          0.0900  135.3650  351.6400 N.3   120  PHE120     -0.1241
     17  CA        -0.4110  136.4570  350.8170 C.3   120  PHE120      0.1605
     18  C         -0.5380  136.0850  349.3260 C.2   120  PHE120      0.2264
     19  O         -0.9550  136.9320  348.5360 O.2   120  PHE120     -0.2867
     20  CB         0.3730  137.7550  351.0440 C.3   120  PHE120      0.0534
     21  CG        -0.2160  138.5750  352.1710 C.ar  120  PHE120     -0.0203
     22  CD1       -1.2770  139.4420  351.9410 C.ar  120  PHE120     -0.0042
     23  CD2        0.2680  138.4560  353.4670 C.ar  120  PHE120     -0.0042
     24  CE1       -1.8360  140.1810  352.9850 C.ar  120  PHE120     -0.0003
     25  CE2       -0.2800  139.2090  354.5070 C.ar  120  PHE120     -0.0003
     26  CZ        -1.3290  140.0640  354.2600 C.ar  120  PHE120     -0.0000
     27  N         -3.0190  138.6330  347.6480 N.3   124  TYR124     -0.1241
     28  CA        -2.2370  139.6120  346.8690 C.3   124  TYR124      0.1605
     29  C         -3.2180  140.4600  346.0570 C.2   124  TYR124      0.2264
     30  O         -2.9630  141.6430  345.8140 O.2   124  TYR124     -0.2867
     31  CB        -1.2550  138.8900  345.9210 C.3   124  TYR124      0.0534
     32  CG        -0.0420  139.6960  345.4990 C.ar  124  TYR124     -0.0201
     33  CD1        0.9240  140.0800  346.4270 C.ar  124  TYR124     -0.0009
     34  CD2        0.1990  139.9760  344.1550 C.ar  124  TYR124     -0.0009
     35  CE1        2.0640  140.7870  346.0390 C.ar  124  TYR124      0.0417
     36  CE2        1.3420  140.6740  343.7520 C.ar  124  TYR124      0.0417
     37  CZ         2.2720  141.0790  344.6990 C.ar  124  TYR124      0.1957
     38  OH         3.4050  141.7650  344.3200 O.3   124  TYR124     -0.2866
     39  N         -5.0700  142.6990  348.8480 N.3   127  LEU127     -0.1245
     40  CA        -4.2830  143.8210  349.3930 C.3   127  LEU127      0.1561
     41  C         -4.7920  145.1390  348.8150 C.2   127  LEU127      0.2260
     42  O         -4.9950  145.2410  347.6100 O.2   127  LEU127     -0.2867
     43  CB        -2.7850  143.6870  349.0550 C.3   127  LEU127      0.0270
     44  CG        -1.8960  142.9280  350.0350 C.3   127  LEU127      0.0019
     45  CD1       -0.5730  142.5550  349.3830 C.3   127  LEU127      0.0001
     46  CD2       -1.6640  143.7170  351.3140 C.3   127  LEU127      0.0001
     47  N         -3.6970  149.0120  353.0090 N.3   131  ASP131     -0.1225
     48  CA        -2.8810  147.9520  353.6460 C.3   131  ASP131      0.1805
     49  C         -1.3880  148.1650  353.4180 C.2   131  ASP131      0.2597
     50  O         -0.6030  147.8760  354.3100 O.2   131  ASP131     -0.2718
     51  CB        -3.1850  146.5620  353.0820 C.3   131  ASP131      0.1424
     52  CG        -4.5940  146.0860  353.3130 C.2   131  ASP131      0.3668
     53  OD1       -5.1610  146.4150  354.3790 O.co2 131  ASP131     -0.2456
     54  OD2       -5.1350  145.3760  352.4190 O.co2 131  ASP131     -0.2456
     55  N         -1.0130  148.6150  352.2070 N.am  132  ILE132     -0.1980
     56  CA         0.3760  148.7960  351.8410 C.3   132  ILE132      0.1595
     57  C          0.9430  149.8890  352.6370 C.2   132  ILE132      0.2287
     58  O          1.9880  149.6580  353.2320 O.2   132  ILE132     -0.2864
     59  CB         0.6520  148.8960  350.3160 C.3   132  ILE132      0.0276
     60  CG1        0.2430  147.5600  349.6030 C.3   132  ILE132      0.0022
     61  CG2        2.1580  149.1810  350.0510 C.3   132  ILE132      0.0022
     62  CD1        0.2180  147.6550  348.0740 C.3   132  ILE132      0.0001
     63  N          1.2380  148.6460  356.4900 N.3   135  TYR135     -0.1227
     64  CA         2.3050  147.6910  356.7340 C.3   135  TYR135      0.1736
     65  C          3.6950  148.2720  356.4770 C.2   135  TYR135      0.2595
     66  O          4.6170  147.9680  357.2440 O.2   135  TYR135     -0.2718
     67  CB         2.0650  146.3770  355.9770 C.3   135  TYR135      0.0548
     68  CG         0.9670  145.5480  356.6110 C.ar  135  TYR135     -0.0200
     69  CD1        1.0370  145.1660  357.9510 C.ar  135  TYR135     -0.0009
     70  CD2       -0.1430  145.1340  355.8670 C.ar  135  TYR135     -0.0009
     71  CE1        0.0110  144.4340  358.5500 C.ar  135  TYR135      0.0417
     72  CE2       -1.1710  144.3890  356.4540 C.ar  135  TYR135      0.0417
     73  CZ        -1.0870  144.0430  357.7950 C.ar  135  TYR135      0.1957
     74  OH        -2.0650  143.2770  358.3800 O.3   135  TYR135     -0.2866
     75  N          3.8260  149.1620  355.4590 N.am  136  MET136     -0.1979
     76  CA         5.0800  149.8730  355.1810 C.3   136  MET136      0.1605
     77  C          5.4780  150.7440  356.4050 C.2   136  MET136      0.2287
     78  O          6.6480  150.7870  356.7590 O.2   136  MET136     -0.2864
     79  CB         4.9580  150.7540  353.9210 C.3   136  MET136      0.0413
     80  CG         5.1130  149.9900  352.6040 C.3   136  MET136      0.0598
     81  SD         6.8140  149.3800  352.3480 S.3   136  MET136     -0.1393
     82  CE         7.6470  150.9060  352.1680 C.3   136  MET136      0.0692
     83  N          6.8590  148.5560  359.2200 N.3   139  ILE139     -0.1245
     84  CA         8.2580  148.1740  358.9300 C.3   139  ILE139      0.1561
     85  C          9.1810  149.3470  359.2850 C.2   139  ILE139      0.2260
     86  O         10.2480  149.1440  359.8850 O.2   139  ILE139     -0.2867
     87  CB         8.4500  147.7430  357.4280 C.3   139  ILE139      0.0252
     88  CG1        7.6260  146.4680  357.0990 C.3   139  ILE139      0.0019
     89  CG2        9.9370  147.4950  357.1260 C.3   139  ILE139      0.0019
     90  CD1        7.4760  146.1400  355.4900 C.3   139  ILE139      0.0001
     91  N         10.6010  140.4510  351.7260 N.3   158  PRO158     -0.2102
     92  CA         9.2710  139.9640  352.1690 C.3   158  PRO158      0.1504
     93  C          9.3000  138.7280  353.0540 C.2   158  PRO158      0.2575
     94  O          8.5100  138.6800  353.9770 O.2   158  PRO158     -0.2718
     95  CB         8.5380  139.6900  350.8520 C.3   158  PRO158      0.0282
     96  CG         9.1850  140.6580  349.8870 C.3   158  PRO158      0.0208
     97  CD        10.6360  140.6030  350.2570 C.3   158  PRO158      0.0893
     98  N         10.2170  137.7610  352.8270 N.am  159  HIS159     -0.1976
     99  CA        10.3080  136.5560  353.6640 C.3   159  HIS159      0.1656
    100  C         10.7240  136.8420  355.1200 C.2   159  HIS159      0.2291
    101  O         10.4140  136.0510  355.9940 O.2   159  HIS159     -0.2864
    102  CB        11.2060  135.4760  353.0240 C.3   159  HIS159      0.0771
    103  CG        10.5170  134.7040  351.9240 C.ar  159  HIS159      0.0820
    104  ND1       11.2330  134.1450  350.8600 N.ar  159  HIS159     -0.2267
    105  CD2        9.1990  134.4500  351.7380 C.ar  159  HIS159      0.1154
    106  CE1       10.3270  133.5530  350.0930 C.ar  159  HIS159      0.1986
    107  NE2        9.0930  133.7080  350.5820 N.ar  159  HIS159     -0.2212
    108  N          9.6410  139.4570  356.8410 N.3   161  VAL161     -0.1231
    109  CA         8.5690  140.2950  357.3740 C.3   161  VAL161      0.1692
    110  C          7.3590  139.3790  357.5750 C.2   161  VAL161      0.2592
    111  O          6.7420  138.9270  356.5920 O.2   161  VAL161     -0.2718
    112  CB         8.2490  141.5050  356.4550 C.3   161  VAL161      0.0266
    113  CG1        7.0560  142.2960  356.9910 C.3   161  VAL161      0.0020
    114  CG2        9.4700  142.4170  356.2790 C.3   161  VAL161      0.0020
    115  N          7.0420  139.0790  358.8420 N.am  162  MET162     -0.1965
    116  CA         5.9050  138.2310  359.1950 C.3   162  MET162      0.1736
    117  C          4.6800  139.0860  359.4750 C.2   162  MET162      0.2616
    118  O          4.7610  140.0470  360.2420 O.2   162  MET162     -0.2715
    119  CB         6.2430  137.3420  360.3970 C.3   162  MET162      0.0427
    120  CG         7.0410  136.1170  360.0250 C.3   162  MET162      0.0599
    121  SD         7.4160  135.1380  361.4850 S.3   162  MET162     -0.1393
    122  CE         7.8610  133.5860  360.7450 C.3   162  MET162      0.0692
    123  N          3.5570  138.7700  358.8060 N.am  163  ILE163     -0.1977
    124  CA         2.3090  139.5200  358.9460 C.3   163  ILE163      0.1596
    125  C          1.1430  138.6130  359.3160 C.2   163  ILE163      0.2287
    126  O          0.8580  137.6440  358.6090 O.2   163  ILE163     -0.2864
    127  CB         1.9830  140.3540  357.6790 C.3   163  ILE163      0.0276
    128  CG1        3.0210  141.4750  357.4500 C.3   163  ILE163      0.0022
    129  CG2        0.5740  140.9240  357.7580 C.3   163  ILE163      0.0022
    130  CD1        3.0290  142.1360  356.0220 C.3   163  ILE163      0.0001
    131  N         10.9330  146.4380  348.0150 N.3   220  MET220     -0.1245
    132  CA         9.7040  145.7750  348.5060 C.3   220  MET220      0.1570
    133  C          8.4710  146.6040  348.1360 C.2   220  MET220      0.2261
    134  O          7.4660  146.0550  347.7170 O.2   220  MET220     -0.2867
    135  CB         9.7710  145.6090  350.0260 C.3   220  MET220      0.0387
    136  CG        10.6260  144.4200  350.4640 C.3   220  MET220      0.0595
    137  SD        10.5140  144.1250  352.2640 S.3   220  MET220     -0.1393
    138  CE         8.9500  143.6110  352.4030 C.3   220  MET220      0.0692
    139  N          5.3890  145.6970  345.5450 N.3   224  MET224     -0.1245
    140  CA         4.0130  145.7250  346.0730 C.3   224  MET224      0.1570
    141  C          3.0610  146.6290  345.3130 C.2   224  MET224      0.2261
    142  O          1.9490  146.2070  345.0210 O.2   224  MET224     -0.2867
    143  CB         3.9630  146.0870  347.5750 C.3   224  MET224      0.0387
    144  CG         4.5170  145.0050  348.5230 C.3   224  MET224      0.0595
    145  SD         4.0280  143.2640  348.2560 S.3   224  MET224     -0.1393
    146  CE         5.4020  142.3790  349.1420 C.3   224  MET224      0.0692
@<TRIPOS>BOND
     1    36    34   ar
     2    36    37   ar
     3    34    32   ar
     4    38    37    1
     5    37    35   ar
     6   142   141    2
     7   141   140    1
     8    32    31    1
     9    32    33   ar
    10   139   140    1
    11    30    29    2
    12    31    28    1
    13    35    33   ar
    14    29    28    1
    15   140   143    1
    16    28    27    1
    17   143   144    1
    18    42    41    2
    19   134   133    2
    20   131   132    1
    21    62    60    1
    22   133   132    1
    23   145   144    1
    24   145   146    1
    25   132   135    1
    26    19    18    2
    27    41    40    1
    28    39    40    1
    29    43    40    1
    30    43    44    1
    31    18    17    1
    32    45    44    1
    33    60    59    1
    34    96    97    1
    35    96    95    1
    36   135   136    1
    37    44    46    1
    38    61    59    1
    39   106   107   ar
    40   106   104   ar
    41    97    91    1
    42    59    56    1
    43   136   137    1
    44   107   105   ar
    45    17    20    1
    46    17    16    1
    47    95    92    1
    48   104   103   ar
    49    20    21    1
    50    91    92    1
    51   105   103   ar
    52    56    55    1
    53    56    57    1
    54   103   102    1
    55    22    21   ar
    56    22    24   ar
    57    82    81    1
    58    92    93    1
    59    21    23   ar
    60    55    49   am
    61   137   138    1
    62    81    80    1
    63    54    52   ar
    64    80    79    1
    65    57    58    2
    66    98    93   am
    67    98    99    1
    68    24    26   ar
    69    47    48    1
    70   102    99    1
    71    93    94    2
    72    51    52    1
    73    51    48    1
    74    52    53   ar
    75    49    48    1
    76    49    50    2
    77    23    25   ar
    78    99   100    1
    79    79    76    1
    80    26    25   ar
    81    12    11    2
    82   100   101    2
    83    76    75    1
    84    76    77    1
    85    11    10    1
    86    75    65   am
    87    90    88    1
    88    15    13    1
    89    70    72   ar
    90    70    68   ar
    91    67    68    1
    92    67    64    1
    93   130   128    1
    94   114   112    1
    95     8     6   am
    96    77    78    2
    97    72    73   ar
    98   112   113    1
    99   112   109    1
   100    65    64    1
   101    65    66    2
   102    63    64    1
   103    13    10    1
   104    13    14    1
   105    10     9    1
   106   111   110    2
   107    68    69   ar
   108   108   109    1
   109    88    87    1
   110    89    87    1
   111     7     6    2
   112     6     5    1
   113   109   110    1
   114    87    84    1
   115   128   127    1
   116     9     3   am
   117   110   115   am
   118   127   129    1
   119   127   124    1
   120    73    74    1
   121    73    71   ar
   122     4     3    2
   123    69    71   ar
   124     3     2    1
   125   126   125    2
   126     5     2    1
   127   123   124    1
   128   123   117   am
   129   115   116    1
   130    84    83    1
   131    84    85    1
   132   124   125    1
   133     2     1    1
   134   116   117    1
   135   116   119    1
   136    85    86    2
   137   117   118    2
   138   120   119    1
   139   120   121    1
   140   122   121    1
