@<TRIPOS>MOLECULE
tmp/5moeB02.pdb
 104 100 0 0 0
SMALL
GASTEIGER

@<TRIPOS>ATOM
      1  N         15.5390  154.0750  374.5650 N.3    33  GLN33      -0.1231
      2  CA        15.9400  154.9410  375.6510 C.3    33  GLN33       0.1698
      3  C         16.7560  156.1730  375.2500 C.2    33  GLN33       0.2592
      4  O         16.8370  157.1260  375.9990 O.2    33  GLN33      -0.2718
      5  CB        16.7390  154.1230  376.6500 C.3    33  GLN33       0.0381
      6  CG        17.9170  153.4270  376.0190 C.3    33  GLN33       0.0905
      7  CD        18.9440  152.9780  377.0220 C.2    33  GLN33       0.2608
      8  OE1       18.6030  152.4650  378.0630 O.2    33  GLN33      -0.2717
      9  NE2       20.2090  153.1510  376.6970 N.am   33  GLN33      -0.0878
     10  N         17.3470  156.1490  374.0560 N.am   34  ASP34      -0.1974
     11  CA        18.1480  157.2180  373.4950 C.3    34  ASP34       0.1709
     12  C         17.4580  158.5530  373.2530 C.2    34  ASP34       0.2293
     13  O         18.1140  159.5520  373.1450 O.2    34  ASP34      -0.2864
     14  CB        18.8130  156.7310  372.2210 C.3    34  ASP34       0.1436
     15  CG        19.8200  155.6360  372.4710 C.2    34  ASP34       0.3671
     16  OD1       20.1760  155.3850  373.6200 O.co2  34  ASP34      -0.2456
     17  OD2       20.2810  155.0340  371.5070 O.co2  34  ASP34      -0.2456
     18  N         15.5760  159.9600  375.4680 N.3    36  TYR36      -0.1227
     19  CA        15.4570  160.5840  376.7630 C.3    36  TYR36       0.1736
     20  C         16.7800  160.8620  377.4740 C.2    36  TYR36       0.2595
     21  O         17.6880  160.0990  377.4100 O.2    36  TYR36      -0.2718
     22  CB        14.5020  159.7350  377.6300 C.3    36  TYR36       0.0548
     23  CG        13.1890  159.5000  376.9390 C.ar   36  TYR36      -0.0200
     24  CD1       12.2010  160.4500  376.9660 C.ar   36  TYR36      -0.0009
     25  CD2       12.9660  158.3690  376.1890 C.ar   36  TYR36      -0.0009
     26  CE1       11.0240  160.2620  376.2960 C.ar   36  TYR36       0.0417
     27  CE2       11.7880  158.1840  375.5210 C.ar   36  TYR36       0.0417
     28  CZ        10.8250  159.1380  375.5870 C.ar   36  TYR36       0.1957
     29  OH         9.6530  158.9930  374.9410 O.3    36  TYR36      -0.2866
     30  N         16.8840  161.9950  378.1300 N.am   37  GLN37      -0.1965
     31  CA        18.0810  162.3180  378.8750 C.3    37  GLN37       0.1733
     32  C         17.6690  162.4650  380.3030 C.2    37  GLN37       0.2616
     33  O         16.8050  163.2500  380.5830 O.2    37  GLN37      -0.2715
     34  CB        18.6800  163.6260  378.3860 C.3    37  GLN37       0.0408
     35  CG        20.0090  163.9680  379.0110 C.3    37  GLN37       0.0908
     36  CD        20.6240  165.1820  378.3630 C.2    37  GLN37       0.2608
     37  OE1       20.0930  165.7080  377.3880 O.2    37  GLN37      -0.2717
     38  NE2       21.7550  165.6350  378.8970 N.am   37  GLN37      -0.0878
     39  N         18.2820  161.7070  381.1990 N.am   38  LEU38      -0.1977
     40  CA        17.9030  161.8090  382.6040 C.3    38  LEU38       0.1596
     41  C         18.5280  163.0650  383.2240 C.2    38  LEU38       0.2287
     42  O         19.7000  163.3590  382.9700 O.2    38  LEU38      -0.2864
     43  CB        18.3180  160.5440  383.3810 C.3    38  LEU38       0.0297
     44  CG        17.8290  159.2010  382.8360 C.3    38  LEU38       0.0022
     45  CD1       18.3850  158.0710  383.6630 C.3    38  LEU38       0.0001
     46  CD2       16.2820  159.1250  382.7920 C.3    38  LEU38       0.0001
     47  N         10.5660  159.5600  384.1230 N.3    64  VAL64      -0.1245
     48  CA        10.9580  158.1980  383.7870 C.3    64  VAL64       0.1561
     49  C         10.9120  157.3780  385.0710 C.2    64  VAL64       0.2260
     50  O         11.6670  157.6420  386.0140 O.2    64  VAL64      -0.2867
     51  CB        12.3560  158.1590  383.0870 C.3    64  VAL64       0.0252
     52  CG1       12.8250  156.7290  382.8340 C.3    64  VAL64       0.0019
     53  CG2       12.3370  158.9580  381.7790 C.3    64  VAL64       0.0019
     54  N         11.8010  154.0640  386.4440 N.3    66  ILE66      -0.1245
     55  CA        12.6800  152.8990  386.2270 C.3    66  ILE66       0.1561
     56  C         12.2040  151.7490  387.1340 C.2    66  ILE66       0.2260
     57  O         12.3130  151.8540  388.3570 O.2    66  ILE66      -0.2867
     58  CB        14.1770  153.2980  386.4430 C.3    66  ILE66       0.0252
     59  CG1       14.6370  154.3220  385.3630 C.3    66  ILE66       0.0019
     60  CG2       15.0820  152.0660  386.4630 C.3    66  ILE66       0.0019
     61  CD1       16.0640  154.8850  385.5170 C.3    66  ILE66       0.0001
     62  N         10.1900  152.2990  377.6120 N.3    98  VAL98      -0.1231
     63  CA        11.5170  152.0750  377.0650 C.3    98  VAL98       0.1692
     64  C         12.2840  151.0120  377.8020 C.2    98  VAL98       0.2592
     65  O         11.8820  150.5850  378.8470 O.2    98  VAL98      -0.2718
     66  CB        12.3490  153.3700  376.9950 C.3    98  VAL98       0.0266
     67  CG1       11.7260  154.3620  376.0510 C.3    98  VAL98       0.0020
     68  CG2       12.5350  153.9860  378.3570 C.3    98  VAL98       0.0020
     69  N         13.4100  150.6040  377.2400 N.am   99  LYS99      -0.1966
     70  CA        14.2380  149.5680  377.8170 C.3    99  LYS99       0.1728
     71  C         15.7260  149.9200  377.8970 C.2    99  LYS99       0.2616
     72  O         16.2190  150.7240  377.1360 O.2    99  LYS99      -0.2715
     73  CB        14.0790  148.3100  376.9730 C.3    99  LYS99       0.0311
     74  CG        14.8260  147.0870  377.4720 C.3    99  LYS99       0.0038
     75  CD        14.5760  145.8620  376.6020 C.3    99  LYS99       0.0206
     76  CE        15.3410  144.6250  377.0760 C.3    99  LYS99       0.1093
     77  NZ        15.1120  143.4150  376.2400 N.3    99  LYS99      -0.1314
     78  N         16.4210  149.3130  378.8490 N.am  100  ASP100     -0.1971
     79  CA        17.8650  149.4800  379.0010 C.3   100  ASP100      0.1709
     80  C         18.5080  148.2090  378.5070 C.2   100  ASP100      0.2293
     81  O         18.5920  147.2410  379.2260 O.2   100  ASP100     -0.2864
     82  CB        18.3040  149.7240  380.4390 C.3   100  ASP100      0.1436
     83  CG        19.8120  149.9640  380.5630 C.2   100  ASP100      0.3671
     84  OD1       20.3950  150.6760  379.7320 O.co2 100  ASP100     -0.2456
     85  OD2       20.4180  149.4470  381.4980 O.co2 100  ASP100     -0.2456
     86  N         16.5140  146.5660  381.8270 N.3   105  THR105     -0.1204
     87  CA        15.6440  147.2900  382.7650 C.3   105  THR105      0.1979
     88  C         14.4730  148.0030  382.0720 C.2   105  THR105      0.2460
     89  O         14.7080  148.9000  381.2650 O.2   105  THR105     -0.2732
     90  CB        16.4650  148.2430  383.6510 C.3   105  THR105      0.1783
     91  OG1       17.5250  147.5010  384.2490 O.3   105  THR105     -0.2211
     92  CG2       15.6280  148.8870  384.7540 C.3   105  THR105      0.0376
     93  N         13.2030  147.6540  382.4090 N.am  106  PRO106     -0.2717
     94  CA        12.0750  148.3810  381.8050 C.3   106  PRO106      0.1535
     95  C         11.8560  149.7260  382.5060 C.2   106  PRO106      0.2598
     96  O         12.1850  149.8640  383.6800 O.2   106  PRO106     -0.2715
     97  CB        10.8860  147.4350  382.0290 C.3   106  PRO106      0.0310
     98  CG        11.2450  146.5870  383.1860 C.3   106  PRO106      0.0237
     99  CD        12.7390  146.6280  383.3760 C.3   106  PRO106      0.0939
    100  N         11.3410  150.7250  381.7860 N.am  107  ALA107     -0.1978
    101  CA        11.0320  152.0160  382.3710 C.3   107  ALA107      0.1597
    102  C          9.8210  152.6030  381.6900 C.2   107  ALA107      0.2287
    103  O          9.6460  152.4150  380.4940 O.2   107  ALA107     -0.2864
    104  CB        12.2190  152.9650  382.3050 C.3   107  ALA107      0.0319
@<TRIPOS>BOND
     1    17    15   ar
     2    14    15    1
     3    14    11    1
     4    15    16   ar
     5    13    12    2
     6    12    11    1
     7    11    10    1
     8    10     3   am
     9     1     2    1
    10    29    28    1
    11     3     2    1
    12     3     4    2
    13    18    19    1
    14    27    28   ar
    15    27    25   ar
    16    28    26   ar
    17     2     5    1
    18     6     5    1
    19     6     7    1
    20    67    66    1
    21    25    23   ar
    22    77    76    1
    23    26    24   ar
    24    75    76    1
    25    75    74    1
    26     9     7   am
    27    19    20    1
    28    19    22    1
    29    23    24   ar
    30    23    22    1
    31    73    74    1
    32    73    70    1
    33    66    63    1
    34    66    68    1
    35     7     8    2
    36    63    62    1
    37    63    64    1
    38    72    71    2
    39    69    64   am
    40    69    70    1
    41    37    36    2
    42    21    20    2
    43    20    30   am
    44    64    65    2
    45    70    71    1
    46    71    78   am
    47    30    31    1
    48    36    38   am
    49    36    35    1
    50    34    31    1
    51    34    35    1
    52    80    79    1
    53    80    81    2
    54    78    79    1
    55    31    32    1
    56    79    82    1
    57    84    83   ar
    58    32    33    2
    59    32    39   am
    60    82    83    1
    61   103   102    2
    62    83    85   ar
    63    39    40    1
    64    89    88    2
    65   102   101    1
    66    53    51    1
    67   100   101    1
    68   100    95   am
    69    94    97    1
    70    94    93    1
    71    94    95    1
    72    86    87    1
    73    97    98    1
    74    88    93   am
    75    88    87    1
    76   104   101    1
    77    93    99    1
    78    95    96    2
    79    40    41    1
    80    40    43    1
    81    87    90    1
    82    46    44    1
    83    52    51    1
    84    44    43    1
    85    44    45    1
    86    42    41    2
    87    51    48    1
    88    98    99    1
    89    90    91    1
    90    90    92    1
    91    48    47    1
    92    48    49    1
    93    49    50    2
    94    59    61    1
    95    59    58    1
    96    55    58    1
    97    55    54    1
    98    55    56    1
    99    58    60    1
   100    56    57    2
