@<TRIPOS>MOLECULE
tmp/5moeB03.pdb
 146 140 0 0 0
SMALL
GASTEIGER

@<TRIPOS>ATOM
      1  N          4.7930  168.6040  391.0350 N.3   115  ASN115     -0.1225
      2  CA         4.1190  168.3340  392.3010 C.3   115  ASN115      0.1785
      3  C          4.3830  169.3360  393.4180 C.2   115  ASN115      0.2597
      4  O          5.5260  169.6930  393.6960 O.2   115  ASN115     -0.2718
      5  CB         4.4530  166.9240  392.7910 C.3   115  ASN115      0.1169
      6  CG         3.7070  166.5580  394.0570 C.2   115  ASN115      0.2627
      7  OD1        4.2930  166.0570  395.0120 O.2   115  ASN115     -0.2716
      8  ND2        2.4050  166.8140  394.0700 N.am  115  ASN115     -0.0877
      9  N          3.3020  169.7800  394.0530 N.am  116  THR116     -0.1953
     10  CA         3.3810  170.7060  395.1700 C.3   116  THR116      0.1897
     11  C          3.4960  169.8540  396.4250 C.2   116  THR116      0.2313
     12  O          2.8070  168.8440  396.5550 O.2   116  THR116     -0.2863
     13  CB         2.1240  171.5870  395.2600 C.3   116  THR116      0.1794
     14  OG1        1.8590  172.1760  393.9800 O.3   116  THR116     -0.2208
     15  CG2        2.3140  172.6870  396.2930 C.3   116  THR116      0.0378
     16  N          3.0950  168.0840  399.9200 N.3   118  PHE118     -0.1241
     17  CA         1.9600  167.8170  400.7820 C.3   118  PHE118      0.1605
     18  C          2.0640  168.6540  402.0480 C.2   118  PHE118      0.2264
     19  O          1.0870  169.2430  402.4990 O.2   118  PHE118     -0.2867
     20  CB         1.9310  166.3370  401.1550 C.3   118  PHE118      0.0534
     21  CG         3.2940  165.7360  401.3340 C.ar  118  PHE118     -0.0203
     22  CD1        4.0780  165.4260  400.2350 C.ar  118  PHE118     -0.0042
     23  CD2        3.7970  165.4940  402.6010 C.ar  118  PHE118     -0.0042
     24  CE1        5.3360  164.8780  400.3970 C.ar  118  PHE118     -0.0003
     25  CE2        5.0540  164.9460  402.7690 C.ar  118  PHE118     -0.0003
     26  CZ         5.8240  164.6370  401.6670 C.ar  118  PHE118     -0.0000
     27  N          1.3340  172.2060  401.1790 N.3   121  LEU121     -0.1231
     28  CA        -0.0300  172.4120  400.7130 C.3   121  LEU121      0.1693
     29  C         -1.0340  172.2530  401.8500 C.2   121  LEU121      0.2592
     30  O         -2.1020  172.8510  401.8260 O.2   121  LEU121     -0.2718
     31  CB        -0.3680  171.4330  399.5880 C.3   121  LEU121      0.0284
     32  CG        -1.4100  171.8900  398.5680 C.3   121  LEU121      0.0019
     33  CD1       -1.3060  173.3880  398.3320 C.3   121  LEU121      0.0001
     34  CD2       -1.2450  171.1270  397.2640 C.3   121  LEU121      0.0001
     35  N         -0.6930  171.4420  402.8450 N.am  122  TYR122     -0.1976
     36  CA        -1.5980  171.2290  403.9700 C.3   122  TYR122      0.1639
     37  C         -1.8960  172.5260  404.7110 C.2   122  TYR122      0.2290
     38  O         -3.0190  172.7480  405.1600 O.2   122  TYR122     -0.2864
     39  CB        -1.0400  170.1820  404.9330 C.3   122  TYR122      0.0560
     40  CG        -1.4540  168.7730  404.5880 C.ar  122  TYR122     -0.0198
     41  CD1       -1.9200  168.4610  403.3190 C.ar  122  TYR122     -0.0009
     42  CD2       -1.3850  167.7580  405.5290 C.ar  122  TYR122     -0.0009
     43  CE1       -2.2890  167.1730  402.9910 C.ar  122  TYR122      0.0417
     44  CE2       -1.7620  166.4680  405.2120 C.ar  122  TYR122      0.0417
     45  CZ        -2.2160  166.1810  403.9410 C.ar  122  TYR122      0.1957
     46  OH        -2.5940  164.8970  403.6140 O.3   122  TYR122     -0.2866
     47  N         -4.1760  175.1190  402.4310 N.3   125  LEU125     -0.1245
     48  CA        -5.3760  174.4840  401.9050 C.3   125  LEU125      0.1561
     49  C         -6.6260  175.0790  402.5340 C.2   125  LEU125      0.2260
     50  O         -6.6930  175.2580  403.7470 O.2   125  LEU125     -0.2867
     51  CB        -5.3410  172.9780  402.1640 C.3   125  LEU125      0.0270
     52  CG        -5.1000  172.0640  400.9630 C.3   125  LEU125      0.0019
     53  CD1       -4.5740  170.7180  401.4350 C.3   125  LEU125      0.0001
     54  CD2       -6.3710  171.8880  400.1510 C.3   125  LEU125      0.0001
     55  N        -10.0980  171.8140  399.2420 N.3   130  ILE130     -0.1245
     56  CA       -10.3280  170.4160  399.5740 C.3   130  ILE130      0.1561
     57  C        -11.4450  169.8510  398.7080 C.2   130  ILE130      0.2260
     58  O        -11.3070  168.7900  398.1060 O.2   130  ILE130     -0.2867
     59  CB       -10.6820  170.2280  401.0590 C.3   130  ILE130      0.0252
     60  CG1       -9.4930  170.6160  401.9380 C.3   130  ILE130      0.0019
     61  CG2      -11.0890  168.7900  401.3300 C.3   130  ILE130      0.0019
     62  CD1       -9.6000  170.1160  403.3590 C.3   130  ILE130      0.0001
     63  N        -10.2330  169.5590  394.9080 N.3   133  TYR133     -0.1227
     64  CA        -9.3510  168.4360  394.6190 C.3   133  TYR133      0.1736
     65  C        -10.0150  167.1010  394.8580 C.2   133  TYR133      0.2595
     66  O         -9.7890  166.1920  394.0640 O.2   133  TYR133     -0.2718
     67  CB        -8.0050  168.5650  395.3390 C.3   133  TYR133      0.0548
     68  CG        -7.1600  169.6820  394.7600 C.ar  133  TYR133     -0.0200
     69  CD1       -6.8000  169.6860  393.4130 C.ar  133  TYR133     -0.0009
     70  CD2       -6.7000  170.7220  395.5600 C.ar  133  TYR133     -0.0009
     71  CE1       -6.0270  170.7120  392.8720 C.ar  133  TYR133      0.0417
     72  CE2       -5.9150  171.7490  395.0330 C.ar  133  TYR133      0.0417
     73  CZ        -5.5700  171.7320  393.6880 C.ar  133  TYR133      0.1957
     74  OH        -4.8020  172.7340  393.1470 O.3   133  TYR133     -0.2866
     75  N        -10.9170  167.0120  395.8260 N.am  134  MET134     -0.1979
     76  CA       -11.6400  165.7680  396.0530 C.3   134  MET134      0.1605
     77  C        -12.4800  165.4400  394.8130 C.2   134  MET134      0.2287
     78  O        -12.5780  164.2840  394.4090 O.2   134  MET134     -0.2864
     79  CB       -12.5380  165.8800  397.2840 C.3   134  MET134      0.0413
     80  CG       -11.8190  165.6490  398.6010 C.3   134  MET134      0.0598
     81  SD       -11.3240  163.9350  398.8400 S.3   134  MET134     -0.1393
     82  CE       -12.9140  163.1170  398.8360 C.3   134  MET134      0.0692
     83  N        -10.3160  164.0680  391.9870 N.3   137  ILE137     -0.1245
     84  CA        -9.9700  162.6740  392.2220 C.3   137  ILE137      0.1561
     85  C        -11.1640  161.7910  391.8670 C.2   137  ILE137      0.2260
     86  O        -11.0030  160.7110  391.3060 O.2   137  ILE137     -0.2867
     87  CB        -9.5620  162.4270  393.6840 C.3   137  ILE137      0.0252
     88  CG1       -8.3180  163.2430  394.0320 C.3   137  ILE137      0.0019
     89  CG2       -9.3160  160.9470  393.9240 C.3   137  ILE137      0.0019
     90  CD1       -8.0240  163.3080  395.5130 C.3   137  ILE137      0.0001
     91  N         -2.5190  159.8110  399.2620 N.3   156  PRO156     -0.2102
     92  CA        -1.9300  161.1060  398.9060 C.3   156  PRO156      0.1504
     93  C         -0.6820  160.9760  398.0310 C.2   156  PRO156      0.2575
     94  O         -0.5530  161.6590  397.0220 O.2   156  PRO156     -0.2718
     95  CB        -1.5710  161.7050  400.2660 C.3   156  PRO156      0.0282
     96  CG        -2.5580  161.1020  401.2040 C.3   156  PRO156      0.0208
     97  CD        -2.7890  159.7050  400.7060 C.3   156  PRO156      0.0893
     98  N          0.2330  160.0960  398.4090 N.am  157  HIS157     -0.1976
     99  CA         1.4520  159.9190  397.6350 C.3   157  HIS157      0.1656
    100  C          1.1750  159.5700  396.1730 C.2   157  HIS157      0.2291
    101  O          2.0140  159.8040  395.3080 O.2   157  HIS157     -0.2864
    102  CB         2.3480  158.8580  398.2730 C.3   157  HIS157      0.0771
    103  CG         3.2140  159.3840  399.3730 C.ar  157  HIS157      0.0820
    104  ND1        3.8250  158.5640  400.2970 N.ar  157  HIS157     -0.2267
    105  CD2        3.5670  160.6490  399.7010 C.ar  157  HIS157      0.1154
    106  CE1        4.5200  159.3010  401.1450 C.ar  157  HIS157      0.1986
    107  NE2        4.3800  160.5700  400.8060 N.ar  157  HIS157     -0.2212
    108  N         -1.2710  160.8610  394.3830 N.3   159  VAL159     -0.1231
    109  CA        -2.0430  161.9420  393.7950 C.3   159  VAL159      0.1692
    110  C         -1.1320  163.1540  393.6130 C.2   159  VAL159      0.2592
    111  O         -0.8110  163.8460  394.5760 O.2   159  VAL159     -0.2718
    112  CB        -3.2530  162.3270  394.6630 C.3   159  VAL159      0.0266
    113  CG1       -3.9790  163.5150  394.0540 C.3   159  VAL159      0.0020
    114  CG2       -4.1950  161.1440  394.8080 C.3   159  VAL159      0.0020
    115  N         -0.7000  163.3910  392.3790 N.am  160  MET160     -0.1965
    116  CA         0.1730  164.5200  392.0780 C.3   160  MET160      0.1736
    117  C         -0.6600  165.7700  391.8390 C.2   160  MET160      0.2616
    118  O         -1.6960  165.7120  391.1830 O.2   160  MET160     -0.2715
    119  CB         1.0370  164.2250  390.8520 C.3   160  MET160      0.0427
    120  CG         1.9800  163.0470  391.0190 C.3   160  MET160      0.0599
    121  SD         3.4220  163.4390  392.0230 S.3   160  MET160     -0.1393
    122  CE         3.1260  162.4150  393.4590 C.3   160  MET160      0.0692
    123  N         -0.2050  166.9020  392.3670 N.am  161  ILE161     -0.1977
    124  CA        -0.9420  168.1490  392.2050 C.3   161  ILE161      0.1596
    125  C         -0.0710  169.3780  391.9600 C.2   161  ILE161      0.2287
    126  O          0.7880  169.7170  392.7700 O.2   161  ILE161     -0.2864
    127  CB        -1.8310  168.4430  393.4350 C.3   161  ILE161      0.0276
    128  CG1       -3.0690  167.5470  393.4450 C.3   161  ILE161      0.0022
    129  CG2       -2.2510  169.9050  393.4590 C.3   161  ILE161      0.0022
    130  CD1       -3.6480  167.3340  394.8250 C.3   161  ILE161      0.0001
    131  N         -8.5140  159.5740  403.0630 N.3   218  MET218     -0.1245
    132  CA        -7.8250  160.7900  402.6710 C.3   218  MET218      0.1570
    133  C         -8.6260  162.0070  403.1050 C.2   218  MET218      0.2261
    134  O         -8.0870  162.9270  403.7120 O.2   218  MET218     -0.2867
    135  CB        -7.6200  160.8270  401.1580 C.3   218  MET218      0.0387
    136  CG        -6.5030  159.9320  400.6580 C.3   218  MET218      0.0595
    137  SD        -6.3050  160.0380  398.8720 S.3   218  MET218     -0.1393
    138  CE        -5.9300  161.7730  398.6690 C.3   218  MET218      0.0692
    139  N         -7.7910  164.9620  405.8290 N.3   222  MET222     -0.1245
    140  CA        -7.7160  166.2910  405.2410 C.3   222  MET222      0.1570
    141  C         -8.5400  167.3090  406.0220 C.2   222  MET222      0.2261
    142  O         -8.0730  168.4120  406.2990 O.2   222  MET222     -0.2867
    143  CB        -8.1770  166.2580  403.7860 C.3   222  MET222      0.0387
    144  CG        -7.0490  166.0980  402.7810 C.3   222  MET222      0.0595
    145  SD        -7.5700  165.1720  401.3260 S.3   222  MET222     -0.1393
    146  CE        -6.0480  164.3250  400.9120 C.3   222  MET222      0.0692
@<TRIPOS>BOND
     1   119   120    1
     2   119   116    1
     3   120   121    1
     4     1     2    1
     5   118   117    2
     6    86    85    2
     7   117   116    1
     8   117   123   am
     9    85    84    1
    10   125   124    1
    11   125   126    2
    12    83    84    1
    13   121   122    1
    14   116   115    1
    15   124   123    1
    16   124   127    1
    17    84    87    1
    18     2     5    1
    19     2     3    1
    20   115   110   am
    21     5     6    1
    22    71    69   ar
    23    71    73   ar
    24    74    73    1
    25    69    68   ar
    26     3     4    2
    27     3     9   am
    28   127   128    1
    29   127   129    1
    30   128   130    1
    31   110   109    1
    32   110   111    2
    33    87    89    1
    34    87    88    1
    35    73    72   ar
    36   109   108    1
    37   109   112    1
    38    14    13    1
    39    88    90    1
    40     9    10    1
    41   113   112    1
    42     6     8   am
    43     6     7    2
    44    66    65    2
    45    78    77    2
    46    64    65    1
    47    64    63    1
    48    64    67    1
    49   112   114    1
    50    68    67    1
    51    68    70   ar
    52    77    76    1
    53    65    75   am
    54    72    70   ar
    55    10    13    1
    56    10    11    1
    57    13    15    1
    58   101   100    2
    59    75    76    1
    60    76    79    1
    61   100    99    1
    62    11    12    2
    63    94    93    2
    64    34    32    1
    65    79    80    1
    66    99   102    1
    67    99    98    1
    68    93    98   am
    69    93    92    1
    70    58    57    2
    71   102   103    1
    72    33    32    1
    73    32    31    1
    74    80    81    1
    75   138   137    1
    76    57    56    1
    77    82    81    1
    78   137   136    1
    79    92    91    1
    80    92    95    1
    81    55    56    1
    82    91    97    1
    83   103   105   ar
    84   103   104   ar
    85    56    59    1
    86    31    28    1
    87   105   107   ar
    88    16    17    1
    89    54    52    1
    90    22    24   ar
    91    22    21   ar
    92    95    96    1
    93   104   106   ar
    94    24    26   ar
    95   136   135    1
    96    97    96    1
    97    28    27    1
    98    28    29    1
    99    17    20    1
   100    17    18    1
   101   107   106   ar
   102   146   145    1
   103    52    53    1
   104    52    51    1
   105    59    61    1
   106    59    60    1
   107    20    21    1
   108   135   132    1
   109   145   144    1
   110    21    23   ar
   111    26    25   ar
   112    30    29    2
   113    29    35   am
   114    48    51    1
   115    48    47    1
   116    48    49    1
   117    60    62    1
   118    18    19    2
   119    49    50    2
   120    23    25   ar
   121   132   131    1
   122   132   133    1
   123   144   143    1
   124    35    36    1
   125    43    41   ar
   126    43    45   ar
   127   133   134    2
   128    41    40   ar
   129    46    45    1
   130   143   140    1
   131    45    44   ar
   132    36    37    1
   133    36    39    1
   134    40    39    1
   135    40    42   ar
   136    37    38    2
   137    44    42   ar
   138   140   139    1
   139   140   141    1
   140   141   142    2
