@<TRIPOS>MOLECULE
tmp/5moeB00.pdb
 181 174 0 0 0
SMALL
GASTEIGER

@<TRIPOS>ATOM
      1  N         13.7600  162.1580  391.2350 N.3    42  LEU42      -0.1231
      2  CA        12.5810  162.8690  391.7310 C.3    42  LEU42       0.1693
      3  C         12.0350  162.2200  392.9910 C.2    42  LEU42       0.2593
      4  O         11.4830  162.9020  393.8600 O.2    42  LEU42      -0.2718
      5  CB        11.4760  162.8590  390.6730 C.3    42  LEU42       0.0284
      6  CG        11.5100  163.9160  389.5940 C.3    42  LEU42       0.0019
      7  CD1       10.4330  163.6480  388.5880 C.3    42  LEU42       0.0001
      8  CD2       11.2660  165.2880  390.1630 C.3    42  LEU42       0.0001
      9  N         12.1400  160.8980  393.0400 N.am   43  GLY43      -0.1942
     10  CA        11.6580  160.0790  394.1400 C.3    43  GLY43       0.2014
     11  C         12.0630  158.6290  393.9900 C.2    43  GLY43       0.2639
     12  O         12.7090  158.2570  393.0060 O.2    43  GLY43      -0.2714
     13  N         11.7370  157.8110  395.0020 N.am   44  ARG44      -0.1963
     14  CA        12.0230  156.3770  395.0370 C.3    44  ARG44       0.1729
     15  C         10.9720  155.7130  395.9130 C.2    44  ARG44       0.2617
     16  O         10.9950  155.8650  397.1370 O.2    44  ARG44      -0.2715
     17  CB        13.4530  156.0880  395.5400 C.3    44  ARG44       0.0348
     18  CG        13.9300  154.6610  395.2450 C.3    44  ARG44       0.0492
     19  CD        15.3830  154.4410  395.6260 C.3    44  ARG44       0.2205
     20  NE        15.8490  153.1060  395.2420 N.pl3  44  ARG44      -0.0865
     21  CZ        17.0790  152.6450  395.4540 C.cat  44  ARG44       0.5346
     22  NH1       17.9890  153.4050  396.0520 N.pl3  44  ARG44       0.1354
     23  NH2       17.4080  151.4190  395.0690 N.pl3  44  ARG44       0.1354
     24  N         10.0360  155.0300  395.2640 N.am   45  GLY45      -0.1940
     25  CA         8.9390  154.3420  395.9300 C.3    45  GLY45       0.2014
     26  C          9.2270  152.8950  396.2680 C.2    45  GLY45       0.2639
     27  O         10.3930  152.4850  396.3600 O.2    45  GLY45      -0.2714
     28  N          8.1450  152.1120  396.4560 N.am   46  LYS46      -0.1963
     29  CA         8.1970  150.6980  396.8280 C.3    46  LYS46       0.1728
     30  C          8.8520  149.7820  395.7900 C.2    46  LYS46       0.2616
     31  O          9.5180  148.8310  396.1950 O.2    46  LYS46      -0.2715
     32  CB         6.8040  150.1660  397.1970 C.3    46  LYS46       0.0311
     33  CG         6.2950  150.6460  398.5540 C.3    46  LYS46       0.0038
     34  CD         5.0160  149.9300  398.9610 C.3    46  LYS46       0.0206
     35  CE         4.3550  150.5870  400.1480 C.3    46  LYS46       0.1093
     36  NZ         3.0370  149.9710  400.4610 N.3    46  LYS46      -0.1314
     37  N          8.6440  150.0250  394.4760 N.am   47  TYR47      -0.1960
     38  CA         9.2140  149.1430  393.4460 C.3    47  TYR47       0.1771
     39  C          9.8210  149.8820  392.2260 C.2    47  TYR47       0.2620
     40  O         10.0230  149.2620  391.1730 O.2    47  TYR47      -0.2715
     41  CB         8.1850  148.0770  393.0040 C.3    47  TYR47       0.0574
     42  CG         7.8790  147.0520  394.0780 C.ar   47  TYR47      -0.0198
     43  CD1        8.7780  146.0270  394.3700 C.ar   47  TYR47      -0.0009
     44  CD2        6.7040  147.1220  394.8200 C.ar   47  TYR47      -0.0009
     45  CE1        8.5110  145.0930  395.3730 C.ar   47  TYR47       0.0417
     46  CE2        6.4270  146.1950  395.8270 C.ar   47  TYR47       0.0417
     47  CZ         7.3320  145.1800  396.0990 C.ar   47  TYR47       0.1957
     48  OH         7.0560  144.2630  397.0870 O.3    47  TYR47      -0.2866
     49  N         10.1700  151.1770  392.3840 N.am   48  SER48      -0.1950
     50  CA        10.7860  151.9440  391.2990 C.3    48  SER48       0.1924
     51  C         11.7160  153.0850  391.7460 C.2    48  SER48       0.2314
     52  O         11.7340  153.4670  392.9180 O.2    48  SER48      -0.2863
     53  CB         9.7150  152.4950  390.3640 C.3    48  SER48       0.2116
     54  OG         8.9960  153.5330  391.0000 O.3    48  SER48      -0.2180
     55  N         12.3990  156.9720  390.3140 N.3    50  VAL50      -0.1245
     56  CA        11.7860  157.9750  389.4440 C.3    50  VAL50       0.1561
     57  C         12.7540  159.1030  389.1360 C.2    50  VAL50       0.2260
     58  O         13.4000  159.6380  390.0370 O.2    50  VAL50      -0.2867
     59  CB        10.4320  158.4740  390.0100 C.3    50  VAL50       0.0252
     60  CG1        9.8350  159.5780  389.1530 C.3    50  VAL50       0.0019
     61  CG2        9.4450  157.3210  390.1530 C.3    50  VAL50       0.0019
     62  N          8.8300  162.3030  382.9620 N.3    63  VAL63      -0.1245
     63  CA         9.1920  161.5690  384.1490 C.3    63  VAL63       0.1561
     64  C          9.4340  160.1260  383.6980 C.2    63  VAL63       0.2260
     65  O          8.6220  159.5570  382.9670 O.2    63  VAL63      -0.2867
     66  CB         8.0660  161.7150  385.2010 C.3    63  VAL63       0.0252
     67  CG1        8.1190  160.6100  386.2410 C.3    63  VAL63       0.0019
     68  CG2        8.1360  163.0920  385.8580 C.3    63  VAL63       0.0019
     69  N          9.9950  156.4040  385.1120 N.3    65  LYS65      -0.1245
     70  CA         9.8390  155.5040  386.2550 C.3    65  LYS65       0.1561
     71  C         10.5850  154.2260  385.8980 C.2    65  LYS65       0.2260
     72  O         10.0850  153.4340  385.1010 O.2    65  LYS65      -0.2867
     73  CB         8.3370  155.2340  386.5200 C.3    65  LYS65       0.0271
     74  CG         8.0420  154.3070  387.7030 C.3    65  LYS65       0.0035
     75  CD         6.5250  154.0150  387.8130 C.3    65  LYS65       0.0206
     76  CE         6.1340  153.0890  388.9470 C.3    65  LYS65       0.1093
     77  NZ         4.6450  152.8760  388.9860 N.3    65  LYS65      -0.1314
     78  N         -2.8120  159.9520  384.9310 N.3    92  ILE92      -0.1245
     79  CA        -1.4550  160.2110  384.4380 C.3    92  ILE92       0.1561
     80  C         -1.3210  159.6250  383.0190 C.2    92  ILE92       0.2260
     81  O         -1.8150  158.5240  382.7580 O.2    92  ILE92      -0.2867
     82  CB        -0.3640  159.6720  385.4100 C.3    92  ILE92       0.0252
     83  CG1        1.0360  160.2980  385.1090 C.3    92  ILE92       0.0019
     84  CG2       -0.3110  158.1360  385.4900 C.3    92  ILE92       0.0019
     85  CD1        1.1550  161.7840  385.5360 C.3    92  ILE92       0.0001
     86  N          6.2900  159.0560  381.5470 N.3   110  PHE110     -0.1227
     87  CA         5.0480  159.7770  381.8000 C.3   110  PHE110      0.1736
     88  C          5.1990  161.2540  381.5560 C.2   110  PHE110      0.2595
     89  O          6.3090  161.7870  381.6390 O.2   110  PHE110     -0.2718
     90  CB         4.6510  159.6180  383.2900 C.3   110  PHE110      0.0547
     91  CG         4.3630  158.2030  383.7440 C.ar  110  PHE110     -0.0202
     92  CD1        3.1040  157.6330  383.5520 C.ar  110  PHE110     -0.0042
     93  CD2        5.3380  157.4570  384.3940 C.ar  110  PHE110     -0.0042
     94  CE1        2.8360  156.3290  383.9730 C.ar  110  PHE110     -0.0003
     95  CE2        5.0730  156.1490  384.8130 C.ar  110  PHE110     -0.0003
     96  CZ         3.8170  155.5990  384.6060 C.ar  110  PHE110     -0.0000
     97  N          4.0500  161.9450  381.3990 N.am  111  GLU111     -0.1965
     98  CA         3.9910  163.3930  381.4000 C.3   111  GLU111      0.1733
     99  C          4.5480  163.8450  382.7650 C.2   111  GLU111      0.2616
    100  O          4.4000  163.1570  383.8040 O.2   111  GLU111     -0.2715
    101  CB         2.5410  163.8850  381.2660 C.3   111  GLU111      0.0429
    102  CG         1.5910  163.3130  382.3160 C.3   111  GLU111      0.1163
    103  CD         0.2420  163.9830  382.4340 C.2   111  GLU111      0.3649
    104  OE1        0.2110  165.2100  382.6810 O.co2 111  GLU111     -0.2457
    105  OE2       -0.7820  163.2690  382.3400 O.co2 111  GLU111     -0.2457
    106  N          5.2270  164.9800  382.7540 N.am  112  HIS112     -0.1959
    107  CA         5.7870  165.5240  383.9850 C.3   112  HIS112      0.1787
    108  C          4.7110  166.3060  384.7230 C.2   112  HIS112      0.2620
    109  O          3.9010  166.9790  384.0930 O.2   112  HIS112     -0.2715
    110  CB         6.9830  166.4310  383.6530 C.3   112  HIS112      0.0785
    111  CG         7.6090  167.0700  384.8510 C.ar  112  HIS112      0.0821
    112  ND1        7.2080  168.3210  385.2970 N.ar  112  HIS112     -0.2267
    113  CD2        8.5770  166.6040  385.6760 C.ar  112  HIS112      0.1154
    114  CE1        7.9450  168.5740  386.3680 C.ar  112  HIS112      0.1986
    115  NE2        8.7780  167.5680  386.6420 N.ar  112  HIS112     -0.2212
    116  N          4.6860  166.1960  386.0530 N.am  113  VAL113     -0.1977
    117  CA         3.7910  166.9590  386.9140 C.3   113  VAL113      0.1596
    118  C          4.7070  167.6770  387.9030 C.2   113  VAL113      0.2287
    119  O          5.5290  167.0410  388.5630 O.2   113  VAL113     -0.2864
    120  CB         2.6670  166.1540  387.6720 C.3   113  VAL113      0.0276
    121  CG1        1.7430  167.1090  388.4400 C.3   113  VAL113      0.0022
    122  CG2        1.8480  165.2840  386.7300 C.3   113  VAL113      0.0022
    123  N          4.7930  168.6040  391.0350 N.3   115  ASN115     -0.1240
    124  CA         4.1190  168.3340  392.3010 C.3   115  ASN115      0.1653
    125  C          4.3830  169.3360  393.4180 C.2   115  ASN115      0.2266
    126  O          5.5260  169.6930  393.6960 O.2   115  ASN115     -0.2867
    127  CB         4.4530  166.9240  392.7910 C.3   115  ASN115      0.1155
    128  CG         3.7070  166.5580  394.0570 C.2   115  ASN115      0.2627
    129  OD1        4.2930  166.0570  395.0120 O.2   115  ASN115     -0.2716
    130  ND2        2.4050  166.8140  394.0700 N.am  115  ASN115     -0.0877
    131  N         -4.1350  156.9450  397.7020 N.3   155  LYS155     -0.1245
    132  CA        -3.4720  157.6160  398.8200 C.3   155  LYS155      0.1561
    133  C         -2.8570  158.9300  398.3300 C.2   155  LYS155      0.2260
    134  O         -2.6840  159.1400  397.1300 O.2   155  LYS155     -0.2867
    135  CB        -2.3890  156.7380  399.4570 C.3   155  LYS155      0.0271
    136  CG        -1.2120  156.4150  398.5580 C.3   155  LYS155      0.0035
    137  CD        -0.2840  155.4250  399.2420 C.3   155  LYS155      0.0206
    138  CE         0.8690  155.0220  398.3410 C.3   155  LYS155      0.1093
    139  NZ         1.8640  154.1870  399.0660 N.3   155  LYS155     -0.1314
    140  N          0.2330  160.0960  398.4090 N.3   157  HIS157     -0.1226
    141  CA         1.4520  159.9190  397.6350 C.3   157  HIS157      0.1752
    142  C          1.1750  159.5700  396.1730 C.2   157  HIS157      0.2596
    143  O          2.0140  159.8040  395.3080 O.2   157  HIS157     -0.2718
    144  CB         2.3480  158.8580  398.2730 C.3   157  HIS157      0.0759
    145  CG         3.2140  159.3840  399.3730 C.ar  157  HIS157      0.0818
    146  ND1        3.8250  158.5640  400.2970 N.ar  157  HIS157     -0.2268
    147  CD2        3.5670  160.6490  399.7010 C.ar  157  HIS157      0.1154
    148  CE1        4.5200  159.3010  401.1450 C.ar  157  HIS157      0.1986
    149  NE2        4.3800  160.5700  400.8060 N.ar  157  HIS157     -0.2212
    150  N         -0.0040  159.0230  395.8950 N.am  158  ASN158     -0.1974
    151  CA        -0.3420  158.6380  394.5230 C.3   158  ASN158      0.1688
    152  C         -1.2350  159.6510  393.8390 C.2   158  ASN158      0.2292
    153  O         -1.8210  159.3610  392.7970 O.2   158  ASN158     -0.2864
    154  CB        -0.9120  157.2120  394.4560 C.3   158  ASN158      0.1181
    155  CG         0.1300  156.1860  394.7620 C.2   158  ASN158      0.2629
    156  OD1        1.3300  156.4420  394.6390 O.2   158  ASN158     -0.2716
    157  ND2       -0.2990  155.0080  395.1630 N.am  158  ASN158     -0.0877
    158  N         -0.7000  163.3910  392.3790 N.3   160  MET160     -0.1245
    159  CA         0.1730  164.5200  392.0780 C.3   160  MET160      0.1570
    160  C         -0.6600  165.7700  391.8390 C.2   160  MET160      0.2261
    161  O         -1.6960  165.7120  391.1830 O.2   160  MET160     -0.2867
    162  CB         1.0370  164.2250  390.8520 C.3   160  MET160      0.0387
    163  CG         1.9800  163.0470  391.0190 C.3   160  MET160      0.0595
    164  SD         3.4220  163.4390  392.0230 S.3   160  MET160     -0.1393
    165  CE         3.1260  162.4150  393.4590 C.3   160  MET160      0.0692
    166  N         -1.7250  158.8300  389.9120 N.3   171  ILE171     -0.1231
    167  CA        -0.5750  158.0610  389.4240 C.3   171  ILE171      0.1692
    168  C         -0.5100  156.6790  390.0670 C.2   171  ILE171      0.2592
    169  O         -1.3870  156.3010  390.8620 O.2   171  ILE171     -0.2718
    170  CB         0.7640  158.8430  389.6450 C.3   171  ILE171      0.0266
    171  CG1        1.0840  159.0280  391.1650 C.3   171  ILE171      0.0019
    172  CG2        0.7460  160.2060  388.9480 C.3   171  ILE171      0.0020
    173  CD1        2.5820  159.2800  391.4920 C.3   171  ILE171      0.0001
    174  N          0.5890  155.9630  389.7670 N.am  172  ASP172     -0.1974
    175  CA         0.9650  154.6730  390.3230 C.3   172  ASP172      0.1709
    176  C         -0.1350  153.6190  390.1700 C.2   172  ASP172      0.2293
    177  O         -0.7910  153.2100  391.1420 O.2   172  ASP172     -0.2864
    178  CB         1.4270  154.8320  391.7790 C.3   172  ASP172      0.1436
    179  CG         2.1500  153.6320  392.3390 C.2   172  ASP172      0.3671
    180  OD1        2.5430  152.7400  391.5360 O.co2 172  ASP172     -0.2456
    181  OD2        2.3410  153.5790  393.5890 O.co2 172  ASP172     -0.2456
@<TRIPOS>BOND
     1   101    98    1
     2   101   102    1
     3    97    98    1
     4    97    88   am
     5    98    99    1
     6    86    87    1
     7    88    89    2
     8    88    87    1
     9    87    90    1
    10   102   103    1
    11   105   103   ar
    12   103   104   ar
    13   106    99   am
    14   106   107    1
    15    81    80    2
    16    99   100    2
    17    62    63    1
    18    65    64    2
    19    80    79    1
    20    90    91    1
    21    92    91   ar
    22    92    94   ar
    23   110   107    1
    24   110   111    1
    25    64    63    1
    26    91    93   ar
    27    94    96   ar
    28   107   108    1
    29   109   108    2
    30    63    66    1
    31    93    95   ar
    32    79    78    1
    33    79    82    1
    34    96    95   ar
    35   108   116   am
    36   111   112   ar
    37   111   113   ar
    38    72    71    2
    39    83    82    1
    40    83    85    1
    41    69    70    1
    42    66    68    1
    43    66    67    1
    44   112   114   ar
    45    82    84    1
    46   113   115   ar
    47    71    70    1
    48   116   117    1
    49    70    73    1
    50   114   115   ar
    51    73    74    1
    52   122   120    1
    53   117   120    1
    54   117   118    1
    55   120   121    1
    56    74    75    1
    57    75    76    1
    58   118   119    2
    59     7     6    1
    60    76    77    1
    61   172   170    1
    62    57    56    1
    63    57    58    2
    64    60    59    1
    65   167   170    1
    66   167   166    1
    67   167   168    1
    68    56    59    1
    69    56    55    1
    70     6     8    1
    71     6     5    1
    72   170   171    1
    73   174   168   am
    74   174   175    1
    75    59    61    1
    76   168   169    2
    77   176   175    1
    78   176   177    2
    79   175   178    1
    80    53    54    1
    81    53    50    1
    82     5     2    1
    83   162   163    1
    84   162   159    1
    85   163   164    1
    86   123   124    1
    87   171   173    1
    88    40    39    2
    89   161   160    2
    90     1     2    1
    91    50    51    1
    92    50    49    1
    93   180   179   ar
    94     2     3    1
    95    51    52    2
    96   178   179    1
    97   160   159    1
    98   164   165    1
    99   159   158    1
   100    39    49   am
   101    39    38    1
   102   124   127    1
   103   124   125    1
   104   179   181   ar
   105   127   128    1
   106   153   152    2
   107     3     9   am
   108     3     4    2
   109    41    38    1
   110    41    42    1
   111    12    11    2
   112     9    10    1
   113   125   126    2
   114    38    37    1
   115   152   151    1
   116    11    10    1
   117    11    13   am
   118   128   130   am
   119   128   129    2
   120    42    43   ar
   121    42    44   ar
   122    43    45   ar
   123   154   151    1
   124   154   155    1
   125    37    30   am
   126   151   150    1
   127   156   155    2
   128   155   157   am
   129    44    46   ar
   130    13    14    1
   131    14    17    1
   132    14    15    1
   133    23    21    1
   134    20    21    2
   135    20    19    1
   136    18    17    1
   137    18    19    1
   138    24    15   am
   139    24    25    1
   140   143   142    2
   141    45    47   ar
   142    21    22    1
   143    30    31    2
   144    30    29    1
   145    46    47   ar
   146   150   142   am
   147    15    16    2
   148    25    26    1
   149    47    48    1
   150   142   141    1
   151    26    27    2
   152    26    28   am
   153    28    29    1
   154    29    32    1
   155   134   133    2
   156    32    33    1
   157   141   144    1
   158   141   140    1
   159   131   132    1
   160   144   145    1
   161   133   132    1
   162   138   139    1
   163   138   137    1
   164    33    34    1
   165   136   137    1
   166   136   135    1
   167   132   135    1
   168    34    35    1
   169   145   147   ar
   170   145   146   ar
   171   147   149   ar
   172    35    36    1
   173   146   148   ar
   174   149   148   ar
