@<TRIPOS>MOLECULE
tmp/5mofA00.pdb
 129 120 0 0 0
SMALL
GASTEIGER

@<TRIPOS>ATOM
      1  N         15.8880   27.8460   18.0210 N.3   169  ARG169     -0.1245
      2  CA        16.1850   26.5270   18.5510 C.3   169  ARG169      0.1563
      3  C         15.1750   26.2200   19.6460 C.2   169  ARG169      0.2260
      4  O         15.0960   26.9440   20.6480 O.2   169  ARG169     -0.2867
      5  CB        17.5970   26.4730   19.1250 C.3   169  ARG169      0.0307
      6  CG        18.6820   26.5770   18.0870 C.3   169  ARG169      0.0489
      7  CD        19.9960   27.0350   18.7060 C.3   169  ARG169      0.2205
      8  NE        20.5170   26.1300   19.7220 N.pl3 169  ARG169     -0.0865
      9  CZ        21.1320   24.9810   19.4640 C.cat 169  ARG169      0.5346
     10  NH1       21.2840   24.5660   18.2130 N.pl3 169  ARG169      0.1354
     11  NH2       21.5900   24.2430   20.4690 N.pl3 169  ARG169      0.1354
     12  N         14.3680   23.6990   22.4140 N.3   171  LEU171     -0.1245
     13  CA        15.2830   22.8250   23.1290 C.3   171  LEU171      0.1561
     14  C         14.5820   22.0550   24.2360 C.2   171  LEU171      0.2260
     15  O         13.7070   22.5910   24.9310 O.2   171  LEU171     -0.2867
     16  CB        16.3980   23.6480   23.7900 C.3   171  LEU171      0.0270
     17  CG        17.3080   24.4540   22.8590 C.3   171  LEU171      0.0019
     18  CD1       17.2690   25.9150   23.2390 C.3   171  LEU171      0.0001
     19  CD2       18.7300   23.9240   22.9180 C.3   171  LEU171      0.0001
     20  N         16.1770   19.8800   27.4550 N.3   173  PHE173     -0.1241
     21  CA        17.3000   19.3200   28.1870 C.3   173  PHE173      0.1605
     22  C         16.8200   18.1530   29.0370 C.2   173  PHE173      0.2264
     23  O         15.7770   18.2620   29.6930 O.2   173  PHE173     -0.2867
     24  CB        17.9130   20.3760   29.0780 C.3   173  PHE173      0.0534
     25  CG        18.5630   21.4740   28.3100 C.ar  173  PHE173     -0.0203
     26  CD1       17.8280   22.5630   27.8870 C.ar  173  PHE173     -0.0042
     27  CD2       19.9050   21.3930   27.9770 C.ar  173  PHE173     -0.0042
     28  CE1       18.4270   23.5680   27.1440 C.ar  173  PHE173     -0.0003
     29  CE2       20.5030   22.3910   27.2480 C.ar  173  PHE173     -0.0003
     30  CZ        19.7690   23.4750   26.8320 C.ar  173  PHE173     -0.0000
     31  N         24.9330   22.2810   28.1330 N.3   184  ILE184     -0.1245
     32  CA        25.6750   22.9080   27.0390 C.3   184  ILE184      0.1561
     33  C         26.8260   23.6650   27.6760 C.2   184  ILE184      0.2260
     34  O         26.6430   24.3430   28.6930 O.2   184  ILE184     -0.2867
     35  CB        24.8170   23.8860   26.2060 C.3   184  ILE184      0.0252
     36  CG1       23.7040   23.1550   25.4620 C.3   184  ILE184      0.0019
     37  CG2       25.6980   24.6320   25.1790 C.3   184  ILE184      0.0019
     38  CD1       22.7130   24.0950   24.7750 C.3   184  ILE184      0.0001
     39  N         29.5970   29.1360   25.6410 N.3   187  HIS187     -0.1241
     40  CA        29.7290   29.5250   24.2420 C.3   187  HIS187      0.1621
     41  C         29.0890   30.8920   24.0810 C.2   187  HIS187      0.2264
     42  O         28.3740   31.3730   24.9660 O.2   187  HIS187     -0.2867
     43  CB        29.0540   28.5150   23.3010 C.3   187  HIS187      0.0745
     44  CG        27.5600   28.4980   23.4080 C.ar  187  HIS187      0.0817
     45  ND1       26.9040   27.9210   24.4740 N.ar  187  HIS187     -0.2268
     46  CD2       26.5950   28.9860   22.5920 C.ar  187  HIS187      0.1154
     47  CE1       25.6000   28.0530   24.3100 C.ar  187  HIS187      0.1986
     48  NE2       25.3850   28.6960   23.1750 N.ar  187  HIS187     -0.2212
     49  N         26.7100   33.0350   21.0340 N.3   189  ASP189     -0.1239
     50  CA        25.8630   32.7540   19.8840 C.3   189  ASP189      0.1674
     51  C         26.3610   33.5210   18.6670 C.2   189  ASP189      0.2266
     52  O         26.8130   34.6660   18.7730 O.2   189  ASP189     -0.2867
     53  CB        24.4040   33.1100   20.1730 C.3   189  ASP189      0.1410
     54  CG        23.7340   32.1310   21.1230 C.2   189  ASP189      0.3668
     55  OD1       24.1710   30.9590   21.2140 O.co2 189  ASP189     -0.2456
     56  OD2       22.7630   32.5480   21.7820 O.co2 189  ASP189     -0.2456
     57  N         15.4600   34.9100   24.5090 N.3   196  ALA196     -0.1231
     58  CA        15.3760   33.5860   25.1090 C.3   196  ALA196      0.1694
     59  C         14.1270   33.4720   25.9720 C.2   196  ALA196      0.2591
     60  O         13.7740   34.4020   26.7020 O.2   196  ALA196     -0.2718
     61  CB        16.6170   33.2950   25.9530 C.3   196  ALA196      0.0304
     62  N         13.4700   32.3160   25.8930 N.am  197  ALA197     -0.1980
     63  CA        12.3240   32.0050   26.7300 C.3   197  ALA197      0.1597
     64  C         12.5430   30.6420   27.3670 C.2   197  ALA197      0.2287
     65  O         13.2200   29.7820   26.7990 O.2   197  ALA197     -0.2864
     66  CB        11.0350   31.9820   25.9070 C.3   197  ALA197      0.0319
     67  N         19.7730   28.0510   32.8000 N.3   204  LEU204     -0.1245
     68  CA        20.5910   28.9350   31.9720 C.3   204  LEU204      0.1561
     69  C         21.4250   29.8500   32.8540 C.2   204  LEU204      0.2260
     70  O         20.9040   30.4680   33.7880 O.2   204  LEU204     -0.2867
     71  CB        19.7120   29.7720   31.0380 C.3   204  LEU204      0.0270
     72  CG        20.4240   30.8050   30.1440 C.3   204  LEU204      0.0019
     73  CD1       21.3180   30.1400   29.1110 C.3   204  LEU204      0.0001
     74  CD2       19.3940   31.6920   29.4670 C.3   204  LEU204      0.0001
     75  N         27.1810   32.0570   27.5390 N.3   266  HIS266     -0.1241
     76  CA        26.1410   31.3780   28.2880 C.3   266  HIS266      0.1621
     77  C         26.3660   29.8730   28.2410 C.2   266  HIS266      0.2264
     78  O         27.0970   29.3490   27.3980 O.2   266  HIS266     -0.2867
     79  CB        24.7470   31.7900   27.7940 C.3   266  HIS266      0.0745
     80  CG        24.5510   31.6260   26.3250 C.ar  266  HIS266      0.0817
     81  ND1       25.1350   32.4620   25.3960 N.ar  266  HIS266     -0.2268
     82  CD2       23.8380   30.7180   25.6190 C.ar  266  HIS266      0.1154
     83  CE1       24.7910   32.0760   24.1810 C.ar  266  HIS266      0.1986
     84  NE2       24.0040   31.0190   24.2890 N.ar  266  HIS266     -0.2212
     85  N         24.3500   25.9580   29.9760 N.3   268  VAL268     -0.1245
     86  CA        23.1710   25.3640   30.6010 C.3   268  VAL268      0.1561
     87  C         23.5940   24.2040   31.4950 C.2   268  VAL268      0.2260
     88  O         24.3520   23.3200   31.0730 O.2   268  VAL268     -0.2867
     89  CB        22.1310   24.9110   29.5620 C.3   268  VAL268      0.0252
     90  CG1       20.9400   24.2210   30.2550 C.3   268  VAL268      0.0019
     91  CG2       21.6510   26.1040   28.7370 C.3   268  VAL268      0.0019
     92  N         13.9610   20.1590   31.1610 N.3   275  ARG275     -0.1245
     93  CA        13.7890   21.6020   31.0460 C.3   275  ARG275      0.1563
     94  C         13.5420   21.9630   29.5910 C.2   275  ARG275      0.2260
     95  O         14.2820   21.5210   28.7060 O.2   275  ARG275     -0.2867
     96  CB        15.0410   22.3380   31.5390 C.3   275  ARG275      0.0307
     97  CG        15.0260   23.8380   31.2340 C.3   275  ARG275      0.0489
     98  CD        16.2500   24.5670   31.7840 C.3   275  ARG275      0.2205
     99  NE        16.2250   25.9850   31.4120 N.pl3 275  ARG275     -0.0865
    100  CZ        16.8420   26.5130   30.3580 C.cat 275  ARG275      0.5346
    101  NH1       17.5900   25.7630   29.5530 N.pl3 275  ARG275      0.1354
    102  NH2       16.7340   27.8150   30.1190 N.pl3 275  ARG275      0.1354
    103  N         13.1310   25.1030   26.7640 N.3   277  ALA277     -0.1231
    104  CA        13.4970   26.4800   26.4760 C.3   277  ALA277      0.1694
    105  C         13.4900   26.7010   24.9680 C.2   277  ALA277      0.2592
    106  O         13.5200   25.7540   24.1770 O.2   277  ALA277     -0.2718
    107  CB        14.8770   26.8180   27.0660 C.3   277  ALA277      0.0304
    108  N         13.4490   27.9740   24.5800 N.am  278  CYS278     -0.1956
    109  CA        13.5580   28.3830   23.1870 C.3   278  CYS278      0.1843
    110  C         14.5680   29.5160   23.0980 C.2   278  CYS278      0.2625
    111  O         14.5580   30.4320   23.9270 O.2   278  CYS278     -0.2714
    112  CB        12.2050   28.8660   22.6420 C.3   278  CYS278      0.0997
    113  SG        10.9510   27.5610   22.4910 S.3   278  CYS278     -0.0797
    114  N         15.4570   29.4350   22.1110 N.am  279  ALA279     -0.1977
    115  CA        16.4290   30.4860   21.8350 C.3   279  ALA279      0.1597
    116  C         16.1300   31.0100   20.4400 C.2   279  ALA279      0.2287
    117  O         16.2760   30.2770   19.4530 O.2   279  ALA279     -0.2864
    118  CB        17.8540   29.9510   21.9320 C.3   279  ALA279      0.0319
    119  N         16.7460   33.7460   17.3910 N.3   281  PHE281     -0.1241
    120  CA        17.8340   34.5320   16.8200 C.3   281  PHE281      0.1605
    121  C         17.2490   35.4520   15.7570 C.2   281  PHE281      0.2264
    122  O         16.7380   34.9850   14.7340 O.2   281  PHE281     -0.2867
    123  CB        18.9050   33.6070   16.2510 C.3   281  PHE281      0.0534
    124  CG        19.3770   32.5760   17.2340 C.ar  281  PHE281     -0.0203
    125  CD1       20.0180   32.9630   18.3970 C.ar  281  PHE281     -0.0042
    126  CD2       19.1600   31.2290   17.0110 C.ar  281  PHE281     -0.0042
    127  CE1       20.4500   32.0240   19.3150 C.ar  281  PHE281     -0.0003
    128  CE2       19.5860   30.2850   17.9220 C.ar  281  PHE281     -0.0003
    129  CZ        20.2340   30.6820   19.0770 C.ar  281  PHE281     -0.0000
@<TRIPOS>BOND
     1   122   121    2
     2   121   120    1
     3   123   120    1
     4   123   124    1
     5   120   119    1
     6   126   124   ar
     7   126   128   ar
     8   124   125   ar
     9   128   129   ar
    10     1     2    1
    11     6     7    1
    12     6     5    1
    13    10     9    1
    14   125   127   ar
    15     2     5    1
    16     2     3    1
    17    51    52    2
    18    51    50    1
    19     7     8    1
    20   129   127   ar
    21   117   116    2
    22     9     8    2
    23     9    11    1
    24     3     4    2
    25    50    53    1
    26    50    49    1
    27    53    54    1
    28   116   115    1
    29    54    55   ar
    30    54    56   ar
    31   115   118    1
    32   115   114    1
    33   114   110   am
    34    12    13    1
    35   113   112    1
    36    46    48   ar
    37    46    44   ar
    38   112   109    1
    39    17    19    1
    40    17    18    1
    41    17    16    1
    42   110   109    1
    43   110   111    2
    44    13    16    1
    45    13    14    1
    46    48    47   ar
    47   109   108    1
    48    43    44    1
    49    43    40    1
    50    44    45   ar
    51    41    40    1
    52    41    42    2
    53   106   105    2
    54    83    84   ar
    55    83    81   ar
    56    14    15    2
    57    40    39    1
    58    84    82   ar
    59    47    45   ar
    60    57    58    1
    61   108   105   am
    62    38    36    1
    63   105   104    1
    64    58    61    1
    65    58    59    1
    66    37    35    1
    67    81    80   ar
    68    36    35    1
    69    82    80   ar
    70    62    59   am
    71    62    63    1
    72    66    63    1
    73    59    60    2
    74    35    32    1
    75    80    79    1
    76   104   103    1
    77   104   107    1
    78    63    64    1
    79    65    64    2
    80    30    28   ar
    81    30    29   ar
    82    32    33    1
    83    32    31    1
    84    28    26   ar
    85    29    27   ar
    86    78    77    2
    87    20    21    1
    88    75    76    1
    89    33    34    2
    90    79    76    1
    91    26    25   ar
    92    27    25   ar
    93    21    22    1
    94    21    24    1
    95    77    76    1
    96    25    24    1
    97    95    94    2
    98    91    89    1
    99    22    23    2
   100    73    72    1
   101    74    72    1
   102   101   100    1
   103    89    90    1
   104    89    86    1
   105    94    93    1
   106    85    86    1
   107   102   100    1
   108    72    71    1
   109   100    99    2
   110    86    87    1
   111    71    68    1
   112    93    92    1
   113    93    96    1
   114    88    87    2
   115    97    96    1
   116    97    98    1
   117    99    98    1
   118    68    67    1
   119    68    69    1
   120    69    70    2
