@<TRIPOS>MOLECULE
tmp/5mogB01.pdb
 166 155 0 0 0
SMALL
GASTEIGER

@<TRIPOS>ATOM
      1  N        165.4640   59.9530  104.7460 N.3    64  LEU64      -0.1245
      2  CA       165.2720   59.7250  106.1730 C.3    64  LEU64       0.1561
      3  C        164.5200   58.4220  106.2810 C.2    64  LEU64       0.2260
      4  O        163.3460   58.3670  105.9070 O.2    64  LEU64      -0.2867
      5  CB       164.4910   60.9100  106.7920 C.3    64  LEU64       0.0270
      6  CG       164.4930   61.1250  108.3140 C.3    64  LEU64       0.0019
      7  CD1      165.8240   61.4750  108.8550 C.3    64  LEU64       0.0001
      8  CD2      163.5450   62.1980  108.6480 C.3    64  LEU64       0.0001
      9  N        163.0340   55.1350  108.3640 N.3    66  ILE66      -0.1245
     10  CA       162.5000   54.6620  109.6340 C.3    66  ILE66       0.1561
     11  C        162.1720   53.1890  109.5020 C.2    66  ILE66       0.2260
     12  O        161.4970   52.7840  108.5610 O.2    66  ILE66      -0.2867
     13  CB       161.2630   55.4950  110.0990 C.3    66  ILE66       0.0252
     14  CG1      161.6030   56.9880  110.3320 C.3    66  ILE66       0.0019
     15  CG2      160.5820   54.8850  111.3170 C.3    66  ILE66       0.0019
     16  CD1      162.7170   57.2900  111.3400 C.3    66  ILE66       0.0001
     17  N        160.3270   49.8980  111.2450 N.3    68  PHE68      -0.1241
     18  CA       159.1670   49.6590  112.0920 C.3    68  PHE68       0.1605
     19  C        159.2170   48.2590  112.7090 C.2    68  PHE68       0.2264
     20  O        159.9090   47.3770  112.1880 O.2    68  PHE68      -0.2867
     21  CB       157.8700   49.8540  111.2860 C.3    68  PHE68       0.0534
     22  CG       157.5860   51.2980  110.9440 C.ar   68  PHE68      -0.0203
     23  CD1      158.0960   51.8690  109.7830 C.ar   68  PHE68      -0.0042
     24  CD2      156.8210   52.0910  111.7860 C.ar   68  PHE68      -0.0042
     25  CE1      157.8540   53.2080  109.4810 C.ar   68  PHE68      -0.0003
     26  CE2      156.5790   53.4300  111.4830 C.ar   68  PHE68      -0.0003
     27  CZ       157.1010   53.9800  110.3360 C.ar   68  PHE68      -0.0000
     28  N        158.0390   45.1200  110.5180 N.3    71  TYR71      -0.1241
     29  CA       158.9550   44.8510  109.4160 C.3    71  TYR71       0.1605
     30  C        159.5730   43.4770  109.7050 C.2    71  TYR71       0.2264
     31  O        160.7280   43.4220  110.1350 O.2    71  TYR71      -0.2867
     32  CB       160.0320   45.9550  109.3080 C.3    71  TYR71       0.0534
     33  CG       159.6770   47.2100  108.5270 C.ar   71  TYR71      -0.0201
     34  CD1      158.3620   47.4760  108.1410 C.ar   71  TYR71      -0.0009
     35  CD2      160.6550   48.1420  108.1900 C.ar   71  TYR71      -0.0009
     36  CE1      158.0380   48.6250  107.4140 C.ar   71  TYR71       0.0417
     37  CE2      160.3410   49.2980  107.4730 C.ar   71  TYR71       0.0417
     38  CZ       159.0310   49.5360  107.0870 C.ar   71  TYR71       0.1957
     39  OH       158.7360   50.6780  106.3820 O.3    71  TYR71      -0.2866
     40  N        154.0770   59.1510  118.6210 N.3    94  MET94      -0.1245
     41  CA       153.9110   59.7760  117.3140 C.3    94  MET94       0.1570
     42  C        153.8040   61.2680  117.5540 C.2    94  MET94       0.2261
     43  O        152.7380   61.7500  117.9270 O.2    94  MET94      -0.2867
     44  CB       152.6670   59.2170  116.6060 C.3    94  MET94       0.0387
     45  CG       152.7150   57.7260  116.3830 C.3    94  MET94       0.0595
     46  SD       153.0910   57.3480  114.6770 S.3    94  MET94      -0.1393
     47  CE       151.4590   57.6650  113.9380 C.3    94  MET94       0.0692
     48  N        150.3650   61.2510  107.3350 N.3   183  MET183     -0.1245
     49  CA       150.5890   59.8210  107.1180 C.3   183  MET183      0.1570
     50  C        150.7930   59.4910  105.6250 C.2   183  MET183      0.2261
     51  O        151.6410   58.6550  105.3060 O.2   183  MET183     -0.2867
     52  CB       149.4300   58.9980  107.6970 C.3   183  MET183      0.0387
     53  CG       149.7940   57.5610  107.9090 C.3   183  MET183      0.0595
     54  SD       148.4910   56.5900  108.6680 S.3   183  MET183     -0.1393
     55  CE       149.3240   56.0790  110.1570 C.3   183  MET183      0.0692
     56  N        154.1800   60.7110  104.5140 N.3   186  ALA186     -0.1231
     57  CA       155.1820   59.8880  105.1750 C.3   186  ALA186      0.1694
     58  C        155.3960   58.6030  104.4050 C.2   186  ALA186      0.2591
     59  O        156.5390   58.2670  104.1480 O.2   186  ALA186     -0.2718
     60  CB       154.7740   59.5840  106.6120 C.3   186  ALA186      0.0304
     61  N        154.3170   57.9370  103.9680 N.am  187  LEU187     -0.1980
     62  CA       154.3810   56.6540  103.2680 C.3   187  LEU187      0.1596
     63  C        154.7440   56.7220  101.7730 C.2   187  LEU187      0.2287
     64  O        155.3960   55.7960  101.2940 O.2   187  LEU187     -0.2864
     65  CB       153.0360   55.9090  103.3910 C.3   187  LEU187      0.0297
     66  CG       152.5720   55.4980  104.7860 C.3   187  LEU187      0.0022
     67  CD1      151.0840   55.3870  104.8200 C.3   187  LEU187      0.0001
     68  CD2      153.2110   54.2020  105.2290 C.3   187  LEU187      0.0001
     69  N        155.0720   60.1330   99.8600 N.3   189  PHE189     -0.1241
     70  CA       155.4430   61.5150   99.5110 C.3   189  PHE189      0.1605
     71  C        154.3740   62.2650   98.6740 C.2   189  PHE189      0.2264
     72  O        154.6910   63.2530   98.0050 O.2   189  PHE189     -0.2867
     73  CB       156.8180   61.5450   98.8040 C.3   189  PHE189      0.0534
     74  CG       157.8370   60.5520   99.3300 C.ar  189  PHE189     -0.0203
     75  CD1      158.2500   60.5850  100.6640 C.ar  189  PHE189     -0.0042
     76  CD2      158.3970   59.5970   98.4900 C.ar  189  PHE189     -0.0042
     77  CE1      159.1760   59.6560  101.1490 C.ar  189  PHE189     -0.0003
     78  CE2      159.3370   58.6830   98.9750 C.ar  189  PHE189     -0.0003
     79  CZ       159.7180   58.7200  100.3000 C.ar  189  PHE189     -0.0000
     80  N        149.5110   50.3030  106.3870 N.3   203  ALA203     -0.1245
     81  CA       150.2030   51.0980  107.3990 C.3   203  ALA203      0.1562
     82  C        149.4530   51.0730  108.7340 C.2   203  ALA203      0.2260
     83  O        150.0980   50.9590  109.7760 O.2   203  ALA203     -0.2867
     84  CB       150.3570   52.5280  106.9250 C.3   203  ALA203      0.0290
     85  N        149.8480   48.0580  111.1340 N.3   206  ARG206     -0.1231
     86  CA       151.0080   48.0440  112.0320 C.3   206  ARG206      0.1694
     87  C        150.5450   48.2960  113.4670 C.2   206  ARG206      0.2592
     88  O        151.1040   47.7450  114.4090 O.2   206  ARG206     -0.2718
     89  CB       152.0390   49.1210  111.6200 C.3   206  ARG206      0.0321
     90  CG       152.6600   48.9520  110.2360 C.3   206  ARG206      0.0489
     91  CD       153.6050   50.0900  109.9320 C.3   206  ARG206      0.2205
     92  NE       154.1760   49.9940  108.5900 N.pl3 206  ARG206     -0.0865
     93  CZ       154.6860   51.0240  107.9140 C.cat 206  ARG206      0.5346
     94  NH1      154.6950   52.2390  108.4460 N.pl3 206  ARG206      0.1354
     95  NH2      155.1720   50.8490  106.6930 N.pl3 206  ARG206      0.1354
     96  N        149.4950   49.1190  113.6100 N.am  207  PHE207     -0.1976
     97  CA       148.8850   49.5540  114.8600 C.3   207  PHE207      0.1639
     98  C        147.9530   48.5110  115.4990 C.2   207  PHE207      0.2290
     99  O        147.7670   48.5790  116.7110 O.2   207  PHE207     -0.2864
    100  CB       148.1070   50.8560  114.6280 C.3   207  PHE207      0.0560
    101  CG       148.9720   52.0130  114.1900 C.ar  207  PHE207     -0.0200
    102  CD1      149.3240   52.1730  112.8590 C.ar  207  PHE207     -0.0042
    103  CD2      149.4260   52.9510  115.1070 C.ar  207  PHE207     -0.0042
    104  CE1      150.1330   53.2380  112.4550 C.ar  207  PHE207     -0.0003
    105  CE2      150.2270   54.0230  114.6990 C.ar  207  PHE207     -0.0003
    106  CZ       150.5790   54.1540  113.3770 C.ar  207  PHE207     -0.0000
    107  N        159.0140   52.7840  116.1600 N.3   216  MET216     -0.1245
    108  CA       159.9970   53.2570  115.1870 C.3   216  MET216      0.1570
    109  C        161.4450   53.1160  115.6560 C.2   216  MET216      0.2261
    110  O        161.7230   53.2000  116.8520 O.2   216  MET216     -0.2867
    111  CB       159.7210   54.7330  114.8640 C.3   216  MET216      0.0387
    112  CG       158.3380   54.9820  114.3270 C.3   216  MET216      0.0595
    113  SD       158.1800   56.6870  113.7990 S.3   216  MET216     -0.1393
    114  CE       157.0340   57.2800  114.9780 C.3   216  MET216      0.0692
    115  N        161.3800   60.9110  115.5260 N.3   327  LEU327     -0.1245
    116  CA       160.9290   61.3960  114.2350 C.3   327  LEU327      0.1561
    117  C        159.7800   62.3620  114.5040 C.2   327  LEU327      0.2260
    118  O        159.0130   62.1450  115.4420 O.2   327  LEU327     -0.2867
    119  CB       160.4810   60.2260  113.3420 C.3   327  LEU327      0.0270
    120  CG       159.9430   60.6070  111.9650 C.3   327  LEU327      0.0019
    121  CD1      161.0440   60.6440  110.9330 C.3   327  LEU327      0.0001
    122  CD2      158.8320   59.6990  111.5500 C.3   327  LEU327      0.0001
    123  N        156.4980   64.7320  112.6870 N.3   329  PHE329     -0.1241
    124  CA       155.6040   65.0300  111.5760 C.3   329  PHE329      0.1605
    125  C        155.4020   66.5440  111.5580 C.2   329  PHE329      0.2264
    126  O        154.7100   67.0820  112.4190 O.2   329  PHE329     -0.2867
    127  CB       154.2780   64.2680  111.7280 C.3   329  PHE329      0.0534
    128  CG       154.3960   62.7610  111.7280 C.ar  329  PHE329     -0.0203
    129  CD1      154.6050   62.0610  112.9130 C.ar  329  PHE329     -0.0042
    130  CD2      154.2690   62.0390  110.5500 C.ar  329  PHE329     -0.0042
    131  CE1      154.7040   60.6630  112.9130 C.ar  329  PHE329     -0.0003
    132  CE2      154.3750   60.6450  110.5490 C.ar  329  PHE329     -0.0003
    133  CZ       154.5840   59.9630  111.7280 C.ar  329  PHE329     -0.0000
    134  N        158.1670   64.3220  107.1000 N.3   337  VAL337     -0.1245
    135  CA       158.8050   63.9400  108.3560 C.3   337  VAL337      0.1561
    136  C        160.2110   64.5930  108.4570 C.2   337  VAL337      0.2260
    137  O        160.8140   64.9160  107.4340 O.2   337  VAL337     -0.2867
    138  CB       158.8670   62.3930  108.5150 C.3   337  VAL337      0.0252
    139  CG1      157.4710   61.7920  108.6530 C.3   337  VAL337      0.0019
    140  CG2      159.6280   61.7290  107.3690 C.3   337  VAL337      0.0019
    141  N        160.2910   55.8170   94.8040 N.3   411  VAL411     -0.1245
    142  CA       159.3480   54.7050   94.9210 C.3   411  VAL411      0.1561
    143  C        158.1950   54.9460   93.9270 C.2   411  VAL411      0.2260
    144  O        157.9510   56.0880   93.5420 O.2   411  VAL411     -0.2867
    145  CB       158.8400   54.5320   96.3950 C.3   411  VAL411      0.0252
    146  CG1      159.9600   54.0690   97.3300 C.3   411  VAL411      0.0019
    147  CG2      158.1710   55.8060   96.9310 C.3   411  VAL411      0.0019
    148  N        154.2110   47.3130  101.0300 N.3   444  LEU444     -0.1231
    149  CA       154.3330   48.6130  100.3520 C.3   444  LEU444      0.1693
    150  C        155.7060   48.8370   99.6840 C.2   444  LEU444      0.2592
    151  O        156.5710   47.9550   99.7020 O.2   444  LEU444     -0.2718
    152  CB       154.0530   49.7990  101.3240 C.3   444  LEU444      0.0284
    153  CG       152.7990   49.7660  102.1970 C.3   444  LEU444      0.0019
    154  CD1      152.8000   50.9180  103.1910 C.3   444  LEU444      0.0001
    155  CD2      151.5340   49.7740  101.3560 C.3   444  LEU444      0.0001
    156  N        155.8950   50.0410   99.0950 N.am  445  ALA445     -0.1966
    157  CA       157.1610   50.4640   98.5320 C.3   445  ALA445      0.1728
    158  C        157.9850   50.9950   99.7130 C.2   445  ALA445      0.2616
    159  O        157.9320   52.1800  100.0590 O.2   445  ALA445     -0.2715
    160  CB       156.9380   51.5170   97.4520 C.3   445  ALA445      0.0334
    161  N        158.6400   50.0560  100.4130 N.am  446  SER446     -0.1950
    162  CA       159.4090   50.2960  101.6280 C.3   446  SER446      0.1924
    163  C        160.6830   49.4590  101.6560 C.2   446  SER446      0.2314
    164  O        160.8780   48.6150  100.7790 O.2   446  SER446     -0.2863
    165  CB       158.5520   49.9270  102.8320 C.3   446  SER446      0.2116
    166  OG       158.3400   48.5240  102.8750 O.3   446  SER446     -0.2180
@<TRIPOS>BOND
     1   144   143    2
     2   143   142    1
     3   141   142    1
     4   142   145    1
     5   145   147    1
     6   145   146    1
     7   160   157    1
     8    72    71    2
     9    76    78   ar
    10    76    74   ar
    11   157   156    1
    12   157   158    1
    13    71    70    1
    14    73    74    1
    15    73    70    1
    16    78    79   ar
    17   156   150   am
    18    74    75   ar
    19    70    69    1
    20   150   151    2
    21   150   149    1
    22   158   159    2
    23   158   161   am
    24    79    77   ar
    25   149   148    1
    26   149   152    1
    27   161   162    1
    28    75    77   ar
    29   164   163    2
    30    64    63    2
    31   152   153    1
    32   155   153    1
    33   162   163    1
    34   162   165    1
    35    63    62    1
    36   153   154    1
    37   165   166    1
    38    62    65    1
    39    62    61    1
    40    65    66    1
    41    61    58   am
    42    59    58    2
    43    58    57    1
    44    56    57    1
    45     1     2    1
    46    66    67    1
    47    66    68    1
    48    57    60    1
    49    51    50    2
    50    50    49    1
    51     4     3    2
    52     2     3    1
    53     2     5    1
    54    39    38    1
    55    80    81    1
    56    95    93    1
    57     5     6    1
    58    84    81    1
    59    38    36   ar
    60    38    37   ar
    61   134   135    1
    62    49    48    1
    63    49    52    1
    64   140   138    1
    65    81    82    1
    66    36    34   ar
    67   137   136    2
    68    37    35   ar
    69    52    53    1
    70    53    54    1
    71    93    94    1
    72    93    92    2
    73    34    33   ar
    74    35    33   ar
    75     6     8    1
    76     6     7    1
    77   135   136    1
    78   135   138    1
    79     9    10    1
    80   138   139    1
    81    33    32    1
    82    12    11    2
    83    92    91    1
    84    54    55    1
    85    82    83    2
    86    32    29    1
    87    29    30    1
    88    29    28    1
    89    25    23   ar
    90    25    27   ar
    91    11    10    1
    92    10    13    1
    93    30    31    2
    94    23    22   ar
    95    91    90    1
    96    13    14    1
    97    13    15    1
    98    90    89    1
    99    14    16    1
   100    27    26   ar
   101   132   130   ar
   102   132   133   ar
   103   130   128   ar
   104   121   120    1
   105    22    21    1
   106    22    24   ar
   107    85    86    1
   108    17    18    1
   109    21    18    1
   110    26    24   ar
   111   122   120    1
   112   125   124    1
   113   125   126    2
   114   124   127    1
   115   124   123    1
   116    89    86    1
   117   133   131   ar
   118   128   127    1
   119   128   129   ar
   120   120   119    1
   121    86    87    1
   122    18    19    1
   123    20    19    2
   124   104   102   ar
   125   104   106   ar
   126   102   101   ar
   127   129   131   ar
   128   119   116    1
   129   106   105   ar
   130    87    96   am
   131    87    88    2
   132    96    97    1
   133   113   112    1
   134   113   114    1
   135    47    46    1
   136   101   100    1
   137   101   103   ar
   138   116   117    1
   139   116   115    1
   140   112   111    1
   141   117   118    2
   142   100    97    1
   143    46    45    1
   144   105   103   ar
   145    97    98    1
   146   111   108    1
   147   108   109    1
   148   108   107    1
   149    98    99    2
   150   109   110    2
   151    45    44    1
   152    44    41    1
   153    41    42    1
   154    41    40    1
   155    42    43    2
