@<TRIPOS>MOLECULE
tmp/5mohA00.pdb
 130 126 0 0 0
SMALL
GASTEIGER

@<TRIPOS>ATOM
      1  N       -128.5970 -175.8540  307.4240 N.3    43  LEU43      -0.1245
      2  CA      -127.1870 -175.5230  307.6220 C.3    43  LEU43       0.1561
      3  C       -126.3090 -175.9040  306.4360 C.2    43  LEU43       0.2260
      4  O       -125.3800 -175.1650  306.0990 O.2    43  LEU43      -0.2867
      5  CB      -126.6360 -176.1370  308.9230 C.3    43  LEU43       0.0270
      6  CG      -127.2800 -175.6590  310.2090 C.3    43  LEU43       0.0019
      7  CD1     -126.7040 -176.4000  311.3970 C.3    43  LEU43       0.0001
      8  CD2     -127.0980 -174.1470  310.4020 C.3    43  LEU43       0.0001
      9  N       -128.4560 -181.1500  306.5880 N.3    51  VAL51      -0.1245
     10  CA      -128.2990 -180.8430  307.9990 C.3    51  VAL51       0.1561
     11  C       -129.0330 -179.5570  308.3380 C.2    51  VAL51       0.2260
     12  O       -128.9540 -178.5730  307.6030 O.2    51  VAL51      -0.2867
     13  CB      -126.7880 -180.8080  308.3650 C.3    51  VAL51       0.0252
     14  CG1     -126.5600 -180.3560  309.7950 C.3    51  VAL51       0.0019
     15  CG2     -126.1410 -182.1770  308.1290 C.3    51  VAL51       0.0019
     16  N       -129.4130 -180.4310  316.3150 N.3    64  VAL64      -0.1245
     17  CA      -129.0520 -180.5080  314.9180 C.3    64  VAL64       0.1561
     18  C       -129.6790 -181.7670  314.3590 C.2    64  VAL64       0.2260
     19  O       -129.6120 -182.8270  314.9910 O.2    64  VAL64      -0.2867
     20  CB      -127.5080 -180.4760  314.7080 C.3    64  VAL64       0.0252
     21  CG1     -127.1470 -180.8430  313.2720 C.3    64  VAL64       0.0019
     22  CG2     -126.9490 -179.1040  315.0910 C.3    64  VAL64       0.0019
     23  N       -129.8600 -184.3180  311.0730 N.3    66  LYS66      -0.1245
     24  CA      -129.2340 -184.7670  309.8420 C.3    66  LYS66       0.1561
     25  C       -130.2060 -185.7240  309.1700 C.2    66  LYS66       0.2260
     26  O       -130.4580 -186.8160  309.6740 O.2    66  LYS66      -0.2867
     27  CB      -127.8920 -185.4430  310.2020 C.3    66  LYS66       0.0271
     28  CG      -127.1390 -186.0150  309.0480 C.3    66  LYS66       0.0035
     29  CD      -125.9040 -186.7200  309.6460 C.3    66  LYS66       0.0206
     30  CE      -124.9240 -187.1560  308.6150 C.3    66  LYS66       0.1093
     31  NZ      -123.6870 -187.6000  309.3120 N.3    66  LYS66      -0.1314
     32  N       -119.5880 -186.3760  319.4750 N.3    93  ILE93      -0.1245
     33  CA      -120.9310 -185.8200  319.3520 C.3    93  ILE93       0.1561
     34  C       -121.9730 -186.8130  319.9210 C.2    93  ILE93       0.2260
     35  O       -121.8750 -188.0400  319.7080 O.2    93  ILE93      -0.2867
     36  CB      -121.2120 -185.4110  317.8870 C.3    93  ILE93       0.0252
     37  CG1     -122.4180 -184.4400  317.8110 C.3    93  ILE93       0.0019
     38  CG2     -121.4360 -186.6110  316.9750 C.3    93  ILE93       0.0019
     39  CD1     -122.0870 -183.0400  318.4520 C.3    93  ILE93       0.0001
     40  N       -128.8980 -184.6860  316.9640 N.3   111  PHE111     -0.1227
     41  CA      -127.6680 -184.5160  317.7570 C.3   111  PHE111      0.1736
     42  C       -127.7480 -183.3220  318.6710 C.2   111  PHE111      0.2595
     43  O       -128.4440 -182.3470  318.3800 O.2   111  PHE111     -0.2718
     44  CB      -126.4680 -184.2390  316.7900 C.3   111  PHE111      0.0547
     45  CG      -126.1500 -185.3480  315.8370 C.ar  111  PHE111     -0.0202
     46  CD1     -125.3560 -186.4260  316.2350 C.ar  111  PHE111     -0.0042
     47  CD2     -126.6730 -185.3570  314.5500 C.ar  111  PHE111     -0.0042
     48  CE1     -125.0370 -187.4550  315.3400 C.ar  111  PHE111     -0.0003
     49  CE2     -126.3860 -186.4020  313.6690 C.ar  111  PHE111     -0.0003
     50  CZ      -125.5450 -187.4390  314.0630 C.ar  111  PHE111     -0.0000
     51  N       -126.8770 -183.3090  319.7050 N.am  112  GLU112     -0.1965
     52  CA      -126.6990 -182.1270  320.5510 C.3   112  GLU112      0.1733
     53  C       -126.1720 -180.9860  319.6390 C.2   112  GLU112      0.2616
     54  O       -125.4710 -181.2340  318.6360 O.2   112  GLU112     -0.2715
     55  CB      -125.6550 -182.4080  321.6700 C.3   112  GLU112      0.0429
     56  CG      -124.2150 -182.3690  321.1720 C.3   112  GLU112      0.1163
     57  CD      -123.0580 -182.6360  322.1160 C.2   112  GLU112      0.3649
     58  OE1     -122.5790 -181.6830  322.7720 O.co2 112  GLU112     -0.2457
     59  OE2     -122.5170 -183.7610  322.0540 O.co2 112  GLU112     -0.2457
     60  N       -126.5200 -179.7430  319.9780 N.am  113  HIS113     -0.1959
     61  CA      -126.0390 -178.6140  319.1960 C.3   113  HIS113      0.1787
     62  C       -124.7540 -178.1210  319.8600 C.2   113  HIS113      0.2620
     63  O       -124.6560 -178.1560  321.0880 O.2   113  HIS113     -0.2715
     64  CB      -127.1280 -177.5210  319.1280 C.3   113  HIS113      0.0785
     65  CG      -126.6660 -176.1860  318.6340 C.ar  113  HIS113      0.0821
     66  ND1     -126.3350 -175.1720  319.5120 N.ar  113  HIS113     -0.2267
     67  CD2     -126.5380 -175.7260  317.3680 C.ar  113  HIS113      0.1154
     68  CE1     -126.0080 -174.1350  318.7610 C.ar  113  HIS113      0.1986
     69  NE2     -126.1130 -174.4160  317.4660 N.ar  113  HIS113     -0.2212
     70  N       -123.7640 -177.7080  319.0540 N.am  114  VAL114     -0.1963
     71  CA      -122.4880 -177.2000  319.5770 C.3   114  VAL114      0.1727
     72  C       -122.4280 -175.6930  319.3470 C.2   114  VAL114      0.2616
     73  O       -122.4340 -174.9240  320.3120 O.2   114  VAL114     -0.2715
     74  CB      -121.2490 -177.9280  318.9670 C.3   114  VAL114      0.0290
     75  CG1     -119.9300 -177.3580  319.5120 C.3   114  VAL114      0.0023
     76  CG2     -121.3190 -179.4250  319.2140 C.3   114  VAL114      0.0023
     77  N       -122.3610 -175.2860  318.0690 N.am  115  ASN115     -0.1958
     78  CA      -122.2590 -173.8930  317.6170 C.3   115  ASN115      0.1819
     79  C       -122.3200 -173.8910  316.0900 C.2   115  ASN115      0.2621
     80  O       -121.9450 -174.8850  315.4620 O.2   115  ASN115     -0.2715
     81  CB      -120.9220 -173.2810  318.0760 C.3   115  ASN115      0.1195
     82  CG      -120.9040 -171.7780  318.1980 C.2   115  ASN115      0.2630
     83  OD1     -121.7720 -171.1570  318.8320 O.2   115  ASN115     -0.2716
     84  ND2     -119.8660 -171.1610  317.6490 N.am  115  ASN115     -0.0877
     85  N       -122.7490 -172.7670  315.4900 N.am  116  ASN116     -0.1972
     86  CA      -122.8310 -172.6190  314.0330 C.3   116  ASN116      0.1688
     87  C       -121.4310 -172.5740  313.3590 C.2   116  ASN116      0.2292
     88  O       -121.3510 -172.5060  312.1290 O.2   116  ASN116     -0.2864
     89  CB      -123.6700 -171.3740  313.6680 C.3   116  ASN116      0.1181
     90  CG      -124.1680 -171.3280  312.2360 C.2   116  ASN116      0.2629
     91  OD1     -124.4260 -172.3570  311.5930 O.2   116  ASN116     -0.2716
     92  ND2     -124.3290 -170.1230  311.7040 N.am  116  ASN116     -0.0877
     93  N       -116.3710 -179.5720  315.4930 N.3   161  MET161     -0.1245
     94  CA      -117.2120 -178.4220  315.8650 C.3   161  MET161      0.1570
     95  C       -116.6520 -177.8350  317.1670 C.2   161  MET161      0.2261
     96  O       -116.4060 -178.5520  318.1380 O.2   161  MET161     -0.2867
     97  CB      -118.6870 -178.8380  316.0100 C.3   161  MET161      0.0387
     98  CG      -119.3650 -179.2170  314.6580 C.3   161  MET161      0.0595
     99  SD      -119.3990 -177.8330  313.4520 S.3   161  MET161     -0.1393
    100  CE      -119.4420 -178.6250  311.9780 C.3   161  MET161      0.0692
    101  N       -117.5360 -184.7470  314.8660 N.3   172  ILE172     -0.1231
    102  CA      -118.8480 -185.0580  314.2710 C.3   172  ILE172      0.1692
    103  C       -118.6720 -185.8670  312.9710 C.2   172  ILE172      0.2592
    104  O       -117.5260 -186.1800  312.5390 O.2   172  ILE172     -0.2718
    105  CB      -119.6400 -183.7350  313.9850 C.3   172  ILE172      0.0266
    106  CG1     -118.9310 -182.8760  312.9220 C.3   172  ILE172      0.0019
    107  CG2     -119.8540 -182.9360  315.2600 C.3   172  ILE172      0.0020
    108  CD1     -119.9030 -181.9830  312.0870 C.3   172  ILE172      0.0001
    109  N       -119.8320 -186.1460  312.3070 N.am  173  ASP173     -0.1960
    110  CA      -119.9450 -186.8270  311.0180 C.3   173  ASP173      0.1840
    111  C       -119.2240 -188.1610  310.9860 C.2   173  ASP173      0.2622
    112  O       -118.1700 -188.3240  310.3240 O.2   173  ASP173     -0.2715
    113  CB      -119.5620 -185.9700  309.8110 C.3   173  ASP173      0.1450
    114  CG      -120.2250 -186.5030  308.5380 C.2   173  ASP173      0.3671
    115  OD1     -120.7040 -187.6670  308.5510 O.co2 173  ASP173     -0.2456
    116  OD2     -120.3100 -185.7430  307.5500 O.co2 173  ASP173     -0.2456
    117  N       -119.8970 -189.1230  311.6040 N.am  174  TRP174     -0.1974
    118  CA      -119.4500 -190.5070  311.7080 C.3   174  TRP174      0.1640
    119  C       -120.0050 -191.3720  310.5610 C.2   174  TRP174      0.2290
    120  O       -119.9370 -192.6010  310.6510 O.2   174  TRP174     -0.2864
    121  CB      -119.8480 -191.0520  313.0950 C.3   174  TRP174      0.0576
    122  CG      -119.1250 -190.3100  314.1820 C.ar  174  TRP174      0.0006
    123  CD1     -119.4770 -189.1000  314.7230 C.ar  174  TRP174      0.0946
    124  CD2     -117.8670 -190.6690  314.7720 C.ar  174  TRP174      0.0152
    125  NE1     -118.5040 -188.6750  315.6100 N.ar  174  TRP174     -0.2442
    126  CE2     -117.5250 -189.6420  315.6860 C.ar  174  TRP174      0.0810
    127  CE3     -117.0270 -191.8130  314.6910 C.ar  174  TRP174      0.0012
    128  CZ2     -116.3570 -189.6900  316.4640 C.ar  174  TRP174      0.0191
    129  CZ3     -115.8200 -191.8000  315.3930 C.ar  174  TRP174      0.0001
    130  CH2     -115.5280 -190.7770  316.3070 C.ar  174  TRP174      0.0015
@<TRIPOS>BOND
     1     4     3    2
     2     3     2    1
     3     9    10    1
     4     1     2    1
     5   116   114   ar
     6    12    11    2
     7     2     5    1
     8    10    11    1
     9    10    13    1
    10    15    13    1
    11    13    14    1
    12   114   115   ar
    13   114   113    1
    14    30    31    1
    15    30    29    1
    16     5     6    1
    17    28    29    1
    18    28    27    1
    19    25    26    2
    20    25    24    1
    21   113   110    1
    22    24    27    1
    23    24    23    1
    24     6     8    1
    25     6     7    1
    26   112   111    2
    27   119   120    2
    28   119   118    1
    29   111   110    1
    30   111   117   am
    31   110   109    1
    32    91    90    2
    33   117   118    1
    34    92    90   am
    35   118   121    1
    36   100    99    1
    37   108   106    1
    38    88    87    2
    39    90    89    1
    40   109   103   am
    41   104   103    2
    42   106   105    1
    43   103   102    1
    44   121   122    1
    45    21    20    1
    46    87    86    1
    47    99    98    1
    48    89    86    1
    49    49    50   ar
    50    49    47   ar
    51   105   102    1
    52   105   107    1
    53    86    85    1
    54    50    48   ar
    55   122   123   ar
    56   122   124   ar
    57   102   101    1
    58    18    17    1
    59    18    19    2
    60    47    45   ar
    61    98    97    1
    62   127   124   ar
    63   127   129   ar
    64    20    17    1
    65    20    22    1
    66   123   125   ar
    67   124   126   ar
    68    17    16    1
    69    48    46   ar
    70   129   130   ar
    71    80    79    2
    72    85    79   am
    73    93    94    1
    74   125   126   ar
    75   126   128   ar
    76    45    46   ar
    77    45    44    1
    78    94    97    1
    79    94    95    1
    80    79    78    1
    81   130   128   ar
    82    44    41    1
    83    40    41    1
    84    38    36    1
    85    95    96    2
    86    67    69   ar
    87    67    65   ar
    88    69    68   ar
    89    78    77    1
    90    78    81    1
    91    84    82   am
    92    41    42    1
    93    37    36    1
    94    37    39    1
    95    36    33    1
    96    77    72   am
    97    81    82    1
    98    82    83    2
    99    43    42    2
   100    65    64    1
   101    65    66   ar
   102    54    53    2
   103    42    51   am
   104    68    66   ar
   105    74    76    1
   106    74    75    1
   107    74    71    1
   108    70    71    1
   109    70    62   am
   110    64    61    1
   111    61    62    1
   112    61    60    1
   113    72    71    1
   114    72    73    2
   115    33    32    1
   116    33    34    1
   117    53    60   am
   118    53    52    1
   119    51    52    1
   120    35    34    2
   121    62    63    2
   122    52    55    1
   123    56    55    1
   124    56    57    1
   125    59    57   ar
   126    57    58   ar
