@<TRIPOS>MOLECULE
tmp/5moiB03.pdb
 84 84 0 0 0
SMALL
GASTEIGER

@<TRIPOS>ATOM
      1  N        -19.4800  -23.9200   31.3800 N.3     4  SER4       -0.1202
      2  CA       -19.1860  -23.4220   30.0470 C.3     4  SER4        0.2020
      3  C        -20.0910  -22.2510   29.6820 C.2     4  SER4        0.2619
      4  O        -21.1550  -22.0420   30.2690 O.2     4  SER4       -0.2717
      5  CB       -19.3490  -24.5350   29.0130 C.3     4  SER4        0.2103
      6  OG       -20.7120  -24.8950   28.8800 O.3     4  SER4       -0.2182
      7  N        -19.6490  -21.4900   28.6930 N.am    5  ARG5       -0.1965
      8  CA       -20.4040  -20.4090   28.0850 C.3     5  ARG5        0.1714
      9  C        -21.1980  -20.9340   26.8960 C.2     5  ARG5        0.2458
     10  O        -20.9170  -22.0190   26.3800 O.2     5  ARG5       -0.2730
     11  CB       -19.4540  -19.2980   27.6380 C.3     5  ARG5        0.0347
     12  CG       -18.7400  -18.5910   28.7780 C.3     5  ARG5        0.0492
     13  CD       -17.6680  -17.6490   28.2560 C.3     5  ARG5        0.2205
     14  NE       -16.6240  -18.3860   27.5520 N.pl3   5  ARG5       -0.0865
     15  CZ       -15.5020  -18.8170   28.1190 C.cat   5  ARG5        0.5346
     16  NH1      -15.2700  -18.5760   29.4030 N.pl3   5  ARG5        0.1354
     17  NH2      -14.6100  -19.4870   27.4010 N.pl3   5  ARG5        0.1354
     18  N        -22.2110  -20.1980   26.4420 N.am    6  PRO6       -0.2716
     19  CA       -22.9490  -20.6350   25.2530 C.3     6  PRO6        0.1536
     20  C        -22.0460  -20.6810   24.0330 C.2     6  PRO6        0.2599
     21  O        -21.1530  -19.8490   23.8640 O.2     6  PRO6       -0.2715
     22  CB       -24.0420  -19.5700   25.1060 C.3     6  PRO6        0.0310
     23  CG       -24.2150  -19.0190   26.4860 C.3     6  PRO6        0.0237
     24  CD       -22.8360  -19.0220   27.0680 C.3     6  PRO6        0.0939
     25  N        -22.2710  -21.6770   23.1890 N.am    7  SER7       -0.1937
     26  CA       -21.5560  -21.7150   21.9270 C.3     7  SER7        0.2040
     27  C        -21.9820  -20.5200   21.0790 C.2     7  SER7        0.2485
     28  O        -23.1440  -20.1020   21.1370 O.2     7  SER7       -0.2729
     29  CB       -21.8400  -23.0160   21.1790 C.3     7  SER7        0.2129
     30  OG       -23.1480  -23.0050   20.6400 O.3     7  SER7       -0.2179
     31  N        -21.0690  -19.9220   20.3140 N.am    8  PRO8       -0.2726
     32  CA       -21.4940  -18.8760   19.3730 C.3     8  PRO8        0.1402
     33  C        -22.5580  -19.3580   18.4060 C.2     8  PRO8        0.2269
     34  O        -23.3770  -18.5540   17.9430 O.2     8  PRO8       -0.2865
     35  CB       -20.1890  -18.5080   18.6540 C.3     8  PRO8        0.0296
     36  CG       -19.1210  -18.8340   19.6520 C.3     8  PRO8        0.0237
     37  CD       -19.6040  -20.0720   20.3570 C.3     8  PRO8        0.0939
     38  N        -12.0830  -16.5250   23.0120 N.3   119  GLU119     -0.1231
     39  CA       -11.8300  -17.8580   22.4790 C.3   119  GLU119      0.1699
     40  C        -13.0970  -18.6000   22.0730 C.2   119  GLU119      0.2592
     41  O        -12.9950  -19.6430   21.4190 O.2   119  GLU119     -0.2718
     42  CB       -11.0590  -18.6930   23.5020 C.3   119  GLU119      0.0402
     43  CG       -11.8680  -19.0540   24.7330 C.3   119  GLU119      0.1161
     44  CD       -11.0090  -19.6090   25.8510 C.2   119  GLU119      0.3649
     45  OE1      -10.4260  -18.8060   26.6110 O.co2 119  GLU119     -0.2457
     46  OE2      -10.9100  -20.8490   25.9640 O.co2 119  GLU119     -0.2457
     47  N        -14.2740  -18.1040   22.4440 N.am  120  ASP120     -0.1960
     48  CA       -15.5170  -18.7820   22.0950 C.3   120  ASP120      0.1840
     49  C        -15.7120  -18.7640   20.5860 C.2   120  ASP120      0.2622
     50  O        -15.7820  -17.6940   19.9730 O.2   120  ASP120     -0.2715
     51  CB       -16.6990  -18.1130   22.7960 C.3   120  ASP120      0.1450
     52  CG       -16.5960  -18.1760   24.3110 C.2   120  ASP120      0.3671
     53  OD1      -16.0960  -19.1920   24.8400 O.co2 120  ASP120     -0.2456
     54  OD2      -17.0200  -17.2060   24.9710 O.co2 120  ASP120     -0.2456
     55  N        -15.7990  -19.9510   19.9870 N.am  121  ILE121     -0.1963
     56  CA       -15.9260  -20.0760   18.5420 C.3   121  ILE121      0.1727
     57  C        -16.7020  -21.3460   18.2260 C.2   121  ILE121      0.2616
     58  O        -16.5930  -22.3550   18.9280 O.2   121  ILE121     -0.2715
     59  CB       -14.5420  -20.0760   17.8470 C.3   121  ILE121      0.0290
     60  CG1      -14.6990  -19.9260   16.3330 C.3   121  ILE121      0.0022
     61  CG2      -13.7730  -21.3500   18.1730 C.3   121  ILE121      0.0023
     62  CD1      -13.9970  -18.7170   15.7630 C.3   121  ILE121      0.0001
     63  N        -17.5140  -21.2780   17.1750 N.am  122  SER122     -0.1950
     64  CA       -18.1920  -22.4380   16.6160 C.3   122  SER122      0.1924
     65  C        -17.8050  -22.5730   15.1510 C.2   122  SER122      0.2314
     66  O        -17.5060  -21.5790   14.4810 O.2   122  SER122     -0.2863
     67  CB       -19.7190  -22.3240   16.7420 C.3   122  SER122      0.2116
     68  OG       -20.1600  -22.5850   18.0660 O.3   122  SER122     -0.2180
     69  N         -9.9800  -27.7070   20.5010 N.3   141  GLN141     -0.1231
     70  CA       -10.3850  -26.6550   21.4140 C.3   141  GLN141      0.1683
     71  C         -9.4550  -25.4520   21.2660 C.2   141  GLN141      0.2434
     72  O         -8.2670  -25.6120   20.9680 O.2   141  GLN141     -0.2733
     73  CB       -10.3790  -27.1580   22.8550 C.3   141  GLN141      0.0380
     74  CG       -11.6720  -27.8620   23.2610 C.3   141  GLN141      0.0905
     75  CD       -11.7210  -28.1880   24.7420 C.2   141  GLN141      0.2608
     76  OE1      -12.5170  -27.6180   25.4890 O.2   141  GLN141     -0.2717
     77  NE2      -10.8700  -29.1110   25.1730 N.am  141  GLN141     -0.0878
     78  N         -9.9770  -24.2400   21.4520 N.am  142  PRO142     -0.2729
     79  CA        -9.1760  -23.0370   21.1830 C.3   142  PRO142      0.1401
     80  C         -7.8800  -23.0180   21.9800 C.2   142  PRO142      0.2269
     81  O         -7.8640  -23.2820   23.1830 O.2   142  PRO142     -0.2865
     82  CB       -10.1100  -21.8920   21.5940 C.3   142  PRO142      0.0296
     83  CG       -11.4780  -22.4630   21.4880 C.3   142  PRO142      0.0237
     84  CD       -11.3570  -23.9110   21.8520 C.3   142  PRO142      0.0939
@<TRIPOS>BOND
     1    66    65    2
     2    65    64    1
     3    62    60    1
     4    60    59    1
     5    64    67    1
     6    64    63    1
     7    67    68    1
     8    63    57   am
     9    59    61    1
    10    59    56    1
    11    34    33    2
    12    57    56    1
    13    57    58    2
    14    33    32    1
    15    56    55    1
    16    35    32    1
    17    35    36    1
    18    32    31    1
    19    36    37    1
    20    50    49    2
    21    55    49   am
    22    31    37    1
    23    31    27   am
    24    69    70    1
    25    49    48    1
    26    30    29    1
    27    72    71    2
    28    27    28    2
    29    27    26    1
    30    29    26    1
    31    79    78    1
    32    79    82    1
    33    79    80    1
    34    71    70    1
    35    71    78   am
    36    70    73    1
    37    41    40    2
    38    78    84    1
    39    83    82    1
    40    83    84    1
    41    26    25    1
    42    80    81    2
    43    40    47   am
    44    40    39    1
    45    48    47    1
    46    48    51    1
    47    39    38    1
    48    39    42    1
    49    51    52    1
    50    73    74    1
    51    25    20   am
    52    74    75    1
    53    42    43    1
    54    21    20    2
    55    20    19    1
    56    52    53   ar
    57    52    54   ar
    58    43    44    1
    59    75    77   am
    60    75    76    2
    61    22    19    1
    62    22    23    1
    63    19    18    1
    64    44    46   ar
    65    44    45   ar
    66    10     9    2
    67    18     9   am
    68    18    24    1
    69    23    24    1
    70     9     8    1
    71    17    15    1
    72    14    15    2
    73    14    13    1
    74    11     8    1
    75    11    12    1
    76     8     7    1
    77    15    16    1
    78    13    12    1
    79     7     3   am
    80     6     5    1
    81     5     2    1
    82     3     2    1
    83     3     4    2
    84     2     1    1
