@<TRIPOS>MOLECULE
tmp/5mojB03.pdb
 77 74 0 0 0
SMALL
GASTEIGER

@<TRIPOS>ATOM
      1  N        -39.5690  -19.4920  -16.3610 N.3     9  SER9       -0.1217
      2  CA       -39.1390  -20.1010  -15.1180 C.3     9  SER9        0.1889
      3  C        -39.5420  -21.5700  -15.1300 C.2     9  SER9        0.2288
      4  O        -40.6070  -21.9110  -15.6470 O.2     9  SER9       -0.2866
      5  CB       -39.7780  -19.4010  -13.9250 C.3     9  SER9        0.2089
      6  OG       -41.1780  -19.6300  -13.9200 O.3     9  SER9       -0.2183
      7  N        -40.6570  -23.2650  -12.7590 N.3    11  PHE11      -0.1227
      8  CA       -41.9250  -23.3270  -12.0440 C.3    11  PHE11       0.1736
      9  C        -43.0980  -23.1080  -12.9860 C.2    11  PHE11       0.2595
     10  O        -44.0240  -23.9240  -13.0390 O.2    11  PHE11      -0.2718
     11  CB       -41.9470  -22.2940  -10.9200 C.3    11  PHE11       0.0547
     12  CG       -43.2650  -22.2090  -10.2060 C.ar   11  PHE11      -0.0202
     13  CD1      -43.6450  -23.2010   -9.3050 C.ar   11  PHE11      -0.0042
     14  CD2      -44.1190  -21.1350  -10.4210 C.ar   11  PHE11      -0.0042
     15  CE1      -44.8580  -23.1300   -8.6370 C.ar   11  PHE11      -0.0003
     16  CE2      -45.3320  -21.0550   -9.7580 C.ar   11  PHE11      -0.0003
     17  CZ       -45.7040  -22.0560   -8.8610 C.ar   11  PHE11      -0.0000
     18  N        -43.0770  -22.0060  -13.7440 N.am   12  ASP12      -0.1974
     19  CA       -44.1430  -21.7650  -14.7120 C.3    12  ASP12       0.1709
     20  C        -44.2130  -22.8820  -15.7400 C.2    12  ASP12       0.2293
     21  O        -45.3030  -23.2790  -16.1690 O.2    12  ASP12      -0.2864
     22  CB       -43.9380  -20.4230  -15.4160 C.3    12  ASP12       0.1436
     23  CG       -44.1180  -19.2330  -14.4830 C.2    12  ASP12       0.3671
     24  OD1      -43.5770  -18.1500  -14.7980 O.co2  12  ASP12      -0.2456
     25  OD2      -44.7920  -19.3750  -13.4370 O.co2  12  ASP12      -0.2456
     26  N        -33.4980  -22.5140  -12.9620 N.3   127  ILE127     -0.1231
     27  CA       -33.9740  -23.1930  -11.7660 C.3   127  ILE127      0.1692
     28  C        -34.9640  -22.2660  -11.0780 C.2   127  ILE127      0.2593
     29  O        -34.8500  -21.0420  -11.1630 O.2   127  ILE127     -0.2718
     30  CB       -32.7970  -23.5920  -10.8250 C.3   127  ILE127      0.0266
     31  CG1      -33.2530  -24.5770   -9.7530 C.3   127  ILE127      0.0019
     32  CG2      -32.1930  -22.3850  -10.1330 C.3   127  ILE127      0.0020
     33  CD1      -32.1080  -25.3640   -9.0970 C.3   127  ILE127      0.0001
     34  N        -35.9590  -22.8500  -10.4210 N.am  128  SER128     -0.1938
     35  CA       -36.8960  -22.0980   -9.5920 C.3   128  SER128      0.2055
     36  C        -36.8090  -22.6260   -8.1700 C.2   128  SER128      0.2642
     37  O        -36.8000  -23.8430   -7.9580 O.2   128  SER128     -0.2714
     38  CB       -38.3380  -22.2260  -10.0980 C.3   128  SER128      0.2130
     39  OG       -38.5100  -21.5080  -11.2990 O.3   128  SER128     -0.2179
     40  N        -36.7600  -21.7150   -7.2030 N.am  129  VAL129     -0.1977
     41  CA       -36.6150  -22.0570   -5.7930 C.3   129  VAL129      0.1596
     42  C        -37.8340  -21.5420   -5.0510 C.2   129  VAL129      0.2287
     43  O        -38.2070  -20.3770   -5.2080 O.2   129  VAL129     -0.2864
     44  CB       -35.3380  -21.4550   -5.1810 C.3   129  VAL129      0.0276
     45  CG1      -35.3010  -21.7380   -3.6900 C.3   129  VAL129      0.0022
     46  CG2      -34.0980  -22.0070   -5.8600 C.3   129  VAL129      0.0022
     47  N        -43.5420  -15.5420   -2.5980 N.3   140  ASP140     -0.1239
     48  CA       -42.1900  -15.4960   -3.1410 C.3   140  ASP140      0.1674
     49  C        -41.3500  -14.3890   -2.5120 C.2   140  ASP140      0.2266
     50  O        -40.1280  -14.5420   -2.3870 O.2   140  ASP140     -0.2867
     51  CB       -42.2590  -15.3290   -4.6580 C.3   140  ASP140      0.1410
     52  CG       -43.1040  -16.4060   -5.3180 C.2   140  ASP140      0.3668
     53  OD1      -42.8350  -17.6030   -5.0670 O.co2 140  ASP140     -0.2456
     54  OD2      -44.0500  -16.0610   -6.0640 O.co2 140  ASP140     -0.2456
     55  N        -38.5450  -14.7940    0.4680 N.3   143  HIS143     -0.1226
     56  CA       -37.1940  -15.2970    0.3070 C.3   143  HIS143      0.1752
     57  C        -36.4870  -14.5400   -0.8090 C.2   143  HIS143      0.2597
     58  O        -37.1220  -13.9130   -1.6590 O.2   143  HIS143     -0.2718
     59  CB       -37.2080  -16.7970    0.0080 C.3   143  HIS143      0.0759
     60  CG       -37.6480  -17.1380   -1.3840 C.ar  143  HIS143      0.0818
     61  ND1      -38.9710  -17.3370   -1.7260 N.ar  143  HIS143     -0.2268
     62  CD2      -36.9350  -17.3320   -2.5190 C.ar  143  HIS143      0.1154
     63  CE1      -39.0530  -17.6370   -3.0110 C.ar  143  HIS143      0.1986
     64  NE2      -37.8300  -17.6450   -3.5150 N.ar  143  HIS143     -0.2212
     65  N        -35.1580  -14.6000   -0.7940 N.am  144  SER144     -0.1938
     66  CA       -34.3500  -14.1160   -1.9030 C.3   144  SER144      0.2055
     67  C        -33.3530  -15.1920   -2.3130 C.2   144  SER144      0.2643
     68  O        -32.8890  -15.9820   -1.4850 O.2   144  SER144     -0.2714
     69  CB       -33.6200  -12.8180   -1.5510 C.3   144  SER144      0.2130
     70  OG       -33.0130  -12.9090   -0.2840 O.3   144  SER144     -0.2179
     71  N        -33.0460  -15.2240   -3.6080 N.am  145  THR145     -0.1950
     72  CA       -32.1920  -16.2380   -4.2110 C.3   145  THR145      0.1897
     73  C        -31.1090  -15.5500   -5.0260 C.2   145  THR145      0.2313
     74  O        -31.4000  -14.6270   -5.7880 O.2   145  THR145     -0.2863
     75  CB       -33.0000  -17.1630   -5.1150 C.3   145  THR145      0.1794
     76  OG1      -34.1080  -17.6760   -4.3750 O.3   145  THR145     -0.2208
     77  CG2      -32.1540  -18.3260   -5.6260 C.3   145  THR145      0.0378
@<TRIPOS>BOND
     1     1     2    1
     2    21    20    2
     3    20    19    1
     4     4     3    2
     5    22    19    1
     6    22    23    1
     7     3     2    1
     8     2     5    1
     9    24    23   ar
    10    19    18    1
    11    23    25   ar
    12     5     6    1
    13    18     9   am
    14    10     9    2
    15     9     8    1
    16    26    27    1
    17     7     8    1
    18     8    11    1
    19    27    28    1
    20    27    30    1
    21    39    38    1
    22    29    28    2
    23    28    34   am
    24    11    12    1
    25    30    32    1
    26    30    31    1
    27    14    12   ar
    28    14    16   ar
    29    34    35    1
    30    12    13   ar
    31    38    35    1
    32    16    17   ar
    33    31    33    1
    34    35    36    1
    35    13    15   ar
    36    17    15   ar
    37    36    37    2
    38    36    40   am
    39    40    41    1
    40    54    52   ar
    41    46    44    1
    42    41    44    1
    43    41    42    1
    44    74    73    2
    45    77    75    1
    46    52    53   ar
    47    52    51    1
    48    43    42    2
    49    44    45    1
    50    75    76    1
    51    75    72    1
    52    73    72    1
    53    51    48    1
    54    72    71    1
    55    71    67   am
    56    64    63   ar
    57    64    62   ar
    58    48    47    1
    59    48    49    1
    60    63    61   ar
    61    62    60   ar
    62    49    50    2
    63    67    66    1
    64    67    68    2
    65    66    69    1
    66    66    65    1
    67    61    60   ar
    68    58    57    2
    69    69    70    1
    70    60    59    1
    71    57    65   am
    72    57    56    1
    73    59    56    1
    74    56    55    1
