@<TRIPOS>MOLECULE
tmp/5molB05.pdb
 85 82 0 0 0
SMALL
GASTEIGER

@<TRIPOS>ATOM
      1  N         17.0470  -32.3450  -34.7660 N.3   251  ILE251     -0.1231
      2  CA        17.1910  -33.7890  -34.9650 C.3   251  ILE251      0.1692
      3  C         16.4230  -34.5510  -33.8880 C.2   251  ILE251      0.2593
      4  O         16.2480  -34.0610  -32.7710 O.2   251  ILE251     -0.2718
      5  CB        18.6930  -34.1850  -34.9960 C.3   251  ILE251      0.0266
      6  CG1       18.8800  -35.5740  -35.6500 C.3   251  ILE251      0.0019
      7  CG2       19.2910  -34.1380  -33.6010 C.3   251  ILE251      0.0020
      8  CD1       20.2970  -35.8360  -36.1920 C.3   251  ILE251      0.0001
      9  N         15.9180  -35.7430  -34.2420 N.am  252  SER252     -0.1938
     10  CA        15.2900  -36.6660  -33.2940 C.3   252  SER252      0.2055
     11  C         16.0990  -37.9590  -33.2230 C.2   252  SER252      0.2643
     12  O         16.3510  -38.5880  -34.2570 O.2   252  SER252     -0.2714
     13  CB        13.8330  -36.9990  -33.6940 C.3   252  SER252      0.2130
     14  OG        12.9920  -35.8460  -33.6160 O.3   252  SER252     -0.2179
     15  N         16.4820  -38.3730  -32.0110 N.am  253  VAL253     -0.1963
     16  CA        17.2630  -39.5960  -31.7990 C.3   253  VAL253      0.1727
     17  C         16.4220  -40.5780  -30.9870 C.2   253  VAL253      0.2616
     18  O         15.8920  -40.2120  -29.9370 O.2   253  VAL253     -0.2715
     19  CB        18.5850  -39.2950  -31.0570 C.3   253  VAL253      0.0290
     20  CG1       19.3910  -40.5940  -30.8090 C.3   253  VAL253      0.0023
     21  CG2       19.4110  -38.2550  -31.8080 C.3   253  VAL253      0.0023
     22  N         16.3230  -41.8280  -31.4530 N.am  254  GLN254     -0.1977
     23  CA        15.6440  -42.8870  -30.7080 C.3   254  GLN254      0.1601
     24  C         16.4920  -44.1520  -30.6830 C.2   254  GLN254      0.2287
     25  O         17.3270  -44.3790  -31.5610 O.2   254  GLN254     -0.2864
     26  CB        14.2980  -43.2630  -31.3280 C.3   254  GLN254      0.0394
     27  CG        13.3990  -42.0830  -31.6080 C.3   254  GLN254      0.0908
     28  CD        12.8660  -42.1420  -33.0070 C.2   254  GLN254      0.2608
     29  OE1       11.7030  -42.4490  -33.2080 O.2   254  GLN254     -0.2717
     30  NE2       13.7310  -41.8940  -33.9940 N.am  254  GLN254     -0.0878
     31  N         11.6840  -42.4770  -24.2270 N.3   264  ASP264     -0.1239
     32  CA        12.7270  -41.4580  -24.2130 C.3   264  ASP264      0.1674
     33  C         13.5000  -41.4750  -22.9020 C.2   264  ASP264      0.2266
     34  O         14.7040  -41.1970  -22.8960 O.2   264  ASP264     -0.2867
     35  CB        12.1560  -40.0520  -24.4330 C.3   264  ASP264      0.1410
     36  CG        11.4540  -39.8840  -25.7790 C.2   264  ASP264      0.3668
     37  OD1       11.7140  -40.6770  -26.7110 O.co2 264  ASP264     -0.2456
     38  OD2       10.6400  -38.9320  -25.9000 O.co2 264  ASP264     -0.2456
     39  N         17.2520  -43.3470  -22.2490 N.3   267  HIS267     -0.1241
     40  CA        18.5730  -42.9070  -22.6880 C.3   267  HIS267      0.1621
     41  C         18.8010  -41.4370  -22.3540 C.2   267  HIS267      0.2264
     42  O         17.8660  -40.6860  -22.0560 O.2   267  HIS267     -0.2867
     43  CB        18.7640  -43.1540  -24.1960 C.3   267  HIS267      0.0745
     44  CG        17.7210  -42.5120  -25.0550 C.ar  267  HIS267      0.0817
     45  ND1       17.8810  -41.2590  -25.6090 N.ar  267  HIS267     -0.2268
     46  CD2       16.5050  -42.9520  -25.4630 C.ar  267  HIS267      0.1154
     47  CE1       16.8080  -40.9510  -26.3170 C.ar  267  HIS267      0.1986
     48  NE2       15.9620  -41.9640  -26.2530 N.ar  267  HIS267     -0.2212
     49  N         20.5910  -38.0880  -24.0750 N.3   269  THR269     -0.1203
     50  CA        21.1210  -37.5060  -25.3160 C.3   269  THR269      0.1994
     51  C         21.5530  -36.0520  -25.1160 C.2   269  THR269      0.2619
     52  O         20.7950  -35.2460  -24.5530 O.2   269  THR269     -0.2717
     53  CB        20.0690  -37.6000  -26.4340 C.3   269  THR269      0.1784
     54  OG1       19.7300  -38.9710  -26.6270 O.3   269  THR269     -0.2211
     55  CG2       20.6110  -37.0460  -27.7270 C.3   269  THR269      0.0376
     56  N         22.7630  -35.7170  -25.5700 N.am  270  THR270     -0.1938
     57  CA        23.3300  -34.3810  -25.3750 C.3   270  THR270      0.2028
     58  C         22.6720  -33.3490  -26.2990 C.2   270  THR270      0.2642
     59  O         21.9630  -33.6820  -27.2480 O.2   270  THR270     -0.2714
     60  CB        24.8490  -34.3760  -25.5940 C.3   270  THR270      0.1808
     61  OG1       25.1660  -34.7430  -26.9540 O.3   270  THR270     -0.2208
     62  CG2       25.5210  -35.3290  -24.6460 C.3   270  THR270      0.0379
     63  N         22.9360  -32.0560  -26.0150 N.am  271  GLN271     -0.1963
     64  CA        22.4580  -30.9370  -26.8290 C.3   271  GLN271      0.1718
     65  C         23.3430  -30.7740  -28.0580 C.2   271  GLN271      0.2458
     66  O         24.5640  -30.9410  -27.9590 O.2   271  GLN271     -0.2730
     67  CB        22.4860  -29.6350  -26.0320 C.3   271  GLN271      0.0407
     68  CG        21.5290  -29.5660  -24.8640 C.3   271  GLN271      0.0908
     69  CD        21.7740  -28.3270  -24.0120 C.2   271  GLN271      0.2608
     70  OE1       22.6520  -28.3170  -23.1400 O.2   271  GLN271     -0.2717
     71  NE2       21.0070  -27.2730  -24.2680 N.am  271  GLN271     -0.0878
     72  N         22.7660  -30.4330  -29.2200 N.am  272  PRO272     -0.2727
     73  CA        23.6030  -30.2580  -30.4180 C.3   272  PRO272      0.1402
     74  C         24.6740  -29.1960  -30.2040 C.2   272  PRO272      0.2269
     75  O         24.4030  -28.1060  -29.7010 O.2   272  PRO272     -0.2865
     76  CB        22.5970  -29.8550  -31.5040 C.3   272  PRO272      0.0296
     77  CG        21.2870  -30.4840  -31.0680 C.3   272  PRO272      0.0237
     78  CD        21.3220  -30.3990  -29.5420 C.3   272  PRO272      0.0939
     79  N         25.6880  -34.7800  -31.7260 N.3   282  VAL282     -0.1245
     80  CA        25.1290  -35.1790  -30.4290 C.3   282  VAL282      0.1561
     81  C         25.6490  -36.5740  -30.0890 C.2   282  VAL282      0.2260
     82  O         26.0160  -37.3470  -30.9790 O.2   282  VAL282     -0.2867
     83  CB        23.5700  -35.1980  -30.4210 C.3   282  VAL282      0.0252
     84  CG1       22.9610  -33.7950  -30.7380 C.3   282  VAL282      0.0019
     85  CG2       23.0510  -36.2480  -31.3800 C.3   282  VAL282      0.0019
@<TRIPOS>BOND
     1     8     6    1
     2     6     5    1
     3     5     2    1
     4     5     7    1
     5     2     1    1
     6     2     3    1
     7    12    11    2
     8     9     3   am
     9     9    10    1
    10    30    28   am
    11     3     4    2
    12    13    14    1
    13    13    10    1
    14    10    11    1
    15    11    15   am
    16    29    28    2
    17    28    27    1
    18    15    16    1
    19    21    19    1
    20    16    19    1
    21    16    17    1
    22    79    80    1
    23    27    26    1
    24    25    24    2
    25    76    77    1
    26    76    73    1
    27    22    17   am
    28    22    23    1
    29    85    83    1
    30    26    23    1
    31    77    78    1
    32    19    20    1
    33    17    18    2
    34    82    81    2
    35    84    83    1
    36    23    24    1
    37    80    83    1
    38    80    81    1
    39    73    74    1
    40    73    72    1
    41    74    75    2
    42    78    72    1
    43    72    65   am
    44    65    66    2
    45    65    64    1
    46    55    53    1
    47    59    58    2
    48    61    60    1
    49    64    67    1
    50    64    63    1
    51    37    36   ar
    52    54    53    1
    53    53    50    1
    54    47    48   ar
    55    47    45   ar
    56    58    63   am
    57    58    57    1
    58    48    46   ar
    59    67    68    1
    60    38    36   ar
    61    36    35    1
    62    45    44   ar
    63    60    57    1
    64    60    62    1
    65    56    57    1
    66    56    51   am
    67    46    44   ar
    68    50    51    1
    69    50    49    1
    70    51    52    2
    71    44    43    1
    72    68    69    1
    73    35    32    1
    74    71    69   am
    75    31    32    1
    76    32    33    1
    77    43    40    1
    78    69    70    2
    79    33    34    2
    80    40    41    1
    81    40    39    1
    82    41    42    2
