@<TRIPOS>MOLECULE
tmp/5monA00.pdb
 87 85 0 0 0
SMALL
GASTEIGER

@<TRIPOS>ATOM
      1  N         -6.8810  -20.7760  -20.4910 N.3   171  ASP171     -0.1225
      2  CA        -5.6150  -20.1620  -20.0860 C.3   171  ASP171      0.1805
      3  C         -5.5810  -20.0520  -18.5620 C.2   171  ASP171      0.2598
      4  O         -6.5890  -20.2290  -17.8770 O.2   171  ASP171     -0.2718
      5  CB        -5.5470  -18.7530  -20.6970 C.3   171  ASP171      0.1424
      6  CG        -4.1640  -18.1300  -20.8380 C.2   171  ASP171      0.3668
      7  OD1       -3.1400  -18.7130  -20.4240 O.co2 171  ASP171     -0.2456
      8  OD2       -4.1530  -16.9970  -21.3830 O.co2 171  ASP171     -0.2456
      9  N         -4.4090  -19.7010  -18.0480 N.am  172  SER172     -0.1938
     10  CA        -4.3010  -19.2190  -16.6770 C.3   172  SER172      0.2055
     11  C         -4.6650  -17.7270  -16.6440 C.2   172  SER172      0.2643
     12  O         -4.8520  -17.0950  -17.6790 O.2   172  SER172     -0.2714
     13  CB        -2.9140  -19.4950  -16.1300 C.3   172  SER172      0.2130
     14  OG        -1.9280  -18.9170  -16.9200 O.3   172  SER172     -0.2179
     15  N         -4.8120  -17.1940  -15.4390 N.am  173  CYS173     -0.1953
     16  CA        -5.2670  -15.8130  -15.2970 C.3   173  CYS173      0.1843
     17  C         -4.8030  -15.2180  -13.9680 C.2   173  CYS173      0.2625
     18  O         -4.0850  -15.8450  -13.1990 O.2   173  CYS173     -0.2714
     19  CB        -6.7850  -15.7840  -15.4870 C.3   173  CYS173      0.0997
     20  SG        -7.5090  -14.1790  -15.9550 S.3   173  CYS173     -0.0797
     21  N         -5.1970  -13.9660  -13.7220 N.am  174  GLN174     -0.1977
     22  CA        -4.8400  -13.2830  -12.4840 C.3   174  GLN174      0.1601
     23  C         -5.2590  -14.1230  -11.2880 C.2   174  GLN174      0.2287
     24  O         -6.3720  -14.6320  -11.2420 O.2   174  GLN174     -0.2864
     25  CB        -5.5450  -11.9140  -12.4280 C.3   174  GLN174      0.0394
     26  CG        -4.9600  -10.8910  -13.3770 C.3   174  GLN174      0.0908
     27  CD        -3.4730  -10.6820  -13.1350 C.2   174  GLN174      0.2608
     28  OE1       -3.0140  -10.6260  -11.9960 O.2   174  GLN174     -0.2717
     29  NE2       -2.7140  -10.5820  -14.2030 N.am  174  GLN174     -0.0878
     30  N         -1.0340  -16.8850  -10.6020 N.3   177  SER177     -0.1217
     31  CA         0.4070  -16.6660  -10.6210 C.3   177  SER177      0.1889
     32  C          1.0820  -17.3630   -9.4640 C.2   177  SER177      0.2288
     33  O          0.5760  -17.4120   -8.3460 O.2   177  SER177     -0.2866
     34  CB         0.7450  -15.1840  -10.5570 C.3   177  SER177      0.2089
     35  OG         0.4230  -14.5810  -11.7810 O.3   177  SER177     -0.2183
     36  N          3.3400  -20.3810  -13.1350 N.3   191  VAL191     -0.1231
     37  CA         2.4720  -19.3850  -13.7730 C.3   191  VAL191      0.1692
     38  C          3.0810  -17.9960  -13.5700 C.2   191  VAL191      0.2593
     39  O          3.2850  -17.5650  -12.4370 O.2   191  VAL191     -0.2718
     40  CB         1.0530  -19.4390  -13.1870 C.3   191  VAL191      0.0266
     41  CG1        0.1740  -18.4050  -13.8740 C.3   191  VAL191      0.0020
     42  CG2        0.4330  -20.8490  -13.2590 C.3   191  VAL191      0.0020
     43  N          3.3760  -17.2980  -14.6730 N.am  192  SER192     -0.1938
     44  CA         4.0990  -16.0230  -14.6080 C.3   192  SER192      0.2055
     45  C          3.2990  -14.8540  -15.1760 C.2   192  SER192      0.2643
     46  O          2.9700  -13.9370  -14.4200 O.2   192  SER192     -0.2714
     47  CB         5.4880  -16.1880  -15.2280 C.3   192  SER192      0.2130
     48  OG         6.2280  -14.9860  -15.1660 O.3   192  SER192     -0.2179
     49  N          3.0050  -14.8310  -16.4770 N.am  193  TRP193     -0.1959
     50  CA         2.3640  -13.6480  -17.0470 C.3   193  TRP193      0.1771
     51  C          1.6550  -14.0000  -18.3440 C.2   193  TRP193      0.2620
     52  O          1.7640  -15.0920  -18.8610 O.2   193  TRP193     -0.2715
     53  CB         3.3760  -12.5120  -17.2360 C.3   193  TRP193      0.0590
     54  CG         4.4890  -12.7530  -18.2180 C.ar  193  TRP193      0.0006
     55  CD1        5.6610  -13.3980  -17.9700 C.ar  193  TRP193      0.0946
     56  CD2        4.5490  -12.3200  -19.5920 C.ar  193  TRP193      0.0152
     57  NE1        6.4540  -13.3940  -19.1000 N.ar  193  TRP193     -0.2442
     58  CE2        5.7930  -12.7440  -20.1060 C.ar  193  TRP193      0.0810
     59  CE3        3.6800  -11.6110  -20.4320 C.ar  193  TRP193      0.0012
     60  CZ2        6.1870  -12.4850  -21.4210 C.ar  193  TRP193      0.0191
     61  CZ3        4.0710  -11.3680  -21.7360 C.ar  193  TRP193      0.0001
     62  CH2        5.3140  -11.8070  -22.2150 C.ar  193  TRP193      0.0015
     63  N          0.9330  -13.0270  -18.8620 N.am  194  GLY194     -0.1954
     64  CA         0.3540  -13.0980  -20.1910 C.3   194  GLY194      0.1869
     65  C         -0.2930  -11.7600  -20.4840 C.2   194  GLY194      0.2309
     66  O         -0.3520  -10.8900  -19.6320 O.2   194  GLY194     -0.2863
     67  N         -3.6250  -10.2170  -20.8540 N.3   196  GLY196     -0.1210
     68  CA        -4.9740  -10.6460  -20.5660 C.3   196  GLY196      0.1956
     69  C         -4.9820  -12.1390  -20.2550 C.2   196  GLY196      0.2612
     70  O         -3.9720  -12.7340  -19.8940 O.2   196  GLY196     -0.2717
     71  N         -6.1660  -12.7290  -20.4040 N.am  197  CYS197     -0.1970
     72  CA        -6.3440  -14.1650  -20.1960 C.3   197  CYS197      0.1712
     73  C         -7.1720  -14.7310  -21.3260 C.2   197  CYS197      0.2296
     74  O         -8.2400  -14.2040  -21.6440 O.2   197  CYS197     -0.2864
     75  CB        -7.0700  -14.4580  -18.8860 C.3   197  CYS197      0.0983
     76  SG        -6.3540  -13.5660  -17.5080 S.3   197  CYS197     -0.0798
     77  N         -0.5960  -18.0880  -22.2210 N.3   204  GLY204     -0.1210
     78  CA         0.1350  -17.8190  -21.0100 C.3   204  GLY204      0.1956
     79  C          1.6200  -18.1240  -21.1520 C.2   204  GLY204      0.2611
     80  O          2.0450  -18.9820  -21.9290 O.2   204  GLY204     -0.2717
     81  N          2.3910  -17.3950  -20.3410 N.am  205  VAL205     -0.1979
     82  CA         3.8450  -17.4990  -20.2860 C.3   205  VAL205      0.1595
     83  C          4.2430  -17.9570  -18.8810 C.2   205  VAL205      0.2287
     84  O          3.7140  -17.4880  -17.8670 O.2   205  VAL205     -0.2864
     85  CB         4.5440  -16.1710  -20.6780 C.3   205  VAL205      0.0276
     86  CG1        6.0360  -16.3770  -20.7880 C.3   205  VAL205      0.0022
     87  CG2        3.9860  -15.6310  -21.9910 C.3   205  VAL205      0.0022
@<TRIPOS>BOND
     1    77    78    1
     2    62    61   ar
     3    62    60   ar
     4    87    85    1
     5    80    79    2
     6    61    59   ar
     7    74    73    2
     8    60    58   ar
     9     8     6   ar
    10    73    72    1
    11    79    78    1
    12    79    81   am
    13    67    68    1
    14     6     5    1
    15     6     7   ar
    16    86    85    1
    17     5     2    1
    18    85    82    1
    19    68    69    1
    20     1     2    1
    21    65    64    1
    22    65    66    2
    23    59    56   ar
    24    71    69   am
    25    71    72    1
    26    81    82    1
    27    82    83    1
    28    69    70    2
    29    72    75    1
    30    64    63    1
    31    58    56   ar
    32    58    57   ar
    33     2     3    1
    34    56    54   ar
    35    57    55   ar
    36    75    76    1
    37    83    84    2
    38    63    51   am
    39    52    51    2
    40     3     9   am
    41     3     4    2
    42    51    50    1
    43    54    55   ar
    44    54    53    1
    45     9    10    1
    46    12    11    2
    47    76    20    1
    48    53    50    1
    49    50    49    1
    50    14    13    1
    51    10    11    1
    52    10    13    1
    53    11    15   am
    54    49    45   am
    55    20    19    1
    56    19    16    1
    57    15    16    1
    58    16    17    1
    59    47    48    1
    60    47    44    1
    61    45    44    1
    62    45    46    2
    63    43    44    1
    64    43    38   am
    65    29    27   am
    66    17    21   am
    67    17    18    2
    68    41    40    1
    69    37    38    1
    70    37    40    1
    71    37    36    1
    72    21    22    1
    73    38    39    2
    74    26    27    1
    75    26    25    1
    76    42    40    1
    77    27    28    2
    78    22    25    1
    79    22    23    1
    80    35    34    1
    81    23    24    2
    82    31    30    1
    83    31    34    1
    84    31    32    1
    85    32    33    2
