@<TRIPOS>MOLECULE
tmp/5morA00.pdb
 125 125 0 0 0
SMALL
GASTEIGER

@<TRIPOS>ATOM
      1  N          7.2060  -12.3520   -8.6650 N.3    40  HIS40      -0.1241
      2  CA         6.2920  -11.2180   -8.6760 C.3    40  HIS40       0.1621
      3  C          5.1950  -11.3560   -7.6250 C.2    40  HIS40       0.2264
      4  O          4.4720  -10.3900   -7.3770 O.2    40  HIS40      -0.2867
      5  CB         5.7700  -10.9240  -10.0830 C.3    40  HIS40       0.0745
      6  CG         4.5830  -11.7030  -10.5130 C.ar   40  HIS40       0.0817
      7  ND1        4.6500  -12.7950  -11.3500 N.ar   40  HIS40      -0.2268
      8  CD2        3.2700  -11.4980  -10.2720 C.ar   40  HIS40       0.1154
      9  CE1        3.4250  -13.2360  -11.5890 C.ar   40  HIS40       0.1986
     10  NE2        2.5720  -12.4630  -10.9480 N.ar   40  HIS40      -0.2212
     11  N         -6.9840  -20.7090  -20.4340 N.3   171  ASP171     -0.1225
     12  CA        -5.7220  -20.0750  -20.0330 C.3   171  ASP171      0.1805
     13  C         -5.6870  -19.9530  -18.5110 C.2   171  ASP171      0.2598
     14  O         -6.7050  -20.0950  -17.8370 O.2   171  ASP171     -0.2718
     15  CB        -5.6660  -18.6760  -20.6620 C.3   171  ASP171      0.1424
     16  CG        -4.3000  -17.9970  -20.6960 C.2   171  ASP171      0.3668
     17  OD1       -3.2630  -18.5830  -20.3270 O.co2 171  ASP171     -0.2456
     18  OD2       -4.3110  -16.8160  -21.1550 O.co2 171  ASP171     -0.2456
     19  N         -4.5100  -19.6350  -17.9870 N.am  172  SER172     -0.1938
     20  CA        -4.3870  -19.1670  -16.6110 C.3   172  SER172      0.2055
     21  C         -4.7300  -17.6710  -16.5570 C.2   172  SER172      0.2643
     22  O         -4.8580  -17.0120  -17.5880 O.2   172  SER172     -0.2714
     23  CB        -2.9870  -19.4410  -16.0930 C.3   172  SER172      0.2130
     24  OG        -2.0350  -18.7940  -16.8870 O.3   172  SER172     -0.2179
     25  N         -4.8990  -17.1480  -15.3490 N.am  173  CYS173     -0.1953
     26  CA        -5.3320  -15.7580  -15.2140 C.3   173  CYS173      0.1843
     27  C         -4.8890  -15.1910  -13.8630 C.2   173  CYS173      0.2625
     28  O         -4.2520  -15.8570  -13.0610 O.2   173  CYS173     -0.2714
     29  CB        -6.8420  -15.6910  -15.4710 C.3   173  CYS173      0.0997
     30  SG        -7.5000  -14.0650  -15.9340 S.3   173  CYS173     -0.0797
     31  N         -5.2250  -13.9230  -13.6370 N.am  174  GLN174     -0.1977
     32  CA        -4.8680  -13.2430  -12.3980 C.3   174  GLN174      0.1601
     33  C         -5.2930  -14.0670  -11.1950 C.2   174  GLN174      0.2287
     34  O         -6.4180  -14.5550  -11.1330 O.2   174  GLN174     -0.2864
     35  CB        -5.5580  -11.8740  -12.3390 C.3   174  GLN174      0.0394
     36  CG        -5.1210  -10.8800  -13.4190 C.3   174  GLN174      0.0908
     37  CD        -3.6250  -10.5580  -13.3970 C.2   174  GLN174      0.2608
     38  OE1       -2.7830  -11.3910  -13.7480 O.2   174  GLN174     -0.2717
     39  NE2       -3.2940   -9.3220  -13.0330 N.am  174  GLN174     -0.0878
     40  N         -1.1070  -16.8230  -10.5750 N.3   177  SER177     -0.1217
     41  CA         0.3310  -16.5680  -10.5750 C.3   177  SER177      0.1889
     42  C          1.0230  -17.3050   -9.4520 C.2   177  SER177      0.2288
     43  O          0.5260  -17.3810   -8.3230 O.2   177  SER177     -0.2866
     44  CB         0.6010  -15.0770  -10.3810 C.3   177  SER177      0.2089
     45  OG         0.2690  -14.3810  -11.5590 O.3   177  SER177     -0.2183
     46  N          3.2630  -20.2820  -13.1450 N.3   191  VAL191     -0.1231
     47  CA         2.3990  -19.2830  -13.7920 C.3   191  VAL191      0.1692
     48  C          3.0080  -17.8970  -13.5970 C.2   191  VAL191      0.2593
     49  O          3.2030  -17.4530  -12.4650 O.2   191  VAL191     -0.2718
     50  CB         0.9820  -19.3330  -13.1950 C.3   191  VAL191      0.0266
     51  CG1        0.1080  -18.2940  -13.8750 C.3   191  VAL191      0.0020
     52  CG2        0.3530  -20.7360  -13.2660 C.3   191  VAL191      0.0020
     53  N          3.3100  -17.2120  -14.7070 N.am  192  SER192     -0.1938
     54  CA         4.0460  -15.9490  -14.6590 C.3   192  SER192      0.2055
     55  C          3.2800  -14.7700  -15.2480 C.2   192  SER192      0.2643
     56  O          2.9660  -13.8450  -14.5040 O.2   192  SER192     -0.2714
     57  CB         5.4350  -16.1450  -15.2700 C.3   192  SER192      0.2130
     58  OG         6.2000  -14.9540  -15.2030 O.3   192  SER192     -0.2179
     59  N          3.0040  -14.7430  -16.5520 N.am  193  TRP193     -0.1959
     60  CA         2.3980  -13.5540  -17.1370 C.3   193  TRP193      0.1771
     61  C          1.7130  -13.8810  -18.4510 C.2   193  TRP193      0.2620
     62  O          1.7140  -14.9980  -18.9300 O.2   193  TRP193     -0.2715
     63  CB         3.4410  -12.4370  -17.3050 C.3   193  TRP193      0.0590
     64  CG         4.5600  -12.7110  -18.2780 C.ar  193  TRP193      0.0006
     65  CD1        5.7200  -13.3870  -18.0270 C.ar  193  TRP193      0.0946
     66  CD2        4.6540  -12.2650  -19.6470 C.ar  193  TRP193      0.0152
     67  NE1        6.5220  -13.4090  -19.1520 N.ar  193  TRP193     -0.2442
     68  CE2        5.8910  -12.7240  -20.1550 C.ar  193  TRP193      0.0810
     69  CE3        3.8120  -11.5200  -20.4930 C.ar  193  TRP193      0.0012
     70  CZ2        6.2900  -12.4760  -21.4690 C.ar  193  TRP193      0.0191
     71  CZ3        4.2210  -11.2860  -21.7940 C.ar  193  TRP193      0.0001
     72  CH2        5.4470  -11.7550  -22.2580 C.ar  193  TRP193      0.0015
     73  N          1.1220  -12.8540  -19.0410 N.am  194  GLY194     -0.1954
     74  CA         0.5450  -12.9280  -20.3750 C.3   194  GLY194      0.1869
     75  C         -0.1140  -11.5970  -20.6660 C.2   194  GLY194      0.2309
     76  O          0.0290  -10.6550  -19.9120 O.2   194  GLY194     -0.2863
     77  N         -3.6400  -10.2360  -20.8400 N.3   196  GLY196     -0.1210
     78  CA        -4.9940  -10.6580  -20.5590 C.3   196  GLY196      0.1956
     79  C         -5.0510  -12.1560  -20.2730 C.2   196  GLY196      0.2612
     80  O         -4.0490  -12.7970  -19.9420 O.2   196  GLY196     -0.2717
     81  N         -6.2440  -12.7080  -20.4470 N.am  197  CYS197     -0.1970
     82  CA        -6.4770  -14.1300  -20.2140 C.3   197  CYS197      0.1712
     83  C         -7.3380  -14.6800  -21.3270 C.2   197  CYS197      0.2296
     84  O         -8.4130  -14.1460  -21.6080 O.2   197  CYS197     -0.2864
     85  CB        -7.1740  -14.3820  -18.8750 C.3   197  CYS197      0.0983
     86  SG        -6.3500  -13.5410  -17.5270 S.3   197  CYS197     -0.0798
     87  N         -2.5860  -15.0130  -27.6960 N.3   202  LYS202     -0.1231
     88  CA        -1.9240  -14.4920  -26.4880 C.3   202  LYS202      0.1678
     89  C         -1.9700  -15.5580  -25.4020 C.2   202  LYS202      0.2434
     90  O         -2.6890  -15.4430  -24.3990 O.2   202  LYS202     -0.2733
     91  CB        -2.5680  -13.1870  -26.0140 C.3   202  LYS202      0.0284
     92  CG        -2.3560  -12.0380  -26.9630 C.3   202  LYS202      0.0035
     93  CD        -0.8590  -11.6800  -27.1440 C.3   202  LYS202      0.0206
     94  CE        -0.6730  -10.5070  -28.0900 C.3   202  LYS202      0.1093
     95  NZ         0.7550  -10.1140  -28.2950 N.3   202  LYS202     -0.1314
     96  N         -1.1900  -16.6250  -25.5730 N.am  203  PRO203     -0.2718
     97  CA        -1.1850  -17.7040  -24.5860 C.3   203  PRO203      0.1535
     98  C         -0.4690  -17.2680  -23.3220 C.2   203  PRO203      0.2599
     99  O          0.2250  -16.2650  -23.2670 O.2   203  PRO203     -0.2715
    100  CB        -0.4160  -18.8140  -25.2870 C.3   203  PRO203      0.0310
    101  CG         0.5120  -18.0830  -26.2090 C.3   203  PRO203      0.0237
    102  CD        -0.2620  -16.8750  -26.6870 C.3   203  PRO203      0.0939
    103  N         -0.5970  -18.0900  -22.2930 N.am  204  GLY204     -0.1941
    104  CA         0.1150  -17.8240  -21.0640 C.3   204  GLY204      0.2014
    105  C          1.6030  -18.0790  -21.2000 C.2   204  GLY204      0.2639
    106  O          2.0420  -18.9190  -21.9860 O.2   204  GLY204     -0.2714
    107  N          2.3660  -17.3470  -20.3880 N.am  205  VAL205     -0.1963
    108  CA         3.8190  -17.4490  -20.3260 C.3   205  VAL205      0.1727
    109  C          4.2050  -17.9030  -18.9210 C.2   205  VAL205      0.2616
    110  O          3.6820  -17.4200  -17.9060 O.2   205  VAL205     -0.2715
    111  CB         4.5190  -16.1220  -20.7130 C.3   205  VAL205      0.0290
    112  CG1        6.0130  -16.3370  -20.8290 C.3   205  VAL205      0.0023
    113  CG2        3.9540  -15.5830  -22.0170 C.3   205  VAL205      0.0023
    114  N          5.1500  -18.8430  -18.8800 N.am  206  TYR206     -0.1974
    115  CA         5.4890  -19.5900  -17.6820 C.3   206  TYR206      0.1639
    116  C          6.9940  -19.5800  -17.4680 C.2   206  TYR206      0.2290
    117  O          7.7720  -19.7010  -18.4170 O.2   206  TYR206     -0.2864
    118  CB         4.9810  -21.0540  -17.8540 C.3   206  TYR206      0.0560
    119  CG         3.4770  -21.0690  -18.0100 C.ar  206  TYR206     -0.0198
    120  CD1        2.6620  -21.0670  -16.8950 C.ar  206  TYR206     -0.0009
    121  CD2        2.8660  -21.0140  -19.2610 C.ar  206  TYR206     -0.0009
    122  CE1        1.2950  -21.0030  -17.0050 C.ar  206  TYR206      0.0417
    123  CE2        1.4790  -20.9440  -19.3800 C.ar  206  TYR206      0.0417
    124  CZ         0.6970  -20.9370  -18.2520 C.ar  206  TYR206      0.1957
    125  OH        -0.6740  -20.8370  -18.2900 O.3   206  TYR206     -0.2866
@<TRIPOS>BOND
     1    95    94    1
     2    94    93    1
     3    87    88    1
     4    93    92    1
     5    92    91    1
     6   102   101    1
     7   102    96    1
     8    88    91    1
     9    88    89    1
    10   101   100    1
    11    96    89   am
    12    96    97    1
    13    89    90    2
    14   100    97    1
    15    97    98    1
    16    98    99    2
    17    98   103   am
    18   103   104    1
    19    72    71   ar
    20    72    70   ar
    21   113   111    1
    22   106   105    2
    23    71    69   ar
    24    84    83    2
    25    70    68   ar
    26    83    82    1
    27   105   104    1
    28   105   107   am
    29    18    16   ar
    30    77    78    1
    31   112   111    1
    32   111   108    1
    33    16    15    1
    34    16    17   ar
    35    75    74    1
    36    75    76    2
    37    15    12    1
    38    78    79    1
    39    69    66   ar
    40    81    79   am
    41    81    82    1
    42    11    12    1
    43   107   108    1
    44    74    73    1
    45   108   109    1
    46    79    80    2
    47    82    85    1
    48    68    66   ar
    49    68    67   ar
    50    12    13    1
    51    66    64   ar
    52   123   121   ar
    53   123   124   ar
    54   121   119   ar
    55    67    65   ar
    56    73    61   am
    57    62    61    2
    58   109   114   am
    59   109   110    2
    60   114   115    1
    61    85    86    1
    62    13    19   am
    63    13    14    2
    64    61    60    1
    65   117   116    2
    66   125   124    1
    67    64    65   ar
    68    64    63    1
    69   124   122   ar
    70   119   118    1
    71   119   120   ar
    72    19    20    1
    73   118   115    1
    74   115   116    1
    75    22    21    2
    76    86    30    1
    77    63    60    1
    78    60    59    1
    79   122   120   ar
    80    24    23    1
    81    20    21    1
    82    20    23    1
    83    21    25   am
    84    59    55   am
    85    30    29    1
    86    29    26    1
    87    25    26    1
    88    57    58    1
    89    57    54    1
    90    55    54    1
    91    55    56    2
    92    26    27    1
    93    53    54    1
    94    53    48   am
    95    51    50    1
    96    27    31   am
    97    27    28    2
    98    47    48    1
    99    47    50    1
   100    47    46    1
   101    38    37    2
   102    31    32    1
   103    48    49    2
   104    36    37    1
   105    36    35    1
   106    37    39   am
   107    52    50    1
   108    32    35    1
   109    32    33    1
   110     9     7   ar
   111     9    10   ar
   112    45    44    1
   113     7     6   ar
   114    33    34    2
   115    10     8   ar
   116    40    41    1
   117    41    44    1
   118    41    42    1
   119     6     8   ar
   120     6     5    1
   121     5     2    1
   122    42    43    2
   123     2     1    1
   124     2     3    1
   125     3     4    2
