@<TRIPOS>MOLECULE
tmp/5mosA00.pdb
 124 123 0 0 0
SMALL
GASTEIGER

@<TRIPOS>ATOM
      1  N          7.2230  -12.4170   -8.6930 N.3    40  HIS40      -0.1241
      2  CA         6.3060  -11.2820   -8.6970 C.3    40  HIS40       0.1621
      3  C          5.2130  -11.4250   -7.6440 C.2    40  HIS40       0.2264
      4  O          4.4820  -10.4660   -7.3950 O.2    40  HIS40      -0.2867
      5  CB         5.7570  -10.9880  -10.0960 C.3    40  HIS40       0.0745
      6  CG         4.5950  -11.8010  -10.5320 C.ar   40  HIS40       0.0817
      7  ND1        4.6810  -12.8940  -11.3670 N.ar   40  HIS40      -0.2268
      8  CD2        3.2820  -11.6130  -10.2890 C.ar   40  HIS40       0.1154
      9  CE1        3.4610  -13.3440  -11.6110 C.ar   40  HIS40       0.1986
     10  NE2        2.5970  -12.5820  -10.9660 N.ar   40  HIS40      -0.2212
     11  N         -6.8520  -20.7190  -20.4400 N.3   171  ASP171     -0.1225
     12  CA        -5.5930  -20.1090  -19.9960 C.3   171  ASP171      0.1805
     13  C         -5.6010  -20.0230  -18.4770 C.2   171  ASP171      0.2598
     14  O         -6.6380  -20.1690  -17.8340 O.2   171  ASP171     -0.2718
     15  CB        -5.5070  -18.6900  -20.5980 C.3   171  ASP171      0.1424
     16  CG        -4.1400  -18.0150  -20.5810 C.2   171  ASP171      0.3668
     17  OD1       -3.1130  -18.6210  -20.1940 O.co2 171  ASP171     -0.2456
     18  OD2       -4.1300  -16.8240  -20.9970 O.co2 171  ASP171     -0.2456
     19  N         -4.4410  -19.7260  -17.9160 N.am  172  SER172     -0.1938
     20  CA        -4.3850  -19.2600  -16.5390 C.3   172  SER172      0.2055
     21  C         -4.6990  -17.7500  -16.5230 C.2   172  SER172      0.2643
     22  O         -4.7460  -17.1020  -17.5640 O.2   172  SER172     -0.2714
     23  CB        -3.0330  -19.6470  -15.9180 C.3   172  SER172      0.2130
     24  OG        -1.9620  -19.1180  -16.6730 O.3   172  SER172     -0.2179
     25  N         -4.9350  -17.2130  -15.3250 N.am  173  CYS173     -0.1953
     26  CA        -5.4060  -15.8390  -15.2030 C.3   173  CYS173      0.1843
     27  C         -4.9960  -15.2560  -13.8470 C.2   173  CYS173      0.2625
     28  O         -4.2740  -15.8690  -13.0710 O.2   173  CYS173     -0.2714
     29  CB        -6.9150  -15.8040  -15.4810 C.3   173  CYS173      0.0997
     30  SG        -7.5990  -14.1820  -15.9420 S.3   173  CYS173     -0.0797
     31  N         -5.4310  -14.0170  -13.5820 N.am  174  GLN174     -0.1977
     32  CA        -5.0500  -13.3230  -12.3570 C.3   174  GLN174      0.1601
     33  C         -5.4070  -14.1620  -11.1480 C.2   174  GLN174      0.2287
     34  O         -6.5140  -14.6820  -11.0550 O.2   174  GLN174     -0.2864
     35  CB        -5.7600  -11.9730  -12.2760 C.3   174  GLN174      0.0394
     36  CG        -5.4070  -10.9960  -13.3890 C.3   174  GLN174      0.0908
     37  CD        -6.4470  -10.9520  -14.5140 C.2   174  GLN174      0.2608
     38  OE1       -7.6590  -11.0120  -14.2750 O.2   174  GLN174     -0.2717
     39  NE2       -5.9700  -10.8320  -15.7450 N.am  174  GLN174     -0.0878
     40  N         -1.0740  -16.8700  -10.5770 N.3   177  SER177     -0.1217
     41  CA         0.3590  -16.6110  -10.5780 C.3   177  SER177      0.1889
     42  C          1.0460  -17.3700   -9.4660 C.2   177  SER177      0.2288
     43  O          0.5590  -17.4550   -8.3440 O.2   177  SER177     -0.2866
     44  CB         0.6160  -15.1250  -10.3660 C.3   177  SER177      0.2089
     45  OG         0.3160  -14.4180  -11.5350 O.3   177  SER177     -0.2183
     46  N          3.3340  -20.3280  -13.1780 N.3   191  VAL191     -0.1231
     47  CA         2.4680  -19.3280  -13.8110 C.3   191  VAL191      0.1692
     48  C          3.0820  -17.9390  -13.6180 C.2   191  VAL191      0.2593
     49  O          3.2790  -17.4940  -12.4880 O.2   191  VAL191     -0.2718
     50  CB         1.0570  -19.3790  -13.2100 C.3   191  VAL191      0.0266
     51  CG1        0.1700  -18.3360  -13.8550 C.3   191  VAL191      0.0020
     52  CG2        0.4110  -20.7790  -13.2910 C.3   191  VAL191      0.0020
     53  N          3.3850  -17.2540  -14.7300 N.am  192  SER192     -0.1938
     54  CA         4.1400  -16.0030  -14.6840 C.3   192  SER192      0.2055
     55  C          3.3770  -14.8270  -15.2840 C.2   192  SER192      0.2643
     56  O          3.0420  -13.9020  -14.5470 O.2   192  SER192     -0.2714
     57  CB         5.5300  -16.2130  -15.2790 C.3   192  SER192      0.2130
     58  OG         6.2880  -15.0180  -15.2520 O.3   192  SER192     -0.2179
     59  N          3.1280  -14.7940  -16.5960 N.am  193  TRP193     -0.1959
     60  CA         2.5390  -13.6010  -17.1980 C.3   193  TRP193      0.1771
     61  C          1.8060  -13.9620  -18.4830 C.2   193  TRP193      0.2620
     62  O          1.8030  -15.0880  -18.9440 O.2   193  TRP193     -0.2715
     63  CB         3.5830  -12.5020  -17.4050 C.3   193  TRP193      0.0590
     64  CG         4.6860  -12.7800  -18.3770 C.ar  193  TRP193      0.0006
     65  CD1        5.8530  -13.4270  -18.1180 C.ar  193  TRP193      0.0946
     66  CD2        4.7660  -12.3480  -19.7470 C.ar  193  TRP193      0.0152
     67  NE1        6.6490  -13.4410  -19.2310 N.ar  193  TRP193     -0.2442
     68  CE2        6.0040  -12.7880  -20.2500 C.ar  193  TRP193      0.0810
     69  CE3        3.9060  -11.6350  -20.5970 C.ar  193  TRP193      0.0012
     70  CZ2        6.4100  -12.5390  -21.5670 C.ar  193  TRP193      0.0191
     71  CZ3        4.3060  -11.4040  -21.8970 C.ar  193  TRP193      0.0001
     72  CH2        5.5420  -11.8550  -22.3720 C.ar  193  TRP193      0.0015
     73  N          1.1520  -12.9580  -19.0420 N.am  194  GLY194     -0.1940
     74  CA         0.4530  -13.0750  -20.3140 C.3   194  GLY194      0.2014
     75  C         -0.2110  -11.7410  -20.5890 C.2   194  GLY194      0.2640
     76  O         -0.1920  -10.8540  -19.7580 O.2   194  GLY194     -0.2714
     77  N         -0.8570  -11.6070  -21.7150 N.am  195  SER195     -0.1935
     78  CA        -1.5840  -10.3890  -22.0540 C.3   195  SER195      0.2055
     79  C         -3.0750  -10.6700  -21.9330 C.2   195  SER195      0.2644
     80  O         -3.6410  -11.3840  -22.7610 O.2   195  SER195     -0.2714
     81  CB        -1.2370   -9.9550  -23.4700 C.3   195  SER195      0.2130
     82  OG        -1.9300   -8.7750  -23.7800 O.3   195  SER195     -0.2179
     83  N         -3.7120  -10.1240  -20.8910 N.am  196  GLY196     -0.1939
     84  CA        -5.0780  -10.5180  -20.5950 C.3   196  GLY196      0.2014
     85  C         -5.1130  -11.9810  -20.1820 C.2   196  GLY196      0.2639
     86  O         -4.1290  -12.5130  -19.6930 O.2   196  GLY196     -0.2714
     87  N         -6.2580  -12.6270  -20.3870 N.am  197  CYS197     -0.1967
     88  CA        -6.3940  -14.0660  -20.1680 C.3   197  CYS197      0.1712
     89  C         -7.1840  -14.6630  -21.3050 C.2   197  CYS197      0.2296
     90  O         -8.2500  -14.1550  -21.6580 O.2   197  CYS197     -0.2864
     91  CB        -7.1270  -14.3870  -18.8570 C.3   197  CYS197      0.0983
     92  SG        -6.3930  -13.5520  -17.4520 S.3   197  CYS197     -0.0798
     93  N         -2.4630  -15.0800  -27.7710 N.3   202  LYS202     -0.1245
     94  CA        -1.7670  -14.5860  -26.5770 C.3   202  LYS202      0.1561
     95  C         -1.7800  -15.6640  -25.5050 C.2   202  LYS202      0.2260
     96  O         -2.5020  -15.5640  -24.5020 O.2   202  LYS202     -0.2867
     97  CB        -2.3920  -13.2930  -26.0630 C.3   202  LYS202      0.0271
     98  CG        -2.2250  -12.1340  -27.0170 C.3   202  LYS202      0.0035
     99  CD        -0.7410  -11.7170  -27.1390 C.3   202  LYS202      0.0206
    100  CE        -0.5390  -10.5990  -28.1370 C.3   202  LYS202      0.1093
    101  NZ         0.8990  -10.1720  -28.2760 N.3   202  LYS202     -0.1314
    102  N         -0.4520  -18.1890  -22.3910 N.3   204  GLY204     -0.1210
    103  CA         0.2370  -17.9280  -21.1490 C.3   204  GLY204      0.1956
    104  C          1.7310  -18.1630  -21.2670 C.2   204  GLY204      0.2612
    105  O          2.1960  -19.0160  -22.0230 O.2   204  GLY204     -0.2717
    106  N          2.4740  -17.4040  -20.4570 N.am  205  VAL205     -0.1965
    107  CA         3.9250  -17.4880  -20.3850 C.3   205  VAL205      0.1727
    108  C          4.3200  -17.9370  -18.9740 C.2   205  VAL205      0.2616
    109  O          3.7950  -17.4450  -17.9660 O.2   205  VAL205     -0.2715
    110  CB         4.6190  -16.1610  -20.7750 C.3   205  VAL205      0.0290
    111  CG1        6.1300  -16.3830  -20.8920 C.3   205  VAL205      0.0023
    112  CG2        4.0530  -15.6140  -22.0830 C.3   205  VAL205      0.0023
    113  N          5.2320  -18.9000  -18.9260 N.am  206  TYR206     -0.1974
    114  CA         5.5680  -19.6300  -17.7240 C.3   206  TYR206      0.1639
    115  C          7.0780  -19.6250  -17.5030 C.2   206  TYR206      0.2290
    116  O          7.8580  -19.7430  -18.4530 O.2   206  TYR206     -0.2864
    117  CB         5.0440  -21.0940  -17.8720 C.3   206  TYR206      0.0560
    118  CG         3.5460  -21.1190  -18.0200 C.ar  206  TYR206     -0.0198
    119  CD1        2.7380  -21.1540  -16.9020 C.ar  206  TYR206     -0.0009
    120  CD2        2.9300  -21.0530  -19.2610 C.ar  206  TYR206     -0.0009
    121  CE1        1.3610  -21.1210  -16.9990 C.ar  206  TYR206      0.0417
    122  CE2        1.5370  -21.0230  -19.3730 C.ar  206  TYR206      0.0417
    123  CZ         0.7610  -21.0460  -18.2410 C.ar  206  TYR206      0.1957
    124  OH        -0.6180  -20.9880  -18.2680 O.3   206  TYR206     -0.2866
@<TRIPOS>BOND
     1   101   100    1
     2   100    99    1
     3    93    94    1
     4    99    98    1
     5    98    97    1
     6    94    97    1
     7    94    95    1
     8    95    96    2
     9    82    81    1
    10    81    78    1
    11    80    79    2
    12   102   103    1
    13    72    71   ar
    14    72    70   ar
    15   112   110    1
    16    78    79    1
    17    78    77    1
    18   105   104    2
    19    79    83   am
    20    71    69   ar
    21    77    75   am
    22    90    89    2
    23    70    68   ar
    24    89    88    1
    25   104   103    1
    26   104   106   am
    27    18    16   ar
    28   111   110    1
    29    83    84    1
    30   110   107    1
    31    15    16    1
    32    15    12    1
    33    69    66   ar
    34    84    85    1
    35    75    74    1
    36    75    76    2
    37    16    17   ar
    38   106   107    1
    39    11    12    1
    40    87    85   am
    41    87    88    1
    42   107   108    1
    43    74    73    1
    44    68    66   ar
    45    68    67   ar
    46    85    86    2
    47    88    91    1
    48    12    13    1
    49    66    64   ar
    50   122   120   ar
    51   122   123   ar
    52   120   118   ar
    53    67    65   ar
    54    73    61   am
    55   108   113   am
    56   108   109    2
    57    62    61    2
    58   113   114    1
    59    91    92    1
    60    61    60    1
    61    13    19   am
    62    13    14    2
    63   116   115    2
    64    64    65   ar
    65    64    63    1
    66   124   123    1
    67   123   121   ar
    68   118   117    1
    69   118   119   ar
    70    19    20    1
    71   117   114    1
    72   114   115    1
    73    22    21    2
    74    92    30    1
    75    63    60    1
    76    60    59    1
    77   121   119   ar
    78    24    23    1
    79    59    55   am
    80    20    21    1
    81    20    23    1
    82    21    25   am
    83    30    29    1
    84    39    37   am
    85    29    26    1
    86    25    26    1
    87    55    54    1
    88    55    56    2
    89    57    58    1
    90    57    54    1
    91    26    27    1
    92    53    54    1
    93    53    48   am
    94    37    38    2
    95    37    36    1
    96    51    50    1
    97    27    31   am
    98    27    28    2
    99    47    48    1
   100    47    50    1
   101    47    46    1
   102    48    49    2
   103    31    32    1
   104    36    35    1
   105    52    50    1
   106    32    35    1
   107    32    33    1
   108     9     7   ar
   109     9    10   ar
   110    45    44    1
   111     7     6   ar
   112    33    34    2
   113    10     8   ar
   114    41    40    1
   115    41    44    1
   116    41    42    1
   117     6     8   ar
   118     6     5    1
   119     5     2    1
   120    42    43    2
   121     2     1    1
   122     2     3    1
   123     3     4    2
