@<TRIPOS>MOLECULE
tmp/5motA00.pdb
 116 110 0 0 0
SMALL
GASTEIGER

@<TRIPOS>ATOM
      1  N        155.6110    7.2890  136.6580 N.3    44  LEU44      -0.1245
      2  CA       154.2010    7.6250  136.5320 C.3    44  LEU44       0.1561
      3  C        153.4390    7.2190  137.7840 C.2    44  LEU44       0.2260
      4  O        152.6760    7.9720  138.2880 O.2    44  LEU44      -0.2867
      5  CB       153.5730    7.1550  135.2370 C.3    44  LEU44       0.0270
      6  CG       154.2870    7.6180  133.9970 C.3    44  LEU44       0.0019
      7  CD1      153.6920    7.0120  132.7520 C.3    44  LEU44       0.0001
      8  CD2      154.4470    9.1270  133.9290 C.3    44  LEU44       0.0001
      9  N        155.4460    2.0640  137.3530 N.3    52  VAL52      -0.1245
     10  CA       155.3080    2.3620  135.9360 C.3    52  VAL52       0.1561
     11  C        156.0930    3.6280  135.6300 C.2    52  VAL52       0.2260
     12  O        156.0460    4.5930  136.3870 O.2    52  VAL52      -0.2867
     13  CB       153.8060    2.4150  135.5230 C.3    52  VAL52       0.0252
     14  CG1      153.6260    2.8690  134.0850 C.3    52  VAL52       0.0019
     15  CG2      153.1230    1.0630  135.7480 C.3    52  VAL52       0.0019
     16  N        156.5250    2.9240  127.6370 N.3    65  VAL65      -0.1245
     17  CA       156.1500    2.8330  129.0340 C.3    65  VAL65       0.1561
     18  C        156.7670    1.5580  129.5820 C.2    65  VAL65       0.2260
     19  O        156.6910    0.5070  128.9510 O.2    65  VAL65      -0.2867
     20  CB       154.6140    2.9320  129.2310 C.3    65  VAL65       0.0252
     21  CG1      154.2040    2.5570  130.6540 C.3    65  VAL65       0.0019
     22  CG2      154.1330    4.3420  128.8960 C.3    65  VAL65       0.0019
     23  N        156.9590   -1.0210  132.7900 N.3    67  LYS67      -0.1245
     24  CA       156.3270   -1.4650  133.9940 C.3    67  LYS67       0.1561
     25  C        157.2610   -2.4330  134.7020 C.2    67  LYS67       0.2260
     26  O        157.4090   -3.5340  134.3000 O.2    67  LYS67      -0.2867
     27  CB       154.9720   -2.0840  133.6950 C.3    67  LYS67       0.0271
     28  CG       154.2750   -2.7700  134.8450 C.3    67  LYS67       0.0035
     29  CD       152.9130   -3.2050  134.4160 C.3    67  LYS67       0.0206
     30  CE       152.1350   -3.9540  135.4320 C.3    67  LYS67       0.1093
     31  NZ       150.8150   -4.3510  134.9660 N.3    67  LYS67      -0.1314
     32  N        146.6340   -3.1000  124.7400 N.3    94  ILE94      -0.1245
     33  CA       147.9680   -2.5570  124.9030 C.3    94  ILE94       0.1561
     34  C        149.0600   -3.5080  124.3260 C.2    94  ILE94       0.2260
     35  O        149.1040   -4.6400  124.6420 O.2    94  ILE94      -0.2867
     36  CB       148.2510   -2.1480  126.3680 C.3    94  ILE94       0.0252
     37  CG1      149.4240   -1.1940  126.4570 C.3    94  ILE94       0.0019
     38  CG2      148.4270   -3.3430  127.2680 C.3    94  ILE94       0.0019
     39  CD1      149.1660    0.1860  125.9620 C.3    94  ILE94       0.0001
     40  N        155.8540   -1.3440  127.0760 N.3   112  PHE112     -0.1227
     41  CA       154.6630   -1.1480  126.2800 C.3   112  PHE112      0.1736
     42  C        154.7660    0.0670  125.3750 C.2   112  PHE112      0.2595
     43  O        155.5720    0.9400  125.5660 O.2   112  PHE112     -0.2718
     44  CB       153.4280   -0.9490  127.1590 C.3   112  PHE112      0.0547
     45  CG       153.1730   -2.0280  128.1460 C.ar  112  PHE112     -0.0202
     46  CD1      152.5770   -3.2050  127.7560 C.ar  112  PHE112     -0.0042
     47  CD2      153.4920   -1.8550  129.4690 C.ar  112  PHE112     -0.0042
     48  CE1      152.3170   -4.1880  128.6600 C.ar  112  PHE112     -0.0003
     49  CE2      153.2340   -2.8340  130.3780 C.ar  112  PHE112     -0.0003
     50  CZ       152.6520   -4.0060  129.9770 C.ar  112  PHE112     -0.0000
     51  N        153.8620    0.1230  124.4080 N.am  113  GLU113     -0.1965
     52  CA       153.6780    1.2720  123.5590 C.3   113  GLU113      0.1733
     53  C        153.1320    2.4180  124.4530 C.2   113  GLU113      0.2616
     54  O        152.4250    2.2060  125.4240 O.2   113  GLU113     -0.2715
     55  CB       152.6180    1.0150  122.4540 C.3   113  GLU113      0.0429
     56  CG       151.1800    1.0830  122.9370 C.3   113  GLU113      0.1163
     57  CD       150.1360    0.5880  121.9560 C.2   113  GLU113      0.3649
     58  OE1      150.0130    1.1700  120.9060 O.co2 113  GLU113     -0.2457
     59  OE2      149.4280   -0.3580  122.2480 O.co2 113  GLU113     -0.2457
     60  N        153.4560    3.6310  124.0720 N.am  114  HIS114     -0.1959
     61  CA       152.9780    4.7920  124.7600 C.3   114  HIS114      0.1787
     62  C        151.7160    5.3180  124.0590 C.2   114  HIS114      0.2620
     63  O        151.7210    5.5530  122.9100 O.2   114  HIS114     -0.2715
     64  CB       154.0660    5.8630  124.7830 C.3   114  HIS114      0.0785
     65  CG       153.6330    7.1610  125.3640 C.ar  114  HIS114      0.0821
     66  ND1      153.4590    7.3480  126.7080 N.ar  114  HIS114     -0.2267
     67  CD2      153.3600    8.3420  124.7870 C.ar  114  HIS114      0.1154
     68  CE1      153.1130    8.5910  126.9390 C.ar  114  HIS114      0.1986
     69  NE2      153.0260    9.2100  125.7860 N.ar  114  HIS114     -0.2212
     70  N        150.6490    5.4550  124.8070 N.am  115  VAL115     -0.1963
     71  CA       149.3780    6.0250  124.3840 C.3   115  VAL115      0.1727
     72  C        149.4200    7.5380  124.6500 C.2   115  VAL115      0.2616
     73  O        149.6380    8.2850  123.7370 O.2   115  VAL115     -0.2715
     74  CB       148.1810    5.3270  125.0120 C.3   115  VAL115      0.0290
     75  CG1      146.8770    5.8380  124.4320 C.3   115  VAL115      0.0023
     76  CG2      148.2830    3.8410  124.7910 C.3   115  VAL115      0.0023
     77  N        149.3170    7.9320  125.8980 N.am  116  ASN116     -0.1958
     78  CA       149.3430    9.3290  126.2860 C.3   116  ASN116      0.1819
     79  C        149.4390    9.4970  127.8070 C.2   116  ASN116      0.2621
     80  O        149.2460    8.5660  128.5620 O.2   116  ASN116     -0.2715
     81  CB       148.0600    9.9840  125.8600 C.3   116  ASN116      0.1195
     82  CG       148.1500   11.4570  125.8500 C.2   116  ASN116      0.2630
     83  OD1      149.0610   12.0610  125.2590 O.2   116  ASN116     -0.2716
     84  ND2      147.2130   12.0700  126.5300 N.am  116  ASN116     -0.0877
     85  N        149.7340   10.6790  128.2800 N.am  117  ASN117     -0.1972
     86  CA       149.7160   10.8460  129.7120 C.3   117  ASN117      0.1688
     87  C        148.3600   11.2170  130.3320 C.2   117  ASN117      0.2292
     88  O        148.2650   12.0290  131.2220 O.2   117  ASN117     -0.2864
     89  CB       150.9760   11.4850  130.2790 C.3   117  ASN117      0.1181
     90  CG       151.0090   11.3560  131.8070 C.2   117  ASN117      0.2629
     91  OD1      150.4860   10.3880  132.3480 O.2   117  ASN117     -0.2716
     92  ND2      151.7230   12.2580  132.4840 N.am  117  ASN117     -0.0877
     93  N        143.5370    3.7750  128.7710 N.3   162  MET162     -0.1245
     94  CA       144.3710    4.8610  128.3470 C.3   162  MET162      0.1570
     95  C        143.9000    5.4440  127.0100 C.2   162  MET162      0.2261
     96  O        143.8190    4.7630  126.0560 O.2   162  MET162     -0.2867
     97  CB       145.8240    4.4400  128.2930 C.3   162  MET162      0.0387
     98  CG       146.5010    4.2180  129.6430 C.3   162  MET162      0.0595
     99  SD       146.7510    5.6180  130.7100 S.3   162  MET162     -0.1393
    100  CE       146.2610    4.9540  132.2340 C.3   162  MET162      0.0692
    101  N        144.6010   -1.4020  129.3630 N.3   173  ILE173     -0.1231
    102  CA       145.8970   -1.6780  129.9830 C.3   173  ILE173      0.1692
    103  C        145.7530   -2.5080  131.2640 C.2   173  ILE173      0.2592
    104  O        144.6300   -2.8410  131.6800 O.2   173  ILE173     -0.2718
    105  CB       146.6950   -0.3540  130.2250 C.3   173  ILE173      0.0266
    106  CG1      146.0260    0.5270  131.3080 C.3   173  ILE173      0.0019
    107  CG2      146.9440    0.4290  128.9230 C.3   173  ILE173      0.0020
    108  CD1      146.9710    1.3070  132.2240 C.3   173  ILE173      0.0001
    109  N        146.9140   -2.8120  131.8830 N.am  174  ASP174     -0.1974
    110  CA       147.1100   -3.5670  133.1170 C.3   174  ASP174      0.1709
    111  C        146.3900   -4.9130  133.1760 C.2   174  ASP174      0.2293
    112  O        145.3670   -5.0770  133.8570 O.2   174  ASP174     -0.2864
    113  CB       146.7990   -2.7190  134.3750 C.3   174  ASP174      0.1436
    114  CG       147.2510   -3.3940  135.6510 C.2   174  ASP174      0.3671
    115  OD1      147.6910   -4.5500  135.5820 O.co2 174  ASP174     -0.2456
    116  OD2      147.1580   -2.7620  136.7200 O.co2 174  ASP174     -0.2456
@<TRIPOS>BOND
     1    58    57   ar
     2    57    59   ar
     3    57    56    1
     4    55    56    1
     5    55    52    1
     6    63    62    2
     7    52    51    1
     8    52    53    1
     9    73    72    2
    10    62    61    1
    11    62    70   am
    12    60    53   am
    13    60    61    1
    14    34    35    2
    15    34    33    1
    16    71    72    1
    17    71    70    1
    18    71    74    1
    19    51    42   am
    20    75    74    1
    21    53    54    2
    22    72    77   am
    23    32    33    1
    24    61    64    1
    25    64    65    1
    26    67    65   ar
    27    67    69   ar
    28    76    74    1
    29    33    36    1
    30    83    82    2
    31    65    66   ar
    32    42    43    2
    33    42    41    1
    34    69    68   ar
    35    82    81    1
    36    82    84   am
    37    81    78    1
    38    77    78    1
    39    39    37    1
    40    96    95    2
    41    41    40    1
    42    41    44    1
    43    78    79    1
    44    36    37    1
    45    36    38    1
    46    66    68   ar
    47    95    94    1
    48    44    45    1
    49    16    17    1
    50    46    45   ar
    51    46    48   ar
    52    79    85   am
    53    79    80    2
    54    45    47   ar
    55    85    86    1
    56    97    94    1
    57    97    98    1
    58    94    93    1
    59    48    50   ar
    60    22    20    1
    61   107   105    1
    62    19    18    2
    63    17    20    1
    64    17    18    1
    65    20    21    1
    66   101   102    1
    67    47    49   ar
    68    98    99    1
    69    86    89    1
    70    86    87    1
    71    50    49   ar
    72   102   105    1
    73   102   103    1
    74   105   106    1
    75    89    90    1
    76    87    88    2
    77    99   100    1
    78   103   104    2
    79   103   109   am
    80   106   108    1
    81    90    91    2
    82    90    92   am
    83   109   110    1
    84     7     6    1
    85    23    24    1
    86   110   111    1
    87   110   113    1
    88   111   112    2
    89    27    24    1
    90    27    28    1
    91     8     6    1
    92    24    25    1
    93     6     5    1
    94    14    13    1
    95    26    25    2
    96   113   114    1
    97    29    28    1
    98    29    30    1
    99    31    30    1
   100     5     2    1
   101    13    15    1
   102    13    10    1
   103   115   114   ar
   104    11    10    1
   105    11    12    2
   106   114   116   ar
   107    10     9    1
   108     2     1    1
   109     2     3    1
   110     3     4    2
