@<TRIPOS>MOLECULE
tmp/5motA01.pdb
 79 75 0 0 0
SMALL
GASTEIGER

@<TRIPOS>ATOM
      1  N        153.7250    6.0640  138.3180 N.3    45  GLY45      -0.1210
      2  CA       153.0920    5.6070  139.5130 C.3    45  GLY45       0.1956
      3  C        153.6360    4.3320  140.1080 C.2    45  GLY45       0.2612
      4  O        154.4960    3.7150  139.5600 O.2    45  GLY45      -0.2717
      5  N        153.1270    3.9810  141.2680 N.am   46  ARG46      -0.1965
      6  CA       153.5050    2.7740  141.9620 C.3    46  ARG46       0.1729
      7  C        152.3020    2.1500  142.6360 C.2    46  ARG46       0.2617
      8  O        151.4920    2.8370  143.2130 O.2    46  ARG46      -0.2715
      9  CB       154.5620    3.0470  143.0090 C.3    46  ARG46       0.0348
     10  CG       155.0150    1.8050  143.7590 C.3    46  ARG46       0.0492
     11  CD       155.6460    2.0270  145.1150 C.3    46  ARG46       0.2205
     12  NE       156.9570    2.5470  144.9350 N.pl3  46  ARG46      -0.0865
     13  CZ       157.5900    3.3210  145.7970 C.cat  46  ARG46       0.5346
     14  NH1      157.0270    3.6380  146.9290 N.pl3  46  ARG46       0.1354
     15  NH2      158.7900    3.7600  145.4950 N.pl3  46  ARG46       0.1354
     16  N        152.1820    0.8480  142.5320 N.am   47  GLY47      -0.1940
     17  CA       151.1510    0.1140  143.1960 C.3    47  GLY47       0.2014
     18  C        151.7360   -1.0410  143.9550 C.2    47  GLY47       0.2639
     19  O        152.8810   -1.0730  144.2890 O.2    47  GLY47      -0.2714
     20  N        150.8940   -2.0010  144.2310 N.am   48  LYS48      -0.1963
     21  CA       151.2260   -3.2000  144.9320 C.3    48  LYS48       0.1728
     22  C        152.0930   -4.1640  144.1380 C.2    48  LYS48       0.2616
     23  O        152.8770   -4.8690  144.6880 O.2    48  LYS48      -0.2715
     24  CB       149.9030   -3.8630  145.3050 C.3    48  LYS48       0.0311
     25  CG       149.9770   -5.1600  146.0880 C.3    48  LYS48       0.0038
     26  CD       148.7730   -5.3100  146.9690 C.3    48  LYS48       0.0206
     27  CE       148.3980   -6.7680  147.1880 C.3    48  LYS48       0.1093
     28  NZ       146.9420   -6.9900  147.0230 N.3    48  LYS48      -0.1314
     29  N        151.9530   -4.1690  142.8330 N.am   49  TYR49      -0.1960
     30  CA       152.6650   -5.0980  141.9920 C.3    49  TYR49       0.1771
     31  C        153.7200   -4.5340  141.0460 C.2    49  TYR49       0.2620
     32  O        154.5100   -5.2580  140.5540 O.2    49  TYR49      -0.2715
     33  CB       151.6580   -5.9510  141.2130 C.3    49  TYR49       0.0574
     34  CG       150.7590   -6.7810  142.0980 C.ar   49  TYR49      -0.0198
     35  CD1      151.2020   -7.9680  142.6270 C.ar   49  TYR49      -0.0009
     36  CD2      149.4990   -6.3370  142.4460 C.ar   49  TYR49      -0.0009
     37  CE1      150.4030   -8.7220  143.4440 C.ar   49  TYR49       0.0417
     38  CE2      148.6980   -7.0690  143.2710 C.ar   49  TYR49       0.0417
     39  CZ       149.1370   -8.2710  143.7630 C.ar   49  TYR49       0.1957
     40  OH       148.3500   -8.9980  144.5880 O.3    49  TYR49      -0.2866
     41  N        153.7240   -3.2380  140.8540 N.am   50  SER50      -0.1950
     42  CA       154.6450   -2.5930  139.9530 C.3    50  SER50       0.1924
     43  C        154.8110   -1.1100  140.1380 C.2    50  SER50       0.2314
     44  O        154.1060   -0.4920  140.8720 O.2    50  SER50      -0.2863
     45  CB       154.2070   -2.8150  138.5120 C.3    50  SER50       0.2116
     46  OG       153.0770   -2.1340  138.1970 O.3    50  SER50      -0.2180
     47  N        155.4460    2.0640  137.3530 N.3    52  VAL52      -0.1245
     48  CA       155.3080    2.3620  135.9360 C.3    52  VAL52       0.1561
     49  C        156.0930    3.6280  135.6300 C.2    52  VAL52       0.2260
     50  O        156.0460    4.5930  136.3870 O.2    52  VAL52      -0.2867
     51  CB       153.8060    2.4150  135.5230 C.3    52  VAL52       0.0252
     52  CG1      153.6260    2.8690  134.0850 C.3    52  VAL52       0.0019
     53  CG2      153.1230    1.0630  135.7480 C.3    52  VAL52       0.0019
     54  N        156.9590   -1.0210  132.7900 N.3    67  LYS67      -0.1245
     55  CA       156.3270   -1.4650  133.9940 C.3    67  LYS67       0.1561
     56  C        157.2610   -2.4330  134.7020 C.2    67  LYS67       0.2260
     57  O        157.4090   -3.5340  134.3000 O.2    67  LYS67      -0.2867
     58  CB       154.9720   -2.0840  133.6950 C.3    67  LYS67       0.0271
     59  CG       154.2750   -2.7700  134.8450 C.3    67  LYS67       0.0035
     60  CD       152.9130   -3.2050  134.4160 C.3    67  LYS67       0.0206
     61  CE       152.1350   -3.9540  135.4320 C.3    67  LYS67       0.1093
     62  NZ       150.8150   -4.3510  134.9660 N.3    67  LYS67      -0.1314
     63  N        138.1970   -0.7420  134.7570 N.3   157  LYS157     -0.1245
     64  CA       137.9730    0.5380  135.4400 C.3   157  LYS157      0.1561
     65  C        138.5090    1.6760  134.5740 C.2   157  LYS157      0.2260
     66  O        139.3680    1.4630  133.8020 O.2   157  LYS157     -0.2867
     67  CB       138.5570    0.5680  136.8690 C.3   157  LYS157      0.0271
     68  CG       140.0230    0.3140  136.9440 C.3   157  LYS157      0.0035
     69  CD       140.5560    0.1810  138.3320 C.3   157  LYS157      0.0206
     70  CE       142.0530    0.1160  138.3260 C.3   157  LYS157      0.1093
     71  NZ       142.6640   -0.3080  139.5990 N.3   157  LYS157     -0.1314
     72  N        146.9140   -2.8120  131.8830 N.3   174  ASP174     -0.1239
     73  CA       147.1100   -3.5670  133.1170 C.3   174  ASP174      0.1674
     74  C        146.3900   -4.9130  133.1760 C.2   174  ASP174      0.2266
     75  O        145.3670   -5.0770  133.8570 O.2   174  ASP174     -0.2867
     76  CB       146.7990   -2.7190  134.3750 C.3   174  ASP174      0.1410
     77  CG       147.2510   -3.3940  135.6510 C.2   174  ASP174      0.3668
     78  OD1      147.6910   -4.5500  135.5820 O.co2 174  ASP174     -0.2456
     79  OD2      147.1580   -2.7620  136.7200 O.co2 174  ASP174     -0.2456
@<TRIPOS>BOND
     1    72    73    1
     2    54    55    1
     3    73    74    1
     4    73    76    1
     5    74    75    2
     6    58    55    1
     7    58    59    1
     8    66    65    2
     9    55    56    1
    10    52    51    1
    11    57    56    2
    12    76    77    1
    13    60    59    1
    14    60    61    1
    15    65    64    1
    16    63    64    1
    17    62    61    1
    18    64    67    1
    19    51    53    1
    20    51    48    1
    21    78    77   ar
    22    49    48    1
    23    49    50    2
    24    77    79   ar
    25    48    47    1
    26    67    68    1
    27    68    69    1
    28    46    45    1
    29     1     2    1
    30    70    69    1
    31    70    71    1
    32    45    42    1
    33     2     3    1
    34     4     3    2
    35    42    43    1
    36    42    41    1
    37     3     5   am
    38    43    44    2
    39    32    31    2
    40    41    31   am
    41    31    30    1
    42    33    30    1
    43    33    34    1
    44     5     6    1
    45     6     7    1
    46     6     9    1
    47    30    29    1
    48    34    36   ar
    49    34    35   ar
    50    36    38   ar
    51    16     7   am
    52    16    17    1
    53    35    37   ar
    54     7     8    2
    55    29    22   am
    56     9    10    1
    57    17    18    1
    58    38    39   ar
    59    37    39   ar
    60    10    11    1
    61    39    40    1
    62    18    20   am
    63    18    19    2
    64    22    23    2
    65    22    21    1
    66    20    21    1
    67    21    24    1
    68    12    11    1
    69    12    13    2
    70    24    25    1
    71    15    13    1
    72    13    14    1
    73    25    26    1
    74    26    27    1
    75    28    27    1
