@<TRIPOS>MOLECULE
tmp/5movA00.pdb
 139 132 0 0 0
SMALL
GASTEIGER

@<TRIPOS>ATOM
      1  N       -127.2950 -175.5900  304.8270 N.3    43  LEU43      -0.1245
      2  CA      -125.9200 -175.2010  305.1370 C.3    43  LEU43       0.1561
      3  C       -125.0000 -175.5320  303.9620 C.2    43  LEU43       0.2260
      4  O       -124.1170 -174.7400  303.6190 O.2    43  LEU43      -0.2867
      5  CB      -125.4240 -175.8510  306.4350 C.3    43  LEU43       0.0270
      6  CG      -126.0920 -175.3820  307.7210 C.3    43  LEU43       0.0019
      7  CD1     -125.5630 -176.1450  308.9040 C.3    43  LEU43       0.0001
      8  CD2     -125.9190 -173.8820  307.9380 C.3    43  LEU43       0.0001
      9  N       -127.0410 -180.9100  303.7930 N.3    51  VAL51      -0.1245
     10  CA      -126.9120 -180.5780  305.2080 C.3    51  VAL51       0.1561
     11  C       -127.7230 -179.3430  305.5130 C.2    51  VAL51       0.2260
     12  O       -127.6200 -178.3340  304.8200 O.2    51  VAL51      -0.2867
     13  CB      -125.4080 -180.4980  305.6460 C.3    51  VAL51       0.0252
     14  CG1     -125.2050 -179.6800  306.9150 C.3    51  VAL51       0.0019
     15  CG2     -124.8010 -181.8950  305.8010 C.3    51  VAL51       0.0019
     16  N       -128.2430 -180.3270  313.3880 N.3    64  VAL64      -0.1245
     17  CA      -127.8420 -180.3630  312.0000 C.3    64  VAL64       0.1561
     18  C       -128.4820 -181.5980  311.4080 C.2    64  VAL64       0.2260
     19  O       -128.4170 -182.6820  311.9990 O.2    64  VAL64      -0.2867
     20  CB      -126.3000 -180.2950  311.8340 C.3    64  VAL64       0.0252
     21  CG1     -125.8850 -180.4820  310.3760 C.3    64  VAL64       0.0019
     22  CG2     -125.7710 -178.9700  312.3810 C.3    64  VAL64       0.0019
     23  N       -128.7090 -184.0790  308.1780 N.3    66  LYS66      -0.1245
     24  CA      -128.0260 -184.5180  306.9740 C.3    66  LYS66       0.1561
     25  C       -128.9090 -185.5010  306.2190 C.2    66  LYS66       0.2260
     26  O       -129.0120 -186.6720  306.5870 O.2    66  LYS66      -0.2867
     27  CB      -126.6030 -185.0410  307.2980 C.3    66  LYS66       0.0271
     28  CG      -125.8970 -185.7300  306.1380 C.3    66  LYS66       0.0035
     29  CD      -124.4270 -185.7390  306.3530 C.3    66  LYS66       0.0206
     30  CE      -123.7900 -187.0230  305.8930 C.3    66  LYS66       0.1093
     31  NZ      -122.3690 -187.1410  306.3390 N.3    66  LYS66      -0.1314
     32  N       -122.4410 -195.7620  307.6270 N.3    79  GLU79      -0.1245
     33  CA      -122.2820 -194.4780  308.3030 C.3    79  GLU79       0.1567
     34  C       -122.9950 -194.4630  309.6500 C.2    79  GLU79       0.2260
     35  O       -122.4570 -193.9570  310.6280 O.2    79  GLU79      -0.2867
     36  CB      -122.7430 -193.3080  307.4250 C.3    79  GLU79       0.0388
     37  CG      -122.4020 -191.9410  308.0040 C.3    79  GLU79       0.1160
     38  CD      -122.7090 -190.7870  307.0640 C.2    79  GLU79       0.3649
     39  OE1     -122.9270 -191.0240  305.8630 O.co2  79  GLU79      -0.2457
     40  OE2     -122.7240 -189.6330  307.5260 O.co2  79  GLU79      -0.2457
     41  N       -121.0370 -194.1410  313.3720 N.3    83  LEU83      -0.1245
     42  CA      -121.4370 -193.0230  314.2640 C.3    83  LEU83       0.1561
     43  C       -121.9530 -193.4900  315.6130 C.2    83  LEU83       0.2260
     44  O       -121.6910 -192.8390  316.6240 O.2    83  LEU83      -0.2867
     45  CB      -122.4890 -192.1220  313.6060 C.3    83  LEU83       0.0270
     46  CG      -122.0420 -191.2160  312.4740 C.3    83  LEU83       0.0019
     47  CD1     -123.2520 -190.7780  311.6440 C.3    83  LEU83       0.0001
     48  CD2     -121.2620 -190.0060  312.9840 C.3    83  LEU83       0.0001
     49  N       -118.2520 -186.1320  316.1570 N.3    93  ILE93      -0.1245
     50  CA      -119.6090 -185.6030  315.9800 C.3    93  ILE93       0.1561
     51  C       -120.6450 -186.6110  316.5610 C.2    93  ILE93       0.2260
     52  O       -120.5680 -187.8210  316.2850 O.2    93  ILE93      -0.2867
     53  CB      -119.9080 -185.2360  314.4980 C.3    93  ILE93       0.0252
     54  CG1     -121.1390 -184.2870  314.3680 C.3    93  ILE93       0.0019
     55  CG2     -120.0250 -186.4560  313.5810 C.3    93  ILE93       0.0019
     56  CD1     -120.8920 -182.8570  314.8780 C.3    93  ILE93       0.0001
     57  N       -127.4790 -184.4580  313.9680 N.3   111  PHE111     -0.1227
     58  CA      -126.2620 -184.2580  314.7380 C.3   111  PHE111      0.1736
     59  C       -126.4280 -183.0940  315.6780 C.2   111  PHE111      0.2595
     60  O       -127.2570 -182.2190  315.4330 O.2   111  PHE111     -0.2718
     61  CB      -125.0690 -183.9590  313.8030 C.3   111  PHE111      0.0547
     62  CG      -124.7730 -185.0560  312.8200 C.ar  111  PHE111     -0.0202
     63  CD1     -124.0020 -186.1550  313.1920 C.ar  111  PHE111     -0.0042
     64  CD2     -125.2770 -185.0060  311.5280 C.ar  111  PHE111     -0.0042
     65  CE1     -123.7460 -187.1840  312.2850 C.ar  111  PHE111     -0.0003
     66  CE2     -125.0230 -186.0360  310.6200 C.ar  111  PHE111     -0.0003
     67  CZ      -124.2590 -187.1160  311.0050 C.ar  111  PHE111     -0.0000
     68  N       -125.5820 -183.0530  316.7240 N.am  112  GLU112     -0.1965
     69  CA      -125.4580 -181.9350  317.6650 C.3   112  GLU112      0.1733
     70  C       -124.9980 -180.7190  316.8280 C.2   112  GLU112      0.2616
     71  O       -124.3730 -180.8940  315.7660 O.2   112  GLU112     -0.2715
     72  CB      -124.3710 -182.2460  318.7280 C.3   112  GLU112      0.0429
     73  CG      -122.9980 -182.6070  318.1290 C.3   112  GLU112      0.1163
     74  CD      -121.7820 -182.5930  319.0370 C.2   112  GLU112      0.3649
     75  OE1     -121.7070 -181.7120  319.9250 O.co2 112  GLU112     -0.2457
     76  OE2     -120.8810 -183.4390  318.8310 O.co2 112  GLU112     -0.2457
     77  N       -125.2840 -179.5030  317.2990 N.am  113  HIS113     -0.1959
     78  CA      -124.8360 -178.3390  316.5630 C.3   113  HIS113      0.1787
     79  C       -123.4670 -177.8450  317.0650 C.2   113  HIS113      0.2620
     80  O       -123.2620 -177.6930  318.2740 O.2   113  HIS113     -0.2715
     81  CB      -125.8920 -177.2200  316.5750 C.3   113  HIS113      0.0785
     82  CG      -125.4620 -175.9950  315.8310 C.ar  113  HIS113      0.0821
     83  ND1     -125.0060 -174.8670  316.5010 N.ar  113  HIS113     -0.2267
     84  CD2     -125.3690 -175.7820  314.4990 C.ar  113  HIS113      0.1154
     85  CE1     -124.7000 -173.9910  315.5570 C.ar  113  HIS113      0.1986
     86  NE2     -124.8880 -174.5000  314.3360 N.ar  113  HIS113     -0.2212
     87  N       -122.5420 -177.5820  316.1120 N.am  114  VAL114     -0.1977
     88  CA      -121.2060 -177.0270  316.3670 C.3   114  VAL114      0.1596
     89  C       -121.1160 -175.7050  315.6010 C.2   114  VAL114      0.2287
     90  O       -121.3710 -175.6830  314.3970 O.2   114  VAL114     -0.2864
     91  CB      -120.0270 -177.9880  316.0080 C.3   114  VAL114      0.0276
     92  CG1     -118.7470 -177.5720  316.7370 C.3   114  VAL114      0.0022
     93  CG2     -120.3720 -179.4410  316.3180 C.3   114  VAL114      0.0022
     94  N       -119.2090 -173.7360  313.8610 N.3   116  ASN116     -0.1240
     95  CA      -118.0100 -173.6730  313.0320 C.3   116  ASN116      0.1653
     96  C       -117.7670 -172.3260  312.3660 C.2   116  ASN116      0.2266
     97  O       -118.6770 -171.7230  311.7910 O.2   116  ASN116     -0.2867
     98  CB      -118.0080 -174.7950  311.9880 C.3   116  ASN116      0.1155
     99  CG      -116.9960 -174.6490  310.8650 C.2   116  ASN116      0.2627
    100  OD1     -117.3300 -174.2000  309.7520 O.2   116  ASN116     -0.2716
    101  ND2     -115.7480 -175.0450  311.1170 N.am  116  ASN116     -0.0877
    102  N       -114.9130 -179.4530  312.1450 N.3   161  MET161     -0.1245
    103  CA      -115.7740 -178.3450  312.5670 C.3   161  MET161      0.1570
    104  C       -115.2090 -177.7250  313.8200 C.2   161  MET161      0.2261
    105  O       -115.0720 -178.4170  314.8260 O.2   161  MET161     -0.2867
    106  CB      -117.2230 -178.8260  312.7540 C.3   161  MET161      0.0387
    107  CG      -117.8930 -179.2040  311.4530 C.3   161  MET161      0.0595
    108  SD      -118.2830 -177.7720  310.4130 S.3   161  MET161     -0.1393
    109  CE      -117.3020 -178.0900  308.9850 C.3   161  MET161      0.0692
    110  N       -116.1990 -184.6300  311.6310 N.3   172  ILE172     -0.1231
    111  CA      -117.4750 -184.9270  310.9850 C.3   172  ILE172      0.1692
    112  C       -117.3300 -185.7580  309.7110 C.2   172  ILE172      0.2592
    113  O       -116.2100 -186.0680  309.2820 O.2   172  ILE172     -0.2718
    114  CB      -118.3030 -183.6210  310.7230 C.3   172  ILE172      0.0266
    115  CG1     -117.6270 -182.7250  309.6590 C.3   172  ILE172      0.0019
    116  CG2     -118.5680 -182.8530  312.0120 C.3   172  ILE172      0.0020
    117  CD1     -118.5700 -181.8660  308.8730 C.3   172  ILE172      0.0001
    118  N       -118.5020 -186.0610  309.0980 N.am  173  ASP173     -0.1960
    119  CA      -118.7250 -186.7650  307.8420 C.3   173  ASP173      0.1840
    120  C       -118.0260 -188.1040  307.6530 C.2   173  ASP173      0.2622
    121  O       -117.1060 -188.2700  306.8440 O.2   173  ASP173     -0.2715
    122  CB      -118.4950 -185.8640  306.6130 C.3   173  ASP173      0.1450
    123  CG      -119.2220 -186.3650  305.3670 C.2   173  ASP173      0.3671
    124  OD1     -119.5430 -187.5980  305.2990 O.co2 173  ASP173     -0.2456
    125  OD2     -119.4620 -185.5510  304.4660 O.co2 173  ASP173     -0.2456
    126  N       -118.5520 -189.0630  308.3820 N.am  174  TRP174     -0.1974
    127  CA      -118.1110 -190.4440  308.4400 C.3   174  TRP174      0.1640
    128  C       -118.7460 -191.2920  307.3650 C.2   174  TRP174      0.2290
    129  O       -118.8640 -192.5130  307.5380 O.2   174  TRP174     -0.2864
    130  CB      -118.4160 -190.9750  309.8590 C.3   174  TRP174      0.0576
    131  CG      -117.6910 -190.1880  310.9100 C.ar  174  TRP174      0.0006
    132  CD1     -118.0670 -188.9890  311.4460 C.ar  174  TRP174      0.0946
    133  CD2     -116.4280 -190.5210  311.5110 C.ar  174  TRP174      0.0152
    134  NE1     -117.1150 -188.5480  312.3360 N.ar  174  TRP174     -0.2442
    135  CE2     -116.1030 -189.4770  312.4070 C.ar  174  TRP174      0.0810
    136  CE3     -115.5320 -191.6050  311.3740 C.ar  174  TRP174      0.0012
    137  CZ2     -114.9190 -189.4770  313.1600 C.ar  174  TRP174      0.0191
    138  CZ3     -114.3510 -191.5890  312.1020 C.ar  174  TRP174      0.0001
    139  CH2     -114.0610 -190.5400  312.9900 C.ar  174  TRP174      0.0015
@<TRIPOS>BOND
     1     4     3    2
     2     9    10    1
     3     3     2    1
     4   125   123   ar
     5    12    11    2
     6     1     2    1
     7     2     5    1
     8    10    11    1
     9    10    13    1
    10   124   123   ar
    11   123   122    1
    12    13    15    1
    13    13    14    1
    14    39    38   ar
    15    30    31    1
    16    30    29    1
    17    28    29    1
    18    28    27    1
    19    25    26    2
    20    25    24    1
    21     5     6    1
    22   122   119    1
    23   121   120    2
    24    24    27    1
    25    24    23    1
    26    38    40   ar
    27    38    37    1
    28   128   129    2
    29   128   127    1
    30    36    37    1
    31    36    33    1
    32    32    33    1
    33   120   119    1
    34   120   126   am
    35     6     8    1
    36     6     7    1
    37   119   118    1
    38    33    34    1
    39   126   127    1
    40   127   130    1
    41   117   115    1
    42   109   108    1
    43   118   112   am
    44   113   112    2
    45    34    35    2
    46   115   114    1
    47   112   111    1
    48   100    99    2
    49   130   131    1
    50    21    20    1
    51   108   107    1
    52    66    67   ar
    53    66    64   ar
    54   114   111    1
    55   114   116    1
    56    99   101   am
    57    99    98    1
    58   131   132   ar
    59   131   133   ar
    60   111   110    1
    61    67    65   ar
    62   136   133   ar
    63   136   138   ar
    64    18    19    2
    65    18    17    1
    66   132   134   ar
    67   107   106    1
    68   133   135   ar
    69    64    62   ar
    70    47    46    1
    71    97    96    2
    72    20    17    1
    73    20    22    1
    74    98    95    1
    75    17    16    1
    76   138   139   ar
    77   102   103    1
    78    65    63   ar
    79   134   135   ar
    80    96    95    1
    81   135   137   ar
    82    46    48    1
    83    46    45    1
    84   103   106    1
    85   103   104    1
    86    62    63   ar
    87    62    61    1
    88   139   137   ar
    89    95    94    1
    90    41    42    1
    91    55    53    1
    92    45    42    1
    93    61    58    1
    94   104   105    2
    95    57    58    1
    96    42    43    1
    97    86    84   ar
    98    86    85   ar
    99    54    53    1
   100    54    56    1
   101    90    89    2
   102    53    50    1
   103    84    82   ar
   104    58    59    1
   105    60    59    2
   106    85    83   ar
   107    89    88    1
   108    43    44    2
   109    59    68   am
   110    71    70    2
   111    82    83   ar
   112    82    81    1
   113    50    49    1
   114    50    51    1
   115    91    93    1
   116    91    88    1
   117    91    92    1
   118    87    88    1
   119    87    79   am
   120    52    51    2
   121    78    81    1
   122    78    79    1
   123    78    77    1
   124    68    69    1
   125    70    77   am
   126    70    69    1
   127    79    80    2
   128    69    72    1
   129    73    72    1
   130    73    74    1
   131    76    74   ar
   132    74    75   ar
