@<TRIPOS>MOLECULE
tmp/5mowA00.pdb
 91 85 0 0 0
SMALL
GASTEIGER

@<TRIPOS>ATOM
      1  N          8.4810  125.0810  361.0370 N.3    46  LEU46      -0.1245
      2  CA         7.9810  126.2790  360.3540 C.3    46  LEU46       0.1561
      3  C          8.8490  126.6490  359.1600 C.2    46  LEU46       0.2260
      4  O          8.3840  127.3310  358.2470 O.2    46  LEU46      -0.2867
      5  CB         7.8920  127.4850  361.3100 C.3    46  LEU46       0.0270
      6  CG         7.0320  127.3370  362.5590 C.3    46  LEU46       0.0019
      7  CD1        7.1750  128.5360  363.4450 C.3    46  LEU46       0.0001
      8  CD2        5.5840  127.1650  362.2070 C.3    46  LEU46       0.0001
      9  N         13.5710  126.2420  362.4060 N.3    54  VAL54      -0.1245
     10  CA        12.5420  126.9730  363.1430 C.3    54  VAL54       0.1561
     11  C         11.3140  126.0670  363.4100 C.2    54  VAL54       0.2260
     12  O         10.8140  125.4060  362.5060 O.2    54  VAL54      -0.2867
     13  CB        12.2140  128.3090  362.4330 C.3    54  VAL54       0.0252
     14  CG1       11.1890  129.1280  363.2090 C.3    54  VAL54       0.0019
     15  CG2       13.4900  129.1350  362.2260 C.3    54  VAL54       0.0019
     16  N          7.9290  130.1170  369.5050 N.3    67  VAL67      -0.1245
     17  CA         8.7160  129.7140  368.3610 C.3    67  VAL67       0.1561
     18  C         10.1320  129.3760  368.8470 C.2    67  VAL67       0.2260
     19  O         10.7460  130.1860  369.5370 O.2    67  VAL67      -0.2867
     20  CB         8.6620  130.7730  367.2380 C.3    67  VAL67       0.0252
     21  CG1        9.8000  130.5770  366.2340 C.3    67  VAL67       0.0019
     22  CG2        7.3080  130.7430  366.5420 C.3    67  VAL67       0.0019
     23  N         10.8070  141.3710  367.5250 N.3    96  ILE96      -0.1245
     24  CA        10.4900  140.0380  368.0560 C.3    96  ILE96       0.1561
     25  C         11.0970  139.8850  369.4820 C.2    96  ILE96       0.2260
     26  O         12.2770  140.2440  369.7130 O.2    96  ILE96      -0.2867
     27  CB        10.9450  138.9330  367.0860 C.3    96  ILE96       0.0252
     28  CG1       10.2240  137.5770  367.4130 C.3    96  ILE96       0.0019
     29  CG2       12.4760  138.7740  367.0300 C.3    96  ILE96       0.0019
     30  CD1        8.7570  137.5660  367.1080 C.3    96  ILE96       0.0001
     31  N         11.2770  132.4280  371.0790 N.3   114  PHE114     -0.1227
     32  CA        10.6060  133.6830  370.7530 C.3   114  PHE114      0.1736
     33  C          9.1260  133.6070  370.9610 C.2   114  PHE114      0.2595
     34  O          8.5340  132.5170  370.9060 O.2   114  PHE114     -0.2718
     35  CB        10.8670  134.0520  369.2660 C.3   114  PHE114      0.0547
     36  CG        12.3130  134.2420  368.8790 C.ar  114  PHE114     -0.0202
     37  CD1       12.9390  135.4640  369.0710 C.ar  114  PHE114     -0.0042
     38  CD2       13.0340  133.2100  368.2770 C.ar  114  PHE114     -0.0042
     39  CE1       14.2600  135.6460  368.6940 C.ar  114  PHE114     -0.0003
     40  CE2       14.3600  133.3960  367.8990 C.ar  114  PHE114     -0.0003
     41  CZ        14.9660  134.6080  368.1250 C.ar  114  PHE114     -0.0000
     42  N          8.4990  134.7830  371.1120 N.am  115  GLU115     -0.1965
     43  CA         7.0500  134.9110  371.1160 C.3   115  GLU115      0.1733
     44  C          6.5570  134.4100  369.7240 C.2   115  GLU115      0.2616
     45  O          7.2610  134.5270  368.6990 O.2   115  GLU115     -0.2715
     46  CB         6.6120  136.3670  371.3470 C.3   115  GLU115      0.0429
     47  CG         7.2360  137.3500  370.3660 C.3   115  GLU115      0.1163
     48  CD         6.5960  138.7100  370.1750 C.2   115  GLU115      0.3649
     49  OE1        5.3460  138.7910  370.1200 O.co2 115  GLU115     -0.2457
     50  OE2        7.3600  139.6890  369.9920 O.co2 115  GLU115     -0.2457
     51  N          5.4110  133.7500  369.7280 N.am  116  HIS116     -0.1959
     52  CA         4.8390  133.2090  368.5160 C.3   116  HIS116      0.1787
     53  C          4.0720  134.2950  367.8160 C.2   116  HIS116      0.2620
     54  O          3.3790  135.0850  368.4630 O.2   116  HIS116     -0.2715
     55  CB         3.9170  132.0080  368.8270 C.3   116  HIS116      0.0785
     56  CG         3.1710  131.5040  367.6270 C.ar  116  HIS116      0.0821
     57  ND1        1.9100  131.9850  367.3080 N.ar  116  HIS116     -0.2267
     58  CD2        3.5480  130.6130  366.6840 C.ar  116  HIS116      0.1154
     59  CE1        1.5560  131.3550  366.1980 C.ar  116  HIS116      0.1986
     60  NE2        2.5110  130.5270  365.7830 N.ar  116  HIS116     -0.2212
     61  N          4.1420  134.2960  366.4840 N.am  117  VAL117     -0.1977
     62  CA         3.3570  135.2080  365.6890 C.3   117  VAL117      0.1596
     63  C          2.5340  134.3650  364.6740 C.2   117  VAL117      0.2287
     64  O          3.0940  133.5510  363.9390 O.2   117  VAL117     -0.2864
     65  CB         4.2030  136.2790  364.9670 C.3   117  VAL117      0.0276
     66  CG1        3.2910  137.2770  364.2460 C.3   117  VAL117      0.0022
     67  CG2        5.1350  137.0170  365.9330 C.3   117  VAL117      0.0022
     68  N          1.4830  134.3090  361.6040 N.3   119  ASN119     -0.1240
     69  CA         1.8030  134.8780  360.2980 C.3   119  ASN119      0.1653
     70  C          1.0320  134.2750  359.1110 C.2   119  ASN119      0.2266
     71  O          0.7570  133.0740  359.0840 O.2   119  ASN119     -0.2867
     72  CB         3.3090  134.7080  360.0500 C.3   119  ASN119      0.1155
     73  CG         3.8290  135.2900  358.7470 C.2   119  ASN119      0.2627
     74  OD1        4.3820  134.5770  357.9060 O.2   119  ASN119     -0.2716
     75  ND2        3.6680  136.5960  358.5440 N.am  119  ASN119     -0.0877
     76  N          6.9680  139.3560  360.1360 N.3   164  MET164     -0.1245
     77  CA         5.8300  138.4870  360.4950 C.3   164  MET164      0.1570
     78  C          4.6250  139.3540  360.7490 C.2   164  MET164      0.2261
     79  O          4.7080  140.3150  361.5010 O.2   164  MET164     -0.2867
     80  CB         6.1610  137.6280  361.7230 C.3   164  MET164      0.0387
     81  CG         7.3030  136.6130  361.4940 C.3   164  MET164      0.0595
     82  SD         6.9520  135.2500  360.3440 S.3   164  MET164     -0.1393
     83  CE         7.8050  135.7670  358.9170 C.3   164  MET164      0.0692
     84  N         11.7460  140.0610  362.5530 N.3   175  ILE175     -0.1245
     85  CA        12.4580  138.8920  363.0440 C.3   175  ILE175      0.1561
     86  C         13.8250  138.6890  362.3980 C.2   175  ILE175      0.2260
     87  O         14.2330  139.4660  361.5290 O.2   175  ILE175     -0.2867
     88  CB        11.5470  137.6010  362.8950 C.3   175  ILE175      0.0252
     89  CG1       11.3360  137.2020  361.3800 C.3   175  ILE175      0.0019
     90  CG2       10.2160  137.7700  363.5600 C.3   175  ILE175      0.0019
     91  CD1       11.1310  135.6600  361.1430 C.3   175  ILE175      0.0001
@<TRIPOS>BOND
     1    74    73    2
     2     4     3    2
     3    75    73   am
     4    73    72    1
     5    83    82    1
     6    71    70    2
     7    70    69    1
     8     3     2    1
     9    72    69    1
    10    76    77    1
    11    69    68    1
    12    82    81    1
    13     2     1    1
    14     2     5    1
    15    77    78    1
    16    77    80    1
    17    78    79    2
    18    91    89    1
    19     5     6    1
    20    89    88    1
    21    81    80    1
    22    87    86    2
    23     8     6    1
    24    15    13    1
    25    86    85    1
    26     9    10    1
    27    13    10    1
    28    13    14    1
    29    12    11    2
    30    84    85    1
    31     6     7    1
    32    88    85    1
    33    88    90    1
    34    10    11    1
    35    64    63    2
    36    66    65    1
    37    63    62    1
    38    65    62    1
    39    65    67    1
    40    62    61    1
    41    60    59   ar
    42    60    58   ar
    43    59    57   ar
    44    21    20    1
    45    61    53   am
    46    22    20    1
    47    58    56   ar
    48    29    27    1
    49    27    28    1
    50    27    24    1
    51    30    28    1
    52    20    17    1
    53    57    56   ar
    54    23    24    1
    55    56    55    1
    56    53    54    2
    57    53    52    1
    58    40    41   ar
    59    40    38   ar
    60    24    25    1
    61    41    39   ar
    62    38    36   ar
    63    17    18    1
    64    17    16    1
    65    52    55    1
    66    52    51    1
    67    39    37   ar
    68    45    44    2
    69    18    19    2
    70    36    37   ar
    71    36    35    1
    72    35    32    1
    73    25    26    2
    74    44    51   am
    75    44    43    1
    76    50    48   ar
    77    49    48   ar
    78    48    47    1
    79    47    46    1
    80    32    33    1
    81    32    31    1
    82    34    33    2
    83    33    42   am
    84    42    43    1
    85    43    46    1
