@<TRIPOS>MOLECULE
tmp/5moyA00.pdb
 165 166 0 0 0
SMALL
GASTEIGER

@<TRIPOS>ATOM
      1  N        -21.1890    2.2000  -43.8050 N.3    74  TRP74      -0.1241
      2  CA       -21.2360    1.7940  -42.4140 C.3    74  TRP74       0.1605
      3  C        -22.6560    1.3700  -42.0980 C.2    74  TRP74       0.2264
      4  O        -23.6100    1.9320  -42.6320 O.2    74  TRP74      -0.2867
      5  CB       -20.7970    2.9400  -41.5140 C.3    74  TRP74       0.0550
      6  CG       -19.3630    3.2580  -41.6450 C.ar   74  TRP74       0.0003
      7  CD1      -18.7710    3.9640  -42.6390 C.ar   74  TRP74       0.0946
      8  CD2      -18.3260    2.8850  -40.7440 C.ar   74  TRP74       0.0152
      9  NE1      -17.4320    4.0550  -42.4200 N.ar   74  TRP74      -0.2442
     10  CE2      -17.1290    3.4010  -41.2550 C.ar   74  TRP74       0.0810
     11  CE3      -18.2970    2.1700  -39.5460 C.ar   74  TRP74       0.0012
     12  CZ2      -15.9040    3.2200  -40.6110 C.ar   74  TRP74       0.0191
     13  CZ3      -17.0920    1.9860  -38.9190 C.ar   74  TRP74       0.0001
     14  CH2      -15.9120    2.5150  -39.4440 C.ar   74  TRP74       0.0015
     15  N        -18.6980   -8.2540  -31.3450 N.3   137  ASP137     -0.1239
     16  CA       -18.1800   -7.1160  -32.0830 C.3   137  ASP137      0.1674
     17  C        -19.1810   -6.5470  -33.0840 C.2   137  ASP137      0.2266
     18  O        -18.9650   -5.4440  -33.5920 O.2   137  ASP137     -0.2867
     19  CB       -16.9270   -7.5310  -32.8490 C.3   137  ASP137      0.1410
     20  CG       -15.8560   -8.1120  -31.9510 C.2   137  ASP137      0.3668
     21  OD1      -15.2370   -7.3440  -31.2080 O.co2 137  ASP137     -0.2456
     22  OD2      -15.6260   -9.3380  -31.9980 O.co2 137  ASP137     -0.2456
     23  N        -23.7570   -2.8180  -33.4590 N.3   141  ARG141     -0.1231
     24  CA       -22.6170   -1.9150  -33.4250 C.3   141  ARG141      0.1694
     25  C        -22.2550   -1.5030  -34.8430 C.2   141  ARG141      0.2592
     26  O        -22.3730   -2.3040  -35.7630 O.2   141  ARG141     -0.2718
     27  CB       -21.4210   -2.5820  -32.7400 C.3   141  ARG141      0.0321
     28  CG       -21.7080   -2.9720  -31.3010 C.3   141  ARG141      0.0489
     29  CD       -20.5740   -3.7700  -30.7020 C.3   141  ARG141      0.2205
     30  NE       -19.4860   -2.9390  -30.2020 N.pl3 141  ARG141     -0.0865
     31  CZ       -18.3920   -3.4230  -29.6100 C.cat 141  ARG141      0.5346
     32  NH1      -18.2490   -4.7280  -29.4480 N.pl3 141  ARG141      0.1354
     33  NH2      -17.4350   -2.6090  -29.1870 N.pl3 141  ARG141      0.1354
     34  N        -21.8400   -0.2490  -35.0190 N.am  142  TRP142     -0.1962
     35  CA       -21.4370    0.2190  -36.3330 C.3   142  TRP142      0.1771
     36  C        -20.2720   -0.6020  -36.8390 C.2   142  TRP142      0.2619
     37  O        -19.2370   -0.6940  -36.1850 O.2   142  TRP142     -0.2715
     38  CB       -21.0190    1.6880  -36.3100 C.3   142  TRP142      0.0590
     39  CG       -22.1140    2.6210  -36.1520 C.ar  142  TRP142      0.0006
     40  CD1      -22.4960    3.2700  -34.9950 C.ar  142  TRP142      0.0946
     41  CD2      -23.0290    3.0180  -37.1620 C.ar  142  TRP142      0.0152
     42  NE1      -23.5850    4.0560  -35.2450 N.ar  142  TRP142     -0.2442
     43  CE2      -23.9330    3.9190  -36.5720 C.ar  142  TRP142      0.0810
     44  CE3      -23.1840    2.6880  -38.5140 C.ar  142  TRP142      0.0012
     45  CZ2      -24.9730    4.5030  -37.2940 C.ar  142  TRP142      0.0191
     46  CZ3      -24.2100    3.2870  -39.2320 C.ar  142  TRP142      0.0001
     47  CH2      -25.0800    4.1920  -38.6190 C.ar  142  TRP142      0.0015
     48  N        -20.4210   -1.1650  -38.0320 N.am  143  ILE143     -0.1977
     49  CA       -19.3110   -1.8360  -38.6700 C.3   143  ILE143      0.1596
     50  C        -19.1380   -1.3130  -40.0890 C.2   143  ILE143      0.2287
     51  O        -20.0780   -0.8110  -40.7120 O.2   143  ILE143     -0.2864
     52  CB       -19.5250   -3.3430  -38.6350 C.3   143  ILE143      0.0276
     53  CG1      -20.9220   -3.6710  -39.1120 C.3   143  ILE143      0.0022
     54  CG2      -19.2760   -3.8470  -37.1890 C.3   143  ILE143      0.0022
     55  CD1      -21.1600   -5.1230  -39.2310 C.3   143  ILE143      0.0001
     56  N        -14.8450   -4.2070  -41.3970 N.3   160  ASN160     -0.1240
     57  CA       -13.8470   -3.4240  -40.6880 C.3   160  ASN160      0.1653
     58  C        -12.4540   -3.6650  -41.2620 C.2   160  ASN160      0.2266
     59  O        -11.5020   -3.9350  -40.5410 O.2   160  ASN160     -0.2867
     60  CB       -13.8670   -3.7460  -39.2020 C.3   160  ASN160      0.1155
     61  CG       -15.1000   -3.2460  -38.5180 C.2   160  ASN160      0.2627
     62  OD1      -15.7390   -2.2920  -38.9680 O.2   160  ASN160     -0.2716
     63  ND2      -15.4410   -3.8790  -37.4070 N.am  160  ASN160     -0.0877
     64  N        -24.4980    4.8070  -42.7830 N.3   198  LYS198     -0.1231
     65  CA       -23.8570    6.0890  -43.0510 C.3   198  LYS198      0.1693
     66  C        -22.7510    5.9090  -44.0890 C.2   198  LYS198      0.2592
     67  O        -22.2350    4.8070  -44.2980 O.2   198  LYS198     -0.2718
     68  CB       -23.3210    6.7610  -41.7570 C.3   198  LYS198      0.0285
     69  CG       -22.1560    6.0850  -41.0090 C.3   198  LYS198      0.0035
     70  CD       -21.7370    6.8690  -39.6980 C.3   198  LYS198      0.0206
     71  CE       -20.8420    6.0410  -38.7030 C.3   198  LYS198      0.1093
     72  NZ       -20.6290    6.6600  -37.3520 N.3   198  LYS198     -0.1314
     73  N        -22.4400    7.0170  -44.7650 N.am  199  TYR199     -0.1976
     74  CA       -21.3510    7.1560  -45.7550 C.3   199  TYR199      0.1639
     75  C        -21.3520    6.0340  -46.7920 C.2   199  TYR199      0.2290
     76  O        -20.3760    5.3000  -46.9420 O.2   199  TYR199     -0.2864
     77  CB       -19.9580    7.2450  -45.0920 C.3   199  TYR199      0.0560
     78  CG       -19.8680    8.1570  -43.8870 C.ar  199  TYR199     -0.0198
     79  CD1      -20.1370    9.5260  -43.9760 C.ar  199  TYR199     -0.0009
     80  CD2      -19.5420    7.6350  -42.6430 C.ar  199  TYR199     -0.0009
     81  CE1      -20.0820   10.3310  -42.8460 C.ar  199  TYR199      0.0417
     82  CE2      -19.4840    8.4250  -41.5240 C.ar  199  TYR199      0.0417
     83  CZ       -19.7570    9.7640  -41.6170 C.ar  199  TYR199      0.1957
     84  OH       -19.6850   10.5130  -40.4560 O.3   199  TYR199     -0.2866
     85  N        -11.5610    2.8070  -44.0390 N.3   216  TYR216     -0.1241
     86  CA       -11.9610    2.4090  -42.6990 C.3   216  TYR216      0.1605
     87  C        -11.4730    3.4050  -41.6560 C.2   216  TYR216      0.2264
     88  O        -12.2510    3.8480  -40.8000 O.2   216  TYR216     -0.2867
     89  CB       -11.4340    1.0050  -42.4160 C.3   216  TYR216      0.0534
     90  CG       -11.7710    0.4640  -41.0390 C.ar  216  TYR216     -0.0201
     91  CD1      -13.0420    0.6010  -40.5040 C.ar  216  TYR216     -0.0009
     92  CD2      -10.8170   -0.2030  -40.2880 C.ar  216  TYR216     -0.0009
     93  CE1      -13.3460    0.0880  -39.2510 C.ar  216  TYR216      0.0417
     94  CE2      -11.1100   -0.7110  -39.0500 C.ar  216  TYR216      0.0417
     95  CZ       -12.3590   -0.5580  -38.5300 C.ar  216  TYR216      0.1957
     96  OH       -12.6070   -1.0640  -37.2960 O.3   216  TYR216     -0.2866
     97  N        -12.8250    7.4030  -42.0630 N.3   219  GLN219     -0.1231
     98  CA       -14.2410    7.5340  -41.7450 C.3   219  GLN219      0.1698
     99  C        -14.5470    7.1520  -40.3020 C.2   219  GLN219      0.2593
    100  O        -15.6960    7.2960  -39.8730 O.2   219  GLN219     -0.2718
    101  CB       -15.0670    6.6850  -42.7160 C.3   219  GLN219      0.0381
    102  CG       -14.8700    7.0880  -44.1680 C.3   219  GLN219      0.0905
    103  CD       -15.9430    6.5520  -45.0830 C.2   219  GLN219      0.2608
    104  OE1      -16.5280    5.5030  -44.8230 O.2   219  GLN219     -0.2717
    105  NE2      -16.2160    7.2800  -46.1630 N.am  219  GLN219     -0.0878
    106  N        -13.5340    6.6820  -39.5560 N.am  220  SER220     -0.1938
    107  CA       -13.6680    6.3600  -38.1400 C.3   220  SER220      0.2055
    108  C        -13.9000    7.5980  -37.2790 C.2   220  SER220      0.2643
    109  O        -14.4410    7.4590  -36.1800 O.2   220  SER220     -0.2714
    110  CB       -12.4130    5.6340  -37.6270 C.3   220  SER220      0.2130
    111  OG       -12.3290    4.2720  -38.0440 O.3   220  SER220     -0.2179
    112  N        -13.5080    8.7950  -37.7480 N.am  221  ASN221     -0.1971
    113  CA       -13.6190   10.0420  -36.9780 C.3   221  ASN221      0.1688
    114  C        -12.7520    9.9510  -35.7170 C.2   221  ASN221      0.2292
    115  O        -13.2350    9.9890  -34.5770 O.2   221  ASN221     -0.2864
    116  CB       -15.0800   10.3680  -36.6170 C.3   221  ASN221      0.1181
    117  CG       -16.0510   10.2160  -37.7940 C.2   221  ASN221      0.2629
    118  OD1      -17.2090    9.8210  -37.6080 O.2   221  ASN221     -0.2716
    119  ND2      -15.5860   10.5300  -39.0000 N.am  221  ASN221     -0.0877
    120  N        -15.8090    7.3380  -29.0080 N.3   226  LYS226     -0.1231
    121  CA       -17.0080    6.5880  -29.3270 C.3   226  LYS226      0.1693
    122  C        -17.4420    5.7540  -28.1330 C.2   226  LYS226      0.2592
    123  O        -16.6110    5.2370  -27.3990 O.2   226  LYS226     -0.2718
    124  CB       -16.7720    5.6400  -30.5070 C.3   226  LYS226      0.0285
    125  CG       -16.1130    6.2310  -31.7450 C.3   226  LYS226      0.0035
    126  CD       -16.8860    7.3960  -32.3060 C.3   226  LYS226      0.0206
    127  CE       -16.3960    7.7290  -33.6960 C.3   226  LYS226      0.1093
    128  NZ       -14.9160    7.9210  -33.7380 N.3   226  LYS226     -0.1314
    129  N        -18.7490    5.5720  -27.9900 N.am  227  ASP227     -0.1960
    130  CA       -19.2650    4.5930  -27.0550 C.3   227  ASP227      0.1840
    131  C        -19.2150    3.1910  -27.6640 C.2   227  ASP227      0.2622
    132  O        -18.7540    2.9700  -28.7800 O.2   227  ASP227     -0.2715
    133  CB       -20.6910    4.9490  -26.6190 C.3   227  ASP227      0.1450
    134  CG       -21.7120    4.8520  -27.7460 C.2   227  ASP227      0.3671
    135  OD1      -21.4640    4.1570  -28.7670 O.co2 227  ASP227     -0.2456
    136  OD2      -22.8020    5.4550  -27.5840 O.co2 227  ASP227     -0.2456
    137  N        -19.7490    2.2350  -26.9250 N.am  228  PHE228     -0.1960
    138  CA       -19.6480    0.8330  -27.3010 C.3   228  PHE228      0.1771
    139  C        -20.2940    0.5430  -28.6590 C.2   228  PHE228      0.2620
    140  O        -19.7870   -0.2820  -29.4240 O.2   228  PHE228     -0.2715
    141  CB       -20.3030    0.0240  -26.2030 C.3   228  PHE228      0.0574
    142  CG       -20.3880   -1.4370  -26.4640 C.ar  228  PHE228     -0.0200
    143  CD1      -19.3240   -2.2540  -26.1730 C.ar  228  PHE228     -0.0042
    144  CD2      -21.5690   -2.0090  -26.9310 C.ar  228  PHE228     -0.0042
    145  CE1      -19.4080   -3.6170  -26.3590 C.ar  228  PHE228     -0.0003
    146  CE2      -21.6660   -3.3690  -27.1260 C.ar  228  PHE228     -0.0003
    147  CZ       -20.5740   -4.1840  -26.8410 C.ar  228  PHE228     -0.0000
    148  N        -21.4270    1.1820  -28.9600 N.am  229  TRP229     -0.1960
    149  CA       -22.1290    0.9330  -30.2060 C.3   229  TRP229      0.1771
    150  C        -21.4530    1.5930  -31.4070 C.2   229  TRP229      0.2620
    151  O        -21.8180    1.3070  -32.5520 O.2   229  TRP229     -0.2715
    152  CB       -23.5620    1.4190  -30.0700 C.3   229  TRP229      0.0590
    153  CG       -24.2070    0.9560  -28.8340 C.ar  229  TRP229      0.0006
    154  CD1      -24.5880    1.7220  -27.7600 C.ar  229  TRP229      0.0946
    155  CD2      -24.5250   -0.3860  -28.4980 C.ar  229  TRP229      0.0152
    156  NE1      -25.1240    0.9280  -26.7890 N.ar  229  TRP229     -0.2442
    157  CE2      -25.1090   -0.3700  -27.2200 C.ar  229  TRP229      0.0810
    158  CE3      -24.3800   -1.6030  -29.1550 C.ar  229  TRP229      0.0012
    159  CZ2      -25.5490   -1.5190  -26.5940 C.ar  229  TRP229      0.0191
    160  CZ3      -24.8190   -2.7490  -28.5260 C.ar  229  TRP229      0.0001
    161  CH2      -25.3860   -2.6990  -27.2530 C.ar  229  TRP229      0.0015
    162  N        -20.4720    2.4530  -31.1780 N.am  230  GLY230     -0.1954
    163  CA       -19.8560    3.2080  -32.2450 C.3   230  GLY230      0.1869
    164  C        -20.3820    4.6100  -32.3960 C.2   230  GLY230      0.2309
    165  O        -19.9090    5.3460  -33.2670 O.2   230  GLY230     -0.2863
@<TRIPOS>BOND
     1    76    75    2
     2    75    74    1
     3   105   103   am
     4    74    77    1
     5    74    73    1
     6    77    78    1
     7   103   104    2
     8   103   102    1
     9    73    66   am
    10    67    66    2
    11   102   101    1
    12    66    65    1
    13    85    86    1
    14    79    78   ar
    15    79    81   ar
    16    78    80   ar
    17     1     2    1
    18    65    64    1
    19    65    68    1
    20    81    83   ar
    21   101    98    1
    22    86    89    1
    23    86    87    1
    24    80    82   ar
    25     7     9   ar
    26     7     6   ar
    27     4     3    2
    28     9    10   ar
    29    89    90    1
    30     2     3    1
    31     2     5    1
    32    97    98    1
    33    68    69    1
    34    98    99    1
    35    87    88    2
    36     6     5    1
    37     6     8   ar
    38    83    82   ar
    39    83    84    1
    40    56    57    1
    41    58    57    1
    42    58    59    2
    43    10     8   ar
    44    10    12   ar
    45    90    91   ar
    46    90    92   ar
    47    69    70    1
    48     8    11   ar
    49    51    50    2
    50    57    60    1
    51    12    14   ar
    52    91    93   ar
    53    99   100    2
    54    99   106   am
    55    92    94   ar
    56    50    49    1
    57    70    71    1
    58   106   107    1
    59    11    13   ar
    60    14    13   ar
    61    93    95   ar
    62    46    47   ar
    63    46    44   ar
    64    55    53    1
    65    60    61    1
    66    53    52    1
    67    94    95   ar
    68   119   117   am
    69    62    61    2
    70    71    72    1
    71    49    52    1
    72    49    48    1
    73    52    54    1
    74    47    45   ar
    75    95    96    1
    76    61    63   am
    77    44    41   ar
    78   107   110    1
    79   107   108    1
    80   111   110    1
    81    48    36   am
    82   117   118    2
    83   117   116    1
    84   112   108   am
    85   112   113    1
    86    45    43   ar
    87   108   109    2
    88    41    43   ar
    89    41    39   ar
    90   113   116    1
    91   113   114    1
    92    36    35    1
    93    36    37    2
    94    43    42   ar
    95    35    38    1
    96    35    34    1
    97    38    39    1
    98    39    40   ar
    99    26    25    2
   100   114   115    2
   101    42    40   ar
   102    34    25   am
   103    25    24    1
   104   128   127    1
   105   127   126    1
   106    18    17    2
   107    23    24    1
   108    24    27    1
   109   165   164    2
   110    17    16    1
   111    19    16    1
   112    19    20    1
   113    27    28    1
   114   151   150    2
   115   164   163    1
   116   126   125    1
   117   163   162    1
   118    16    15    1
   119    22    20   ar
   120    20    21   ar
   121   125   124    1
   122   150   162   am
   123   150   149    1
   124    28    29    1
   125    29    30    1
   126   124   121    1
   127   149   152    1
   128   149   148    1
   129    30    31    2
   130   152   153    1
   131    31    32    1
   132    31    33    1
   133   140   139    2
   134   121   120    1
   135   121   122    1
   136   158   160   ar
   137   158   155   ar
   138   148   139   am
   139   153   155   ar
   140   153   154   ar
   141   132   131    2
   142   135   134   ar
   143   139   138    1
   144   160   161   ar
   145   155   157   ar
   146   122   129   am
   147   122   123    2
   148   129   130    1
   149   154   156   ar
   150   134   136   ar
   151   134   133    1
   152   131   130    1
   153   131   137   am
   154   138   137    1
   155   138   141    1
   156   161   159   ar
   157   157   156   ar
   158   157   159   ar
   159   146   144   ar
   160   146   147   ar
   161   130   133    1
   162   144   142   ar
   163   147   145   ar
   164   142   141    1
   165   142   143   ar
   166   145   143   ar
