@<TRIPOS>MOLECULE
tmp/5mp8A01.pdb
 146 140 0 0 0
SMALL
GASTEIGER

@<TRIPOS>ATOM
      1  N          2.0360  132.6990  357.2580 N.3   116  ASN116     -0.1225
      2  CA         2.4380  133.2730  355.9790 C.3   116  ASN116      0.1785
      3  C          1.4830  133.0290  354.8200 C.2   116  ASN116      0.2597
      4  O          1.1510  131.8890  354.5110 O.2   116  ASN116     -0.2718
      5  CB         3.8610  132.8100  355.5990 C.3   116  ASN116      0.1169
      6  CG         4.4760  133.5980  354.4660 C.2   116  ASN116      0.2627
      7  OD1        5.2170  133.0590  353.6320 O.2   116  ASN116     -0.2716
      8  ND2        4.2240  134.9000  354.4370 N.am  116  ASN116     -0.0877
      9  N          1.0690  134.1250  354.1720 N.am  117  THR117     -0.1953
     10  CA         0.2080  134.1280  352.9930 C.3   117  THR117      0.1897
     11  C          1.0970  133.8930  351.7520 C.2   117  THR117      0.2313
     12  O          2.1780  134.4930  351.6370 O.2   117  THR117     -0.2863
     13  CB        -0.6230  135.4290  352.9180 C.3   117  THR117      0.1794
     14  OG1       -1.2540  135.6880  354.1840 O.3   117  THR117     -0.2208
     15  CG2       -1.6790  135.3820  351.8230 C.3   117  THR117      0.0378
     16  N          3.0040  133.9960  348.3420 N.3   119  PHE119     -0.1241
     17  CA         3.5330  135.0840  347.5070 C.3   119  PHE119      0.1605
     18  C          2.6920  135.2590  346.2360 C.2   119  PHE119      0.2264
     19  O          2.3430  136.3930  345.9140 O.2   119  PHE119     -0.2867
     20  CB         5.0140  134.8240  347.1670 C.3   119  PHE119      0.0534
     21  CG         5.8370  135.8400  346.3840 C.ar  119  PHE119     -0.0203
     22  CD1        5.3490  137.1230  346.1260 C.ar  119  PHE119     -0.0042
     23  CD2        7.1150  135.5260  345.9410 C.ar  119  PHE119     -0.0042
     24  CE1        6.1110  138.0490  345.3880 C.ar  119  PHE119     -0.0003
     25  CE2        7.8750  136.4500  345.2170 C.ar  119  PHE119     -0.0003
     26  CZ         7.3690  137.7060  344.9430 C.ar  119  PHE119     -0.0000
     27  N         -0.9410  136.4740  347.2960 N.3   122  LEU122     -0.1231
     28  CA        -0.8680  137.8610  347.7520 C.3   122  LEU122      0.1693
     29  C         -0.7160  138.7870  346.5450 C.2   122  LEU122      0.2592
     30  O         -1.4670  139.7500  346.3990 O.2   122  LEU122     -0.2718
     31  CB         0.3180  138.0160  348.7250 C.3   122  LEU122      0.0284
     32  CG         0.2080  139.0740  349.8260 C.3   122  LEU122      0.0019
     33  CD1       -0.9810  138.8410  350.7290 C.3   122  LEU122      0.0001
     34  CD2        1.4490  139.0670  350.6780 C.3   122  LEU122      0.0001
     35  N          0.1900  138.4240  345.6430 N.am  123  TYR123     -0.1976
     36  CA         0.5130  139.1070  344.3930 C.3   123  TYR123      0.1639
     37  C         -0.7070  139.3700  343.5050 C.2   123  TYR123      0.2290
     38  O         -0.7220  140.3780  342.8160 O.2   123  TYR123     -0.2864
     39  CB         1.5470  138.2580  343.6410 C.3   123  TYR123      0.0560
     40  CG         2.0820  138.8230  342.3490 C.ar  123  TYR123     -0.0198
     41  CD1        3.1330  139.7390  342.3470 C.ar  123  TYR123     -0.0009
     42  CD2        1.6390  138.3380  341.1200 C.ar  123  TYR123     -0.0009
     43  CE1        3.6860  140.2020  341.1530 C.ar  123  TYR123      0.0417
     44  CE2        2.1750  138.8000  339.9250 C.ar  123  TYR123      0.0417
     45  CZ         3.2020  139.7270  339.9460 C.ar  123  TYR123      0.1957
     46  OH         3.7410  140.1430  338.7590 O.3   123  TYR123     -0.2866
     47  N         -3.5180  141.9120  345.9870 N.3   126  LEU126     -0.1245
     48  CA        -3.1600  143.2050  346.5700 C.3   126  LEU126      0.1561
     49  C         -3.6340  144.3890  345.7400 C.2   126  LEU126      0.2260
     50  O         -3.5940  144.3570  344.5110 O.2   126  LEU126     -0.2867
     51  CB        -1.6620  143.3220  346.9090 C.3   126  LEU126      0.0270
     52  CG        -1.0990  142.4400  348.0480 C.3   126  LEU126      0.0019
     53  CD1        0.1830  143.0110  348.5750 C.3   126  LEU126      0.0001
     54  CD2       -2.0820  142.2520  349.2160 C.3   126  LEU126      0.0001
     55  N         -0.3710  147.6860  349.0490 N.3   131  ILE131     -0.1245
     56  CA         1.0430  147.9140  348.7340 C.3   131  ILE131      0.1561
     57  C          1.5950  149.0680  349.5880 C.2   131  ILE131      0.2260
     58  O          2.6320  148.8920  350.2160 O.2   131  ILE131     -0.2867
     59  CB         1.3290  148.0600  347.2170 C.3   131  ILE131      0.0252
     60  CG1        0.8560  146.7700  346.4560 C.3   131  ILE131      0.0019
     61  CG2        2.8370  148.3060  346.9700 C.3   131  ILE131      0.0019
     62  CD1        0.7220  146.8920  344.9210 C.3   131  ILE131      0.0001
     63  N          1.7250  147.8670  353.3740 N.3   134  TYR134     -0.1227
     64  CA         2.8270  146.9380  353.6490 C.3   134  TYR134      0.1736
     65  C          4.2060  147.5770  353.4440 C.2   134  TYR134      0.2595
     66  O          5.1070  147.2600  354.2240 O.2   134  TYR134     -0.2718
     67  CB         2.6760  145.6190  352.9010 C.3   134  TYR134      0.0548
     68  CG         1.5410  144.7680  353.4430 C.ar  134  TYR134     -0.0200
     69  CD1        1.4880  144.4180  354.7920 C.ar  134  TYR134     -0.0009
     70  CD2        0.5400  144.2900  352.6030 C.ar  134  TYR134     -0.0009
     71  CE1        0.4500  143.6470  355.2990 C.ar  134  TYR134      0.0417
     72  CE2       -0.4970  143.4940  353.0980 C.ar  134  TYR134      0.0417
     73  CZ        -0.5420  143.1880  354.4510 C.ar  134  TYR134      0.1957
     74  OH        -1.5350  142.3890  354.9730 O.3   134  TYR134     -0.2866
     75  N          4.3580  148.4920  352.4440 N.am  135  MET135     -0.1979
     76  CA         5.6300  149.2130  352.2460 C.3   135  MET135      0.1605
     77  C          5.9780  150.0200  353.5070 C.2   135  MET135      0.2287
     78  O          7.1210  149.9740  353.9420 O.2   135  MET135     -0.2864
     79  CB         5.5890  150.1190  350.9970 C.3   135  MET135      0.0413
     80  CG         5.7870  149.3510  349.6850 C.3   135  MET135      0.0598
     81  SD         7.4290  148.6220  349.4700 S.3   135  MET135     -0.1393
     82  CE         8.4330  150.1670  349.4000 C.3   135  MET135      0.0692
     83  N          7.2640  147.7360  356.3020 N.3   138  ILE138     -0.1245
     84  CA         8.6460  147.3050  356.0740 C.3   138  ILE138      0.1561
     85  C          9.5700  148.4760  356.4530 C.2   138  ILE138      0.2260
     86  O         10.6160  148.2450  357.0430 O.2   138  ILE138     -0.2867
     87  CB         8.8940  146.8120  354.5980 C.3   138  ILE138      0.0252
     88  CG1        8.0160  145.5530  354.2750 C.3   138  ILE138      0.0019
     89  CG2       10.3900  146.4640  354.3810 C.3   138  ILE138      0.0019
     90  CD1        7.8660  145.2300  352.7780 C.3   138  ILE138      0.0001
     91  N         11.0950  139.6740  348.8250 N.3   157  PRO157     -0.2102
     92  CA         9.7600  139.1860  349.2110 C.3   157  PRO157      0.1504
     93  C          9.7810  137.9560  350.0930 C.2   157  PRO157      0.2575
     94  O          9.0100  137.9080  351.0330 O.2   157  PRO157     -0.2718
     95  CB         9.0910  138.9020  347.8570 C.3   157  PRO157      0.0282
     96  CG         9.7280  139.8890  346.9360 C.3   157  PRO157      0.0208
     97  CD        11.1700  139.9180  347.3660 C.3   157  PRO157      0.0893
     98  N         10.6730  136.9850  349.8160 N.am  158  HIS158     -0.1976
     99  CA        10.7160  135.7570  350.5860 C.3   158  HIS158      0.1656
    100  C         11.1620  135.9620  352.0320 C.2   158  HIS158      0.2291
    101  O         10.8800  135.0990  352.8390 O.2   158  HIS158     -0.2864
    102  CB        11.5270  134.6720  349.8730 C.3   158  HIS158      0.0771
    103  CG        10.7660  134.0930  348.7040 C.ar  158  HIS158      0.0820
    104  ND1       11.3720  133.8950  347.4780 N.ar  158  HIS158     -0.2267
    105  CD2        9.4570  133.7470  348.6000 C.ar  158  HIS158      0.1154
    106  CE1       10.4230  133.4550  346.6670 C.ar  158  HIS158      0.1986
    107  NE2        9.2560  133.3370  347.2990 N.ar  158  HIS158     -0.2212
    108  N         10.1120  138.5190  353.8930 N.3   160  VAL160     -0.1231
    109  CA         9.0630  139.3130  354.4900 C.3   160  VAL160      0.1692
    110  C          7.8180  138.4370  354.6300 C.2   160  VAL160      0.2592
    111  O          7.1560  138.1360  353.6220 O.2   160  VAL160     -0.2718
    112  CB         8.7740  140.6460  353.7450 C.3   160  VAL160      0.0266
    113  CG1        7.6350  141.4020  354.4170 C.3   160  VAL160      0.0020
    114  CG2       10.0170  141.5450  353.6780 C.3   160  VAL160      0.0020
    115  N          7.4900  138.0560  355.8840 N.am  161  MET161     -0.1965
    116  CA         6.3290  137.2220  356.2100 C.3   161  MET161      0.1736
    117  C          5.1170  138.1150  356.3950 C.2   161  MET161      0.2616
    118  O          5.2020  139.1250  357.0820 O.2   161  MET161     -0.2715
    119  CB         6.5680  136.3590  357.4740 C.3   161  MET161      0.0427
    120  CG         7.7210  135.3550  357.3520 C.3   161  MET161      0.0599
    121  SD         7.3950  133.9220  356.3120 S.3   161  MET161     -0.1393
    122  CE         8.2410  134.3660  354.8170 C.3   161  MET161      0.0692
    123  N          4.0160  137.7960  355.7220 N.am  162  ILE162     -0.1977
    124  CA         2.7870  138.5700  355.8290 C.3   162  ILE162      0.1596
    125  C          1.6020  137.6550  356.1370 C.2   162  ILE162      0.2287
    126  O          1.3090  136.7410  355.3630 O.2   162  ILE162     -0.2864
    127  CB         2.4930  139.4570  354.5770 C.3   162  ILE162      0.0276
    128  CG1        3.5390  140.5880  354.4100 C.3   162  ILE162      0.0022
    129  CG2        1.0630  140.0400  354.6360 C.3   162  ILE162      0.0022
    130  CD1        3.5480  141.2430  352.9960 C.3   162  ILE162      0.0001
    131  N         11.6610  145.5730  345.2740 N.3   219  MET219     -0.1245
    132  CA        10.4040  144.9090  345.6740 C.3   219  MET219      0.1570
    133  C          9.2060  145.7840  345.2760 C.2   219  MET219      0.2261
    134  O          8.2260  145.2570  344.7540 O.2   219  MET219     -0.2867
    135  CB        10.3740  144.6960  347.1890 C.3   219  MET219      0.0387
    136  CG        11.1950  143.5400  347.6660 C.3   219  MET219      0.0595
    137  SD        10.9870  143.3720  349.4800 S.3   219  MET219     -0.1393
    138  CE         9.2810  143.3960  349.6680 C.3   219  MET219      0.0692
    139  N          6.0250  144.8890  342.5720 N.3   223  MET223     -0.1245
    140  CA         4.6440  144.9550  343.0300 C.3   223  MET223      0.1570
    141  C          3.7780  145.8850  342.1930 C.2   223  MET223      0.2261
    142  O          2.6830  145.4870  341.7660 O.2   223  MET223     -0.2867
    143  CB         4.5560  145.4010  344.5100 C.3   223  MET223      0.0387
    144  CG         5.0990  144.3850  345.4940 C.3   223  MET223      0.0595
    145  SD         4.5140  142.7110  345.1780 S.3   223  MET223     -0.1393
    146  CE         2.7130  142.8710  345.6480 C.3   223  MET223      0.0692
@<TRIPOS>BOND
     1    46    45    1
     2    44    45   ar
     3    44    42   ar
     4    45    43   ar
     5    42    40   ar
     6    43    41   ar
     7   142   141    2
     8   141   140    1
     9    41    40   ar
    10    40    39    1
    11   139   140    1
    12    38    37    2
    13   140   143    1
    14    37    36    1
    15    39    36    1
    16    36    35    1
    17   143   144    1
    18    50    49    2
    19   134   133    2
    20    62    60    1
    21    26    25   ar
    22    26    24   ar
    23   145   144    1
    24   145   146    1
    25    25    23   ar
    26   131   132    1
    27   133   132    1
    28    24    22   ar
    29    35    29   am
    30   132   135    1
    31    49    48    1
    32    19    18    2
    33    23    21   ar
    34    47    48    1
    35    22    21   ar
    36    18    17    1
    37    21    20    1
    38    30    29    2
    39    60    59    1
    40    29    28    1
    41    48    51    1
    42   106   107   ar
    43   106   104   ar
    44    51    52    1
    45    96    97    1
    46    96    95    1
    47    61    59    1
    48    20    17    1
    49   135   136    1
    50    59    56    1
    51    27    28    1
    52   107   105   ar
    53    97    91    1
    54   104   103   ar
    55    17    16    1
    56   136   137    1
    57    28    31    1
    58    95    92    1
    59    52    53    1
    60    52    54    1
    61   105   103   ar
    62   103   102    1
    63    31    32    1
    64    56    55    1
    65    56    57    1
    66    91    92    1
    67    92    93    1
    68    82    81    1
    69    81    80    1
    70   137   138    1
    71    57    58    2
    72    80    79    1
    73    98    93   am
    74    98    99    1
    75    32    34    1
    76    32    33    1
    77   102    99    1
    78    93    94    2
    79    99   100    1
    80    79    76    1
    81    12    11    2
    82    11    10    1
    83    15    13    1
    84   100   101    2
    85    76    75    1
    86    76    77    1
    87    75    65   am
    88    70    72   ar
    89    70    68   ar
    90    90    88    1
    91    67    68    1
    92    67    64    1
    93    13    10    1
    94    13    14    1
    95    10     9    1
    96   130   128    1
    97    72    73   ar
    98    63    64    1
    99    68    69   ar
   100    65    64    1
   101    65    66    2
   102    77    78    2
   103   111   110    2
   104     7     6    2
   105   114   112    1
   106   112   113    1
   107   112   109    1
   108   108   109    1
   109     9     3   am
   110    88    87    1
   111    89    87    1
   112   128   127    1
   113     8     6   am
   114    73    74    1
   115    73    71   ar
   116     6     5    1
   117   109   110    1
   118     4     3    2
   119   127   129    1
   120   127   124    1
   121    87    84    1
   122   110   115   am
   123    69    71   ar
   124   122   121    1
   125     3     2    1
   126   126   125    2
   127     5     2    1
   128   123   124    1
   129   123   117   am
   130   124   125    1
   131   115   116    1
   132     2     1    1
   133    84    83    1
   134    84    85    1
   135   116   117    1
   136   116   119    1
   137   121   120    1
   138   117   118    2
   139    85    86    2
   140   120   119    1
