@<TRIPOS>MOLECULE
tmp/5mpkB00.pdb
 128 123 0 0 0
SMALL
GASTEIGER

@<TRIPOS>ATOM
      1  N         30.2050    0.8370    3.6410 N.3    23  PRO23      -0.2116
      2  CA        29.2360   -0.2630    3.5730 C.3    23  PRO23       0.1372
      3  C         28.2630   -0.3440    4.7440 C.2    23  PRO23       0.2244
      4  O         27.5320   -1.3240    4.8010 O.2    23  PRO23      -0.2868
      5  CB        30.1390   -1.4870    3.5860 C.3    23  PRO23       0.0268
      6  CG        31.2100   -1.0770    4.5710 C.3    23  PRO23       0.0207
      7  CD        31.4410    0.4140    4.3290 C.3    23  PRO23       0.0892
      8  N         24.5870   -1.3720    4.2970 N.3    26  LEU26      -0.1231
      9  CA        24.2060   -2.5160    3.4660 C.3    26  LEU26       0.1678
     10  C         23.4510   -3.6010    4.2300 C.2    26  LEU26       0.2434
     11  O         22.4840   -4.1470    3.6670 O.2    26  LEU26      -0.2733
     12  CB        25.4480   -3.0920    2.7670 C.3    26  LEU26       0.0284
     13  CG        25.8840   -2.4300    1.4450 C.3    26  LEU26       0.0019
     14  CD1       24.9280   -2.7600    0.3140 C.3    26  LEU26       0.0001
     15  CD2       26.0200   -0.9230    1.5820 C.3    26  LEU26       0.0001
     16  N         23.7970   -3.9540    5.4790 N.am   27  PRO27      -0.2718
     17  CA        22.9990   -4.9710    6.1950 C.3    27  PRO27       0.1535
     18  C         21.5890   -4.5110    6.5280 C.2    27  PRO27       0.2598
     19  O         20.7820   -5.3160    7.0170 O.2    27  PRO27      -0.2715
     20  CB        23.8050   -5.2150    7.4840 C.3    27  PRO27       0.0310
     21  CG        25.2060   -4.7610    7.1460 C.3    27  PRO27       0.0237
     22  CD        24.9870   -3.5600    6.2620 C.3    27  PRO27       0.0939
     23  N         21.2800   -3.2430    6.3000 N.am   28  PHE28      -0.1974
     24  CA        20.0300   -2.6470    6.7230 C.3    28  PHE28       0.1639
     25  C         19.1540   -2.2350    5.5500 C.2    28  PHE28       0.2290
     26  O         18.0730   -1.6800    5.7620 O.2    28  PHE28      -0.2864
     27  CB        20.3280   -1.4350    7.6060 C.3    28  PHE28       0.0560
     28  CG        21.1700   -1.7670    8.8020 C.ar   28  PHE28      -0.0200
     29  CD1       20.5760   -2.2360    9.9630 C.ar   28  PHE28      -0.0042
     30  CD2       22.5510   -1.6680    8.7450 C.ar   28  PHE28      -0.0042
     31  CE1       21.3410   -2.5650   11.0690 C.ar   28  PHE28      -0.0003
     32  CE2       23.3380   -2.0030    9.8550 C.ar   28  PHE28      -0.0003
     33  CZ        22.7240   -2.4450   11.0170 C.ar   28  PHE28      -0.0000
     34  N         17.6100   -4.0230    3.1160 N.3    30  GLN30      -0.1245
     35  CA        16.4990   -4.9060    2.8290 C.3    30  GLN30       0.1566
     36  C         16.1020   -5.6400    4.0950 C.2    30  GLN30       0.2260
     37  O         16.9110   -5.7670    5.0230 O.2    30  GLN30      -0.2867
     38  CB        16.8860   -5.9190    1.7340 C.3    30  GLN30       0.0367
     39  CG        16.9900   -5.3090    0.3450 C.3    30  GLN30       0.0905
     40  CD        17.2280   -6.3600   -0.7370 C.2    30  GLN30       0.2608
     41  OE1       18.1530   -6.2370   -1.5420 O.2    30  GLN30      -0.2717
     42  NE2       16.3810   -7.3910   -0.7640 N.am   30  GLN30      -0.0878
     43  N         15.6950   -8.3580    6.8390 N.3    32  VAL32      -0.1245
     44  CA        16.4860   -9.5400    7.1540 C.3    32  VAL32       0.1561
     45  C         15.7340  -10.7780    6.6980 C.2    32  VAL32       0.2260
     46  O         14.5370  -10.9340    6.9740 O.2    32  VAL32      -0.2867
     47  CB        16.7960   -9.6040    8.6550 C.3    32  VAL32       0.0252
     48  CG1       17.2820  -11.0110    9.0300 C.3    32  VAL32       0.0019
     49  CG2       17.8610   -8.5720    9.0010 C.3    32  VAL32       0.0019
     50  N         17.8830  -16.9680    4.0690 N.3    36  LEU36      -0.1231
     51  CA        18.9750  -16.5190    3.2160 C.3    36  LEU36       0.1693
     52  C         20.2530  -16.3360    4.0240 C.2    36  LEU36       0.2591
     53  O         21.3360  -16.7640    3.6050 O.2    36  LEU36      -0.2718
     54  CB        18.5710  -15.2130    2.5300 C.3    36  LEU36       0.0284
     55  CG        19.2670  -14.6730    1.2720 C.3    36  LEU36       0.0019
     56  CD1       18.8660  -13.2200    1.0310 C.3    36  LEU36       0.0001
     57  CD2       20.7520  -14.7760    1.3100 C.3    36  LEU36       0.0001
     58  N         20.1530  -15.6860    5.1800 N.am   37  LEU37      -0.1980
     59  CA        21.3410  -15.3620    5.9570 C.3    37  LEU37       0.1596
     60  C         21.7790  -16.4920    6.8770 C.2    37  LEU37       0.2287
     61  O         22.8410  -16.3850    7.4980 O.2    37  LEU37      -0.2864
     62  CB        21.1020  -14.0870    6.7730 C.3    37  LEU37       0.0297
     63  CG        20.7940  -12.8510    5.9260 C.3    37  LEU37       0.0022
     64  CD1       20.4770  -11.6380    6.8100 C.3    37  LEU37       0.0001
     65  CD2       21.9370  -12.5410    4.9850 C.3    37  LEU37       0.0001
     66  N         20.2610  -17.5810    9.6970 N.3    39  ILE39      -0.1245
     67  CA        20.0350  -17.2470   11.1030 C.3    39  ILE39       0.1561
     68  C         18.5890  -17.5730   11.4720 C.2    39  ILE39       0.2260
     69  O         17.7710  -16.6630   11.6740 O.2    39  ILE39      -0.2867
     70  CB        20.3980  -15.7770   11.3820 C.3    39  ILE39       0.0252
     71  CG1       19.6990  -14.8320   10.3960 C.3    39  ILE39       0.0019
     72  CG2       21.9200  -15.5900   11.2960 C.3    39  ILE39       0.0019
     73  CD1       19.8530  -13.3750   10.7290 C.3    39  ILE39       0.0001
     74  N         16.2710  -15.7310   14.1550 N.3    42  TYR42      -0.1241
     75  CA        16.1140  -14.2810   14.1050 C.3    42  TYR42       0.1605
     76  C         14.7250  -13.8360   14.5540 C.2    42  TYR42       0.2264
     77  O         14.6060  -12.9460   15.4020 O.2    42  TYR42      -0.2867
     78  CB        16.4230  -13.7590   12.7030 C.3    42  TYR42       0.0534
     79  CG        16.3710  -12.2530   12.6060 C.ar   42  TYR42      -0.0201
     80  CD1       17.4340  -11.4780   13.0540 C.ar   42  TYR42      -0.0009
     81  CD2       15.2540  -11.6050   12.0920 C.ar   42  TYR42      -0.0009
     82  CE1       17.3950  -10.0990   12.9840 C.ar   42  TYR42       0.0417
     83  CE2       15.1990  -10.2170   12.0180 C.ar   42  TYR42       0.0417
     84  CZ        16.2800   -9.4750   12.4660 C.ar   42  TYR42       0.1957
     85  OH        16.2650   -8.1090   12.3970 O.3    42  TYR42      -0.2866
     86  N         18.9460   -4.6080   15.5940 N.3    81  ALA81      -0.1245
     87  CA        20.2850   -5.0560   15.2360 C.3    81  ALA81       0.1562
     88  C         21.1780   -5.1930   16.4650 C.2    81  ALA81       0.2260
     89  O         21.9410   -6.1590   16.5710 O.2    81  ALA81      -0.2867
     90  CB        20.8870   -4.0940   14.2140 C.3    81  ALA81       0.0290
     91  N         20.0100   -8.4300   18.3390 N.3    84  TYR84      -0.1227
     92  CA        20.2430   -9.7510   17.7730 C.3    84  TYR84       0.1736
     93  C         21.7300  -10.0550   17.6320 C.2    84  TYR84       0.2595
     94  O         22.1490  -11.1990   17.8280 O.2    84  TYR84      -0.2718
     95  CB        19.5540   -9.9030   16.4150 C.3    84  TYR84       0.0548
     96  CG        19.8410  -11.2780   15.8600 C.ar   84  TYR84      -0.0200
     97  CD1       19.1480  -12.3760   16.3440 C.ar   84  TYR84      -0.0009
     98  CD2       20.8530  -11.4950   14.9100 C.ar   84  TYR84      -0.0009
     99  CE1       19.4130  -13.6470   15.8950 C.ar   84  TYR84       0.0417
    100  CE2       21.1350  -12.7830   14.4560 C.ar   84  TYR84       0.0417
    101  CZ        20.3990  -13.8530   14.9650 C.ar   84  TYR84       0.1957
    102  OH        20.6280  -15.1410   14.5370 O.3    84  TYR84      -0.2866
    103  N         22.5370   -9.0600   17.2830 N.am   85  ASN85      -0.1974
    104  CA        23.9180   -9.2900   16.9000 C.3    85  ASN85       0.1688
    105  C         24.8420   -9.0950   18.0970 C.2    85  ASN85       0.2292
    106  O         24.5310   -8.3470   19.0220 O.2    85  ASN85      -0.2864
    107  CB        24.3180   -8.3530   15.7560 C.3    85  ASN85       0.1181
    108  CG        23.5320   -8.6260   14.5010 C.2    85  ASN85       0.2629
    109  OD1       23.8080   -9.5940   13.7850 O.2    85  ASN85      -0.2716
    110  ND2       22.5240   -7.7930   14.2320 N.am   85  ASN85      -0.0877
    111  N         30.2880   -7.4950   12.9540 N.3    90  ARG90      -0.1231
    112  CA        30.3040   -6.4720   11.9160 C.3    90  ARG90       0.1694
    113  C         28.9830   -5.7160   11.8680 C.2    90  ARG90       0.2591
    114  O         28.9590   -4.4870   11.7310 O.2    90  ARG90      -0.2718
    115  CB        30.5850   -7.1430   10.5800 C.3    90  ARG90       0.0321
    116  CG        30.8260   -6.2010    9.4250 C.3    90  ARG90       0.0489
    117  CD        31.1250   -7.0420    8.1890 C.3    90  ARG90       0.2205
    118  NE        31.4090   -6.2050    7.0300 N.pl3  90  ARG90      -0.0865
    119  CZ        30.5110   -5.8990    6.1070 C.cat  90  ARG90       0.5346
    120  NH1       29.2810   -6.3720    6.2170 N.pl3  90  ARG90       0.1354
    121  NH2       30.8500   -5.1390    5.0680 N.pl3  90  ARG90       0.1354
    122  N         27.8670   -6.4320   11.9960 N.am   91  VAL91      -0.1980
    123  CA        26.5820   -5.7610   11.8580 C.3    91  VAL91       0.1595
    124  C         26.3570   -4.8100   13.0290 C.2    91  VAL91       0.2287
    125  O         25.8960   -3.6710   12.8540 O.2    91  VAL91      -0.2864
    126  CB        25.4560   -6.8040   11.7320 C.3    91  VAL91       0.0276
    127  CG1       24.1000   -6.1170   11.8100 C.3    91  VAL91       0.0022
    128  CG2       25.5980   -7.5880   10.4110 C.3    91  VAL91       0.0022
@<TRIPOS>BOND
     1    41    40    2
     2    42    40   am
     3    40    39    1
     4    14    13    1
     5    39    38    1
     6    56    55    1
     7    55    57    1
     8    55    54    1
     9    13    15    1
    10    13    12    1
    11    38    35    1
    12    54    51    1
    13    12     9    1
    14    35    34    1
    15    35    36    1
    16    51    52    1
    17    51    50    1
    18     9    10    1
    19     9     8    1
    20     2     5    1
    21     2     1    1
    22     2     3    1
    23     5     6    1
    24    53    52    2
    25     1     7    1
    26    11    10    2
    27    52    58   am
    28    36    37    2
    29    10    16   am
    30     7     6    1
    31     3     4    2
    32    65    63    1
    33   121   119    1
    34    58    59    1
    35    16    17    1
    36    16    22    1
    37    25    26    2
    38    25    24    1
    39    63    62    1
    40    63    64    1
    41    59    62    1
    42    59    60    1
    43   119   120    1
    44   119   118    2
    45    17    18    1
    46    17    20    1
    47    22    21    1
    48    23    18   am
    49    23    24    1
    50    18    19    2
    51    45    46    2
    52    45    44    1
    53    24    27    1
    54    43    44    1
    55    60    61    2
    56   118   117    1
    57    21    20    1
    58    44    47    1
    59    27    28    1
    60   117   116    1
    61    47    49    1
    62    47    48    1
    63    30    28   ar
    64    30    32   ar
    65    28    29   ar
    66   116   115    1
    67    66    67    1
    68    32    33   ar
    69    29    31   ar
    70    71    73    1
    71    71    70    1
    72   128   126    1
    73   115   112    1
    74    33    31   ar
    75    67    70    1
    76    67    68    1
    77    72    70    1
    78    68    69    2
    79   114   113    2
    80   126   127    1
    81   126   123    1
    82   123   122    1
    83   123   124    1
    84   113   112    1
    85   113   122   am
    86   112   111    1
    87    83    81   ar
    88    83    84   ar
    89    81    79   ar
    90    85    84    1
    91    84    82   ar
    92    79    78    1
    93    79    80   ar
    94    78    75    1
    95   125   124    2
    96    82    80   ar
    97   109   108    2
    98    75    74    1
    99    75    76    1
   100    90    87    1
   101   110   108   am
   102   100    98   ar
   103   100   101   ar
   104   108   107    1
   105   102   101    1
   106    76    77    2
   107    98    96   ar
   108   101    99   ar
   109    87    86    1
   110    87    88    1
   111   107   104    1
   112    96    97   ar
   113    96    95    1
   114    99    97   ar
   115    95    92    1
   116    88    89    2
   117   104   103    1
   118   104   105    1
   119   103    93   am
   120    93    92    1
   121    93    94    2
   122    92    91    1
   123   105   106    2
