@<TRIPOS>MOLECULE
tmp/5mpnA01.pdb
 91 85 0 0 0
SMALL
GASTEIGER

@<TRIPOS>ATOM
      1  N         -1.7570  -17.3570   21.6490 N.3    17  MET17      -0.1245
      2  CA        -2.5720  -18.2790   20.8590 C.3    17  MET17       0.1570
      3  C         -4.0570  -18.2280   21.2020 C.2    17  MET17       0.2261
      4  O         -4.8770  -18.2860   20.2690 O.2    17  MET17      -0.2867
      5  CB        -2.0190  -19.7100   20.9120 C.3    17  MET17       0.0387
      6  CG        -2.7250  -20.6450   19.9400 C.3    17  MET17       0.0595
      7  SD        -2.2870  -20.3400   18.2190 S.3    17  MET17      -0.1393
      8  CE        -0.6540  -21.0630   18.1840 C.3    17  MET17       0.0692
      9  N         -5.7500  -15.6770   19.0660 N.3    20  LEU20      -0.1231
     10  CA        -5.9070  -16.1000   17.6810 C.3    20  LEU20       0.1693
     11  C         -7.0140  -17.1340   17.5630 C.2    20  LEU20       0.2591
     12  O         -7.8240  -17.0920   16.6260 O.2    20  LEU20      -0.2718
     13  CB        -4.5900  -16.6790   17.1740 C.3    20  LEU20       0.0284
     14  CG        -4.4550  -16.7990   15.6550 C.3    20  LEU20       0.0019
     15  CD1       -4.4390  -15.4170   15.0100 C.3    20  LEU20       0.0001
     16  CD2       -3.2080  -17.5870   15.2790 C.3    20  LEU20       0.0001
     17  N         -7.0530  -18.0710   18.5100 N.am   21  GLU21      -0.1979
     18  CA        -8.1280  -19.0470   18.5640 C.3    21  GLU21       0.1602
     19  C         -9.4880  -18.3660   18.5770 C.2    21  GLU21       0.2287
     20  O        -10.4250  -18.8270   17.9180 O.2    21  GLU21      -0.2864
     21  CB        -7.9610  -19.8870   19.8280 C.3    21  GLU21       0.0415
     22  CG        -9.0920  -20.8720   20.0400 C.3    21  GLU21       0.1163
     23  CD        -9.1050  -21.4820   21.4260 C.2    21  GLU21       0.3649
     24  OE1       -8.0910  -21.3880   22.1540 O.co2  21  GLU21      -0.2457
     25  OE2      -10.1460  -22.0550   21.7960 O.co2  21  GLU21      -0.2457
     26  N        -10.4360  -17.6260   15.0320 N.3    24  TYR24      -0.1227
     27  CA       -10.8060  -18.8390   14.3100 C.3    24  TYR24       0.1736
     28  C        -12.1690  -19.3680   14.7360 C.2    24  TYR24       0.2595
     29  O        -12.8800  -19.9740   13.9250 O.2    24  TYR24      -0.2718
     30  CB        -9.7800  -19.9210   14.5850 C.3    24  TYR24       0.0548
     31  CG        -8.5690  -19.9500   13.6970 C.ar   24  TYR24      -0.0200
     32  CD1       -8.6070  -20.6050   12.4760 C.ar   24  TYR24      -0.0009
     33  CD2       -7.3640  -19.3960   14.1120 C.ar   24  TYR24      -0.0009
     34  CE1       -7.4820  -20.6790   11.6700 C.ar   24  TYR24       0.0417
     35  CE2       -6.2310  -19.4690   13.3140 C.ar   24  TYR24       0.0417
     36  CZ        -6.2980  -20.1220   12.1030 C.ar   24  TYR24       0.1957
     37  OH        -5.1640  -20.2100   11.3300 O.3    24  TYR24      -0.2866
     38  N        -12.5420  -19.1830   16.0010 N.am   25  ARG25      -0.1980
     39  CA       -13.8180  -19.7160   16.4560 C.3    25  ARG25       0.1597
     40  C        -15.0100  -18.9450   15.9150 C.2    25  ARG25       0.2287
     41  O        -16.1410  -19.4380   16.0190 O.2    25  ARG25      -0.2864
     42  CB       -13.8280  -19.8140   17.9800 C.3    25  ARG25       0.0334
     43  CG       -12.8290  -20.8720   18.4640 C.3    25  ARG25       0.0492
     44  CD       -13.2090  -21.6320   19.7300 C.3    25  ARG25       0.2205
     45  NE       -12.1620  -22.6140   20.0210 N.pl3  25  ARG25      -0.0865
     46  CZ       -12.2060  -23.8980   19.6740 C.cat  25  ARG25       0.5346
     47  NH1      -13.2690  -24.3890   19.0450 N.pl3  25  ARG25       0.1354
     48  NH2      -11.1860  -24.6970   19.9690 N.pl3  25  ARG25       0.1354
     49  N        -17.2850  -18.3070   13.1750 N.3    27  ASP27      -0.1239
     50  CA       -17.6840  -18.9870   11.9520 C.3    27  ASP27       0.1674
     51  C        -19.0740  -18.4500   11.6440 C.2    27  ASP27       0.2266
     52  O        -19.9910  -18.5990   12.4800 O.2    27  ASP27      -0.2867
     53  CB       -17.7120  -20.4950   12.2040 C.3    27  ASP27       0.1410
     54  CG       -17.8760  -21.3060   10.9330 C.2    27  ASP27       0.3668
     55  OD1      -18.6510  -20.8960   10.0490 O.co2  27  ASP27      -0.2456
     56  OD2      -17.2250  -22.3660   10.8210 O.co2  27  ASP27      -0.2456
     57  N         -8.6550  -17.6860    6.8920 N.3    34  ARG34      -0.1231
     58  CA        -7.9470  -18.8560    7.3890 C.3    34  ARG34       0.1694
     59  C         -6.7620  -19.2690    6.5250 C.2    34  ARG34       0.2591
     60  O         -5.8760  -19.9770    7.0190 O.2    34  ARG34      -0.2718
     61  CB        -8.9140  -20.0250    7.5790 C.3    34  ARG34       0.0321
     62  CG        -9.8370  -19.8260    8.7690 C.3    34  ARG34       0.0489
     63  CD       -10.7490  -21.0020    8.9530 C.3    34  ARG34       0.2205
     64  NE       -11.6170  -20.8310   10.1130 N.pl3  34  ARG34      -0.0865
     65  CZ       -12.4060  -21.7900   10.5810 C.cat  34  ARG34       0.5346
     66  NH1      -12.4250  -22.9730    9.9860 N.pl3  34  ARG34       0.1354
     67  NH2      -13.1660  -21.5670   11.6420 N.pl3  34  ARG34       0.1354
     68  N         -6.6980  -18.8540    5.2710 N.am   35  GLN35      -0.1979
     69  CA        -5.5860  -19.1870    4.3940 C.3    35  GLN35       0.1601
     70  C         -5.1990  -17.9380    3.6270 C.2    35  GLN35       0.2287
     71  O         -6.0020  -17.0070    3.5110 O.2    35  GLN35      -0.2864
     72  CB        -5.9940  -20.2880    3.4090 C.3    35  GLN35       0.0394
     73  CG        -6.1910  -21.6540    4.0550 C.3    35  GLN35       0.0908
     74  CD        -4.9020  -22.2210    4.6340 C.2    35  GLN35       0.2608
     75  OE1       -3.8290  -22.0820    4.0450 O.2    35  GLN35      -0.2717
     76  NE2       -5.0030  -22.8570    5.7960 N.am   35  GLN35      -0.0878
     77  N         -3.4930  -18.3740    9.0580 N.3    58  SER58      -0.1217
     78  CA        -2.6020  -19.5350    9.0130 C.3    58  SER58       0.1889
     79  C         -1.1440  -19.1200    9.1490 C.2    58  SER58       0.2288
     80  O         -0.3390  -19.8280    9.7670 O.2    58  SER58      -0.2866
     81  CB        -2.8050  -20.3280    7.7140 C.3    58  SER58       0.2089
     82  OG        -2.2970  -19.6450    6.5770 O.3    58  SER58      -0.2183
     83  N         -0.5800  -18.1540   12.8120 N.3    61  LYS61      -0.1245
     84  CA        -0.5490  -19.3480   13.6470 C.3    61  LYS61       0.1561
     85  C          0.7960  -20.0490   13.5280 C.2    61  LYS61       0.2260
     86  O          1.4010  -20.4350   14.5340 O.2    61  LYS61      -0.2867
     87  CB        -1.6990  -20.2680   13.2370 C.3    61  LYS61       0.0271
     88  CG        -2.1910  -21.1590   14.3510 C.3    61  LYS61       0.0035
     89  CD        -1.5060  -22.4810   14.3790 C.3    61  LYS61       0.0206
     90  CE        -2.1430  -23.3830   15.4250 C.3    61  LYS61       0.1093
     91  NZ        -1.3690  -24.6280   15.4700 N.3    61  LYS61      -0.1314
@<TRIPOS>BOND
     1    72    73    1
     2    72    69    1
     3    71    70    2
     4    70    69    1
     5    75    74    2
     6    73    74    1
     7    69    68    1
     8    74    76   am
     9    68    59   am
    10    59    60    2
    11    59    58    1
    12    82    81    1
    13    57    58    1
    14    58    61    1
    15    61    62    1
    16    81    78    1
    17    62    63    1
    18    63    64    1
    19    78    77    1
    20    78    79    1
    21    79    80    2
    22    66    65    1
    23    55    54   ar
    24    64    65    2
    25    65    67    1
    26    56    54   ar
    27    54    53    1
    28    37    36    1
    29    51    50    1
    30    51    52    2
    31    34    36   ar
    32    34    32   ar
    33    50    53    1
    34    50    49    1
    35    36    35   ar
    36    32    31   ar
    37    83    84    1
    38    87    84    1
    39    87    88    1
    40    35    33   ar
    41    85    84    1
    42    85    86    2
    43    31    33   ar
    44    31    30    1
    45    29    28    2
    46    27    30    1
    47    27    28    1
    48    27    26    1
    49    88    89    1
    50    89    90    1
    51    28    38   am
    52    15    14    1
    53    16    14    1
    54    90    91    1
    55    14    13    1
    56    40    41    2
    57    40    39    1
    58    38    39    1
    59    39    42    1
    60    12    11    2
    61    13    10    1
    62    11    10    1
    63    11    17   am
    64    10     9    1
    65    20    19    2
    66    42    43    1
    67     8     7    1
    68     7     6    1
    69    43    44    1
    70    17    18    1
    71    18    19    1
    72    18    21    1
    73    47    46    1
    74    46    48    1
    75    46    45    2
    76    44    45    1
    77    21    22    1
    78     6     5    1
    79    22    23    1
    80     4     3    2
    81     2     5    1
    82     2     3    1
    83     2     1    1
    84    23    25   ar
    85    23    24   ar
