@<TRIPOS>MOLECULE
tmp/5mpnA00.pdb
 113 108 0 0 0
SMALL
GASTEIGER

@<TRIPOS>ATOM
      1  N        -13.7320  -17.4870    8.0770 N.3    31  LEU31      -0.1231
      2  CA       -13.4360  -18.3280    6.9190 C.3    31  LEU31       0.1678
      3  C        -12.6120  -17.6330    5.8410 C.2    31  LEU31       0.2434
      4  O        -11.6740  -18.2630    5.3200 O.2    31  LEU31      -0.2733
      5  CB       -14.7240  -18.9390    6.3550 C.3    31  LEU31       0.0284
      6  CG       -15.5070  -19.8170    7.3330 C.3    31  LEU31       0.0019
      7  CD1      -16.7830  -20.3450    6.6960 C.3    31  LEU31       0.0001
      8  CD2      -14.6270  -20.9510    7.8490 C.3    31  LEU31       0.0001
      9  N        -12.8720  -16.3740    5.4730 N.am   32  PRO32      -0.2718
     10  CA       -12.0440  -15.7340    4.4390 C.3    32  PRO32       0.1535
     11  C        -10.6060  -15.5140    4.8500 C.2    32  PRO32       0.2598
     12  O         -9.7860  -15.1930    3.9840 O.2    32  PRO32      -0.2715
     13  CB       -12.7470  -14.3870    4.2030 C.3    32  PRO32       0.0310
     14  CG       -14.1560  -14.6230    4.6410 C.3    32  PRO32       0.0237
     15  CD       -14.0330  -15.5380    5.8340 C.3    32  PRO32       0.0939
     16  N        -10.2900  -15.6480    6.1370 N.am   33  PHE33      -0.1974
     17  CA        -9.0070  -15.2720    6.7100 C.3    33  PHE33       0.1639
     18  C         -8.1560  -16.4680    7.0900 C.2    33  PHE33       0.2290
     19  O         -7.0240  -16.2880    7.5540 O.2    33  PHE33      -0.2864
     20  CB        -9.2340  -14.3810    7.9360 C.3    33  PHE33       0.0560
     21  CG       -10.0160  -13.1550    7.6190 C.ar   33  PHE33      -0.0200
     22  CD1       -9.3710  -12.0170    7.1970 C.ar   33  PHE33      -0.0042
     23  CD2      -11.3970  -13.1470    7.7020 C.ar   33  PHE33      -0.0042
     24  CE1      -10.0870  -10.8790    6.8700 C.ar   33  PHE33      -0.0003
     25  CE2      -12.1220  -12.0130    7.3650 C.ar   33  PHE33      -0.0003
     26  CZ       -11.4630  -10.8860    6.9520 C.ar   33  PHE33      -0.0000
     27  N         -6.6980  -18.8540    5.2710 N.3    35  GLN35      -0.1245
     28  CA        -5.5860  -19.1870    4.3940 C.3    35  GLN35       0.1566
     29  C         -5.1990  -17.9380    3.6270 C.2    35  GLN35       0.2260
     30  O         -6.0020  -17.0070    3.5110 O.2    35  GLN35      -0.2867
     31  CB        -5.9940  -20.2880    3.4090 C.3    35  GLN35       0.0367
     32  CG        -6.1910  -21.6540    4.0550 C.3    35  GLN35       0.0905
     33  CD        -4.9020  -22.2210    4.6340 C.2    35  GLN35       0.2608
     34  OE1       -3.8290  -22.0820    4.0450 O.2    35  GLN35      -0.2717
     35  NE2       -5.0030  -22.8570    5.7960 N.am   35  GLN35      -0.0878
     36  N         -4.9090  -15.2680    0.8460 N.3    37  VAL37      -0.1245
     37  CA        -5.6790  -14.9630   -0.3540 C.3    37  VAL37       0.1561
     38  C         -4.9240  -15.4630   -1.5740 C.2    37  VAL37       0.2260
     39  O         -3.7270  -15.1910   -1.7340 O.2    37  VAL37      -0.2867
     40  CB        -5.9150  -13.4470   -0.4390 C.3    37  VAL37       0.0252
     41  CG1       -6.4300  -13.0440   -1.8160 C.3    37  VAL37       0.0019
     42  CG2       -6.8850  -13.0230    0.6360 C.3    37  VAL37       0.0019
     43  N         -9.4560  -16.7080   -6.5970 N.3    42  LEU42      -0.1245
     44  CA       -10.5790  -15.8340   -6.2890 C.3    42  LEU42       0.1561
     45  C        -10.9340  -14.9030   -7.4410 C.2    42  LEU42       0.2260
     46  O        -11.9180  -14.1590   -7.3430 O.2    42  LEU42      -0.2867
     47  CB       -10.2990  -15.0350   -5.0080 C.3    42  LEU42       0.0270
     48  CG       -10.1540  -15.8760   -3.7370 C.3    42  LEU42       0.0019
     49  CD1       -9.6960  -15.0110   -2.5810 C.3    42  LEU42       0.0001
     50  CD2      -11.4550  -16.6050   -3.3930 C.3    42  LEU42       0.0001
     51  N         -9.3670  -12.2030   -8.5600 N.3    44  ILE44      -0.1245
     52  CA        -9.1520  -10.8060   -8.1860 C.3    44  ILE44       0.1561
     53  C         -7.7270  -10.3940   -8.5490 C.2    44  ILE44       0.2260
     54  O         -6.8730  -10.2310   -7.6610 O.2    44  ILE44      -0.2867
     55  CB        -9.5130  -10.5620   -6.7100 C.3    44  ILE44       0.0252
     56  CG1       -8.8430  -11.5840   -5.7790 C.3    44  ILE44       0.0019
     57  CG2      -11.0240  -10.6240   -6.5220 C.3    44  ILE44       0.0019
     58  CD1       -9.1580  -11.3380   -4.3090 C.3    44  ILE44       0.0001
     59  N         -5.3820   -7.8730   -6.5980 N.3    47  TYR47      -0.1241
     60  CA        -5.2170   -7.9960   -5.1530 C.3    47  TYR47       0.1605
     61  C         -3.7990   -7.6520   -4.7060 C.2    47  TYR47       0.2264
     62  O         -3.6140   -6.8480   -3.7880 O.2    47  TYR47      -0.2867
     63  CB        -5.6140   -9.3930   -4.6880 C.3    47  TYR47       0.0534
     64  CG        -5.5540   -9.5020   -3.1870 C.ar   47  TYR47      -0.0201
     65  CD1       -6.5960   -9.0350   -2.3960 C.ar   47  TYR47      -0.0009
     66  CD2       -4.4370  -10.0260   -2.5500 C.ar   47  TYR47      -0.0009
     67  CE1       -6.5330   -9.1080   -1.0140 C.ar   47  TYR47       0.0417
     68  CE2       -4.3550  -10.0940   -1.1690 C.ar   47  TYR47       0.0417
     69  CZ        -5.4120   -9.6340   -0.4050 C.ar   47  TYR47       0.1957
     70  OH        -5.3480   -9.6910    0.9750 O.3    47  TYR47      -0.2866
     71  N         -7.8060   -6.3290    4.5320 N.3    86  ALA86      -0.1245
     72  CA        -9.1370   -6.7140    4.0850 C.3    86  ALA86       0.1562
     73  C        -10.0590   -5.5090    3.9640 C.2    86  ALA86       0.2260
     74  O        -10.8610   -5.4310    3.0220 O.2    86  ALA86      -0.2867
     75  CB        -9.7300   -7.7800    5.0020 C.3    86  ALA86       0.0290
     76  N         -8.8850   -3.6990    0.6600 N.3    89  TYR89      -0.1227
     77  CA        -9.1850   -4.3280   -0.6190 C.3    89  TYR89       0.1736
     78  C        -10.6860   -4.4400   -0.8660 C.2    89  TYR89       0.2595
     79  O        -11.1560   -4.2170   -1.9860 O.2    89  TYR89      -0.2718
     80  CB        -8.5290   -5.7140   -0.7260 C.3    89  TYR89       0.0548
     81  CG        -8.8550   -6.2710   -2.0740 C.ar   89  TYR89      -0.0200
     82  CD1       -8.1980   -5.7970   -3.1910 C.ar   89  TYR89      -0.0009
     83  CD2       -9.8910   -7.1880   -2.2530 C.ar   89  TYR89      -0.0009
     84  CE1       -8.5330   -6.2220   -4.4480 C.ar   89  TYR89       0.0417
     85  CE2      -10.2320   -7.6260   -3.5190 C.ar   89  TYR89       0.0417
     86  CZ        -9.5400   -7.1380   -4.6020 C.ar   89  TYR89       0.1957
     87  OH        -9.8650   -7.5460   -5.8750 O.3    89  TYR89      -0.2866
     88  N        -11.4520   -4.8120    0.1470 N.am   90  ASN90      -0.1974
     89  CA       -12.8550   -5.1510   -0.0460 C.3    90  ASN90       0.1688
     90  C        -13.7390   -3.9260    0.1390 C.2    90  ASN90       0.2292
     91  O        -13.3910   -2.9910    0.8560 O.2    90  ASN90      -0.2864
     92  CB       -13.2540   -6.2640    0.9220 C.3    90  ASN90       0.1181
     93  CG       -12.4700   -7.5320    0.6770 C.2    90  ASN90       0.2629
     94  OD1      -12.7940   -8.3060   -0.2240 O.2    90  ASN90      -0.2716
     95  ND2      -11.4110   -7.7420    1.4400 N.am   90  ASN90      -0.0877
     96  N        -19.3270   -8.7660    2.1300 N.3    95  ARG95      -0.1231
     97  CA       -19.3150   -9.7660    3.1880 C.3    95  ARG95       0.1694
     98  C        -17.9620   -9.8120    3.8890 C.2    95  ARG95       0.2591
     99  O        -17.8950   -9.8320    5.1230 O.2    95  ARG95      -0.2718
    100  CB       -19.6570  -11.1110    2.5520 C.3    95  ARG95       0.0321
    101  CG       -19.5910  -12.3210    3.4520 C.3    95  ARG95       0.0489
    102  CD       -20.1140  -13.5040    2.6630 C.3    95  ARG95       0.2205
    103  NE       -20.0630  -14.7660    3.3870 N.pl3  95  ARG95      -0.0865
    104  CZ       -18.9800  -15.5350    3.4770 C.cat  95  ARG95       0.5346
    105  NH1      -19.0550  -16.6760    4.1530 N.pl3  95  ARG95       0.1354
    106  NH2      -17.8280  -15.1610    2.9360 N.pl3  95  ARG95       0.1354
    107  N        -16.8700   -9.8480    3.1240 N.am   96  VAL96      -0.1980
    108  CA       -15.5580   -9.9770    3.7490 C.3    96  VAL96       0.1595
    109  C        -15.2350   -8.7550    4.5950 C.2    96  VAL96       0.2287
    110  O        -14.6750   -8.8830    5.6840 O.2    96  VAL96      -0.2864
    111  CB       -14.4680  -10.2850    2.7120 C.3    96  VAL96       0.0276
    112  CG1      -13.0890  -10.1880    3.3530 C.3    96  VAL96       0.0022
    113  CG2      -14.6850  -11.6860    2.1370 C.3    96  VAL96       0.0022
@<TRIPOS>BOND
     1    51    52    1
     2    53    52    1
     3    53    54    2
     4    52    55    1
     5    45    46    2
     6    45    44    1
     7    55    57    1
     8    55    56    1
     9    59    60    1
    10    43    44    1
    11    44    47    1
    12    87    86    1
    13    56    58    1
    14    60    61    1
    15    60    63    1
    16    47    48    1
    17    61    62    2
    18    63    64    1
    19    86    84   ar
    20    86    85   ar
    21    84    82   ar
    22    48    50    1
    23    48    49    1
    24    85    83   ar
    25    82    81   ar
    26    64    66   ar
    27    64    65   ar
    28    66    68   ar
    29    65    67   ar
    30    83    81   ar
    31    81    80    1
    32    79    78    2
    33    41    40    1
    34    39    38    2
    35    38    37    1
    36    68    69   ar
    37    67    69   ar
    38    78    77    1
    39    78    88   am
    40    80    77    1
    41    77    76    1
    42    40    37    1
    43    40    42    1
    44    69    70    1
    45    37    36    1
    46    94    93    2
    47    89    90    1
    48    89    88    1
    49    89    92    1
    50    90    91    2
    51    93    92    1
    52    93    95   am
    53    96    97    1
    54   113   111    1
    55   100    97    1
    56   100   101    1
    57   102   103    1
    58   102   101    1
    59   111   112    1
    60   111   108    1
    61   106   104    1
    62    74    73    2
    63   107   108    1
    64   107    98   am
    65    97    98    1
    66   103   104    2
    67    31    32    1
    68    31    28    1
    69   104   105    1
    70    30    29    2
    71    29    28    1
    72   108   109    1
    73    98    99    2
    74    73    72    1
    75    12    11    2
    76    34    33    2
    77    32    33    1
    78    72    71    1
    79    72    75    1
    80    13    10    1
    81    13    14    1
    82    28    27    1
    83    10    11    1
    84    10     9    1
    85   109   110    2
    86    33    35   am
    87    14    15    1
    88    11    16   am
    89     4     3    2
    90     9    15    1
    91     9     3   am
    92     3     2    1
    93    16    17    1
    94     5     2    1
    95     5     6    1
    96     7     6    1
    97    17    18    1
    98    17    20    1
    99    24    26   ar
   100    24    22   ar
   101     2     1    1
   102    26    25   ar
   103    18    19    2
   104    22    21   ar
   105     6     8    1
   106    25    23   ar
   107    21    23   ar
   108    21    20    1
