@<TRIPOS>MOLECULE
tmp/5mpqA01.pdb
 83 80 0 0 0
SMALL
GASTEIGER

@<TRIPOS>ATOM
      1  N        -12.8510   -7.6490   29.4970 N.3   272  PRO272     -0.2116
      2  CA       -14.0750   -8.0430   30.2220 C.3   272  PRO272      0.1372
      3  C        -14.5990   -9.4220   29.8350 C.2   272  PRO272      0.2244
      4  O        -15.0620  -10.1630   30.7060 O.2   272  PRO272     -0.2868
      5  CB       -15.0690   -6.9330   29.8570 C.3   272  PRO272      0.0268
      6  CG       -14.2280   -5.7590   29.5310 C.3   272  PRO272      0.0207
      7  CD       -12.9680   -6.3140   28.8870 C.3   272  PRO272      0.0892
      8  N        -14.0060   -3.1670   35.0800 N.3   301  THR301     -0.1203
      9  CA       -13.7540   -2.6870   33.7250 C.3   301  THR301      0.1994
     10  C        -14.7410   -1.6040   33.2890 C.2   301  THR301      0.2618
     11  O        -14.4900   -0.9320   32.2840 O.2   301  THR301     -0.2717
     12  CB       -13.7640   -3.8480   32.7140 C.3   301  THR301      0.1784
     13  OG1      -15.0480   -4.4840   32.6920 O.3   301  THR301     -0.2211
     14  CG2      -12.7050   -4.8940   33.0770 C.3   301  THR301      0.0376
     15  N        -15.8540   -1.4220   34.0060 N.am  302  GLY302     -0.1942
     16  CA       -16.6910   -0.2540   33.7840 C.3   302  GLY302      0.2014
     17  C        -18.1400   -0.4890   33.3870 C.2   302  GLY302      0.2639
     18  O        -18.8390   -1.3160   33.9810 O.2   302  GLY302     -0.2714
     19  N        -18.6000    0.2730   32.3960 N.am  303  ARG303     -0.1963
     20  CA       -19.9850    0.2470   31.9370 C.3   303  ARG303      0.1729
     21  C        -20.0200   -0.5680   30.6460 C.2   303  ARG303      0.2616
     22  O        -19.9900   -0.0350   29.5350 O.2   303  ARG303     -0.2715
     23  CB       -20.5050    1.6770   31.7340 C.3   303  ARG303      0.0348
     24  CG       -21.1380    2.3220   32.9760 C.3   303  ARG303      0.0492
     25  CD       -20.1980    2.3230   34.1860 C.3   303  ARG303      0.2205
     26  NE       -18.9200    2.9530   33.8830 N.pl3 303  ARG303     -0.0865
     27  CZ       -17.8960    3.0360   34.7320 C.cat 303  ARG303      0.5346
     28  NH1      -17.9870    2.5070   35.9470 N.pl3 303  ARG303      0.1354
     29  NH2      -16.7740    3.6460   34.3650 N.pl3 303  ARG303      0.1354
     30  N        -20.0480   -1.8900   30.7970 N.am  304  ASN304     -0.1972
     31  CA       -20.1040   -2.7520   29.6260 C.3   304  ASN304      0.1688
     32  C        -20.8200   -4.0500   29.9680 C.2   304  ASN304      0.2292
     33  O        -21.0480   -4.3850   31.1390 O.2   304  ASN304     -0.2864
     34  CB       -18.7030   -3.0210   29.0470 C.3   304  ASN304      0.1181
     35  CG       -17.8230   -3.8370   29.9780 C.2   304  ASN304      0.2629
     36  OD1      -17.9960   -5.0510   30.0980 O.2   304  ASN304     -0.2716
     37  ND2      -16.8510   -3.1830   30.6150 N.am  304  ASN304     -0.0877
     38  N        -18.9520    9.0940   28.5340 N.3   400  GLU400     -0.1231
     39  CA       -18.5650    7.6880   28.6830 C.3   400  GLU400      0.1699
     40  C        -17.0650    7.5060   28.9170 C.2   400  GLU400      0.2592
     41  O        -16.6400    6.4130   29.2980 O.2   400  GLU400     -0.2718
     42  CB       -18.9930    6.8770   27.4470 C.3   400  GLU400      0.0402
     43  CG       -18.1520    7.1580   26.2120 C.3   400  GLU400      0.1161
     44  CD       -18.6650    6.4800   24.9540 C.2   400  GLU400      0.3649
     45  OE1      -19.3430    5.4460   25.0720 O.co2 400  GLU400     -0.2457
     46  OE2      -18.3840    6.9820   23.8420 O.co2 400  GLU400     -0.2457
     47  N        -16.2560    8.5460   28.7320 N.am  401  ARG401     -0.1966
     48  CA       -14.8160    8.4060   28.8940 C.3   401  ARG401      0.1729
     49  C        -14.3370    8.5990   30.3260 C.2   401  ARG401      0.2617
     50  O        -13.1320    8.5230   30.5690 O.2   401  ARG401     -0.2715
     51  CB       -14.0830    9.3790   27.9840 C.3   401  ARG401      0.0348
     52  CG       -14.1850    9.0540   26.5080 C.3   401  ARG401      0.0492
     53  CD       -13.5640   10.1970   25.7020 C.3   401  ARG401      0.2205
     54  NE       -12.2320   10.4890   26.2120 N.pl3 401  ARG401     -0.0865
     55  CZ       -11.5800   11.6300   26.0260 C.cat 401  ARG401      0.5346
     56  NH1      -12.1400   12.6190   25.3430 N.pl3 401  ARG401      0.1354
     57  NH2      -10.3620   11.7830   26.5370 N.pl3 401  ARG401      0.1354
     58  N        -15.2240    8.8420   31.2810 N.am  402  THR402     -0.1937
     59  CA       -14.7570    8.9060   32.6540 C.3   402  THR402      0.2028
     60  C        -14.6590    7.4990   33.2400 C.2   402  THR402      0.2642
     61  O        -15.2040    6.5250   32.7040 O.2   402  THR402     -0.2714
     62  CB       -15.6870    9.7500   33.5170 C.3   402  THR402      0.1808
     63  OG1      -16.8990    9.0130   33.7410 O.3   402  THR402     -0.2208
     64  CG2      -15.9990   11.0760   32.8330 C.3   402  THR402      0.0379
     65  N        -13.9710    7.4010   34.3700 N.am  403  ASP403     -0.1971
     66  CA       -13.8660    6.1060   35.0280 C.3   403  ASP403      0.1709
     67  C        -14.5040    6.0930   36.4180 C.2   403  ASP403      0.2293
     68  O        -15.2000    5.1310   36.7520 O.2   403  ASP403     -0.2864
     69  CB       -12.3540    5.6920   35.0740 C.3   403  ASP403      0.1436
     70  CG       -12.1050    4.3710   35.8080 C.2   403  ASP403      0.3671
     71  OD1      -11.0950    4.2960   36.5510 O.co2 403  ASP403     -0.2456
     72  OD2      -12.8970    3.4220   35.6090 O.co2 403  ASP403     -0.2456
     73  N        -24.3900    9.6020   29.9540 N.3   411  ARG411     -0.1245
     74  CA       -23.9130    8.4160   29.2480 C.3   411  ARG411      0.1563
     75  C        -25.0360    7.7780   28.4480 C.2   411  ARG411      0.2260
     76  O        -24.8310    7.3430   27.3100 O.2   411  ARG411     -0.2867
     77  CB       -23.3270    7.4050   30.2350 C.3   411  ARG411      0.0307
     78  CG       -21.9520    7.7700   30.7690 C.3   411  ARG411      0.0489
     79  CD       -21.6350    6.8480   31.9300 C.3   411  ARG411      0.2205
     80  NE       -20.2590    6.9610   32.3420 N.pl3 411  ARG411     -0.0865
     81  CZ       -19.2610    6.1990   31.9080 C.cat 411  ARG411      0.5346
     82  NH1      -19.4670    5.2220   31.0280 N.pl3 411  ARG411      0.1354
     83  NH2      -18.0400    6.4310   32.3660 N.pl3 411  ARG411      0.1354
@<TRIPOS>BOND
     1    46    44   ar
     2    44    45   ar
     3    44    43    1
     4    56    55    1
     5    53    54    1
     6    53    52    1
     7    55    54    2
     8    55    57    1
     9    43    42    1
    10    52    51    1
    11    76    75    2
    12    42    39    1
    13    51    48    1
    14    75    74    1
    15    38    39    1
    16    39    40    1
    17    47    48    1
    18    47    40   am
    19     7     1    1
    20     7     6    1
    21    48    49    1
    22    40    41    2
    23    34    31    1
    24    34    35    1
    25    74    73    1
    26    74    77    1
    27     1     2    1
    28     6     5    1
    29    22    21    2
    30    31    32    1
    31    31    30    1
    32     3     2    1
    33     3     4    2
    34     5     2    1
    35    32    33    2
    36    35    36    2
    37    35    37   am
    38    77    78    1
    39    49    50    2
    40    49    58   am
    41    21    30   am
    42    21    20    1
    43    78    79    1
    44    82    81    1
    45    58    59    1
    46    23    20    1
    47    23    24    1
    48    81    80    2
    49    81    83    1
    50    79    80    1
    51    20    19    1
    52    11    10    2
    53    19    17   am
    54    59    60    1
    55    59    62    1
    56    13    12    1
    57    61    60    2
    58    12    14    1
    59    12     9    1
    60    64    62    1
    61    24    25    1
    62    60    65   am
    63    10     9    1
    64    10    15   am
    65    17    16    1
    66    17    18    2
    67    62    63    1
    68     9     8    1
    69    16    15    1
    70    26    25    1
    71    26    27    2
    72    29    27    1
    73    65    66    1
    74    27    28    1
    75    66    69    1
    76    66    67    1
    77    69    70    1
    78    72    70   ar
    79    70    71   ar
    80    67    68    2
