@<TRIPOS>MOLECULE
tmp/5mpqA00.pdb
 150 144 0 0 0
SMALL
GASTEIGER

@<TRIPOS>ATOM
      1  N        -26.3490    2.2520   17.3600 N.3   441  GLU441     -0.1245
      2  CA       -26.4040    2.4000   15.9070 C.3   441  GLU441      0.1567
      3  C        -25.8830    3.7570   15.4670 C.2   441  GLU441      0.2260
      4  O        -25.0550    3.8470   14.5580 O.2   441  GLU441     -0.2867
      5  CB       -27.8370    2.2340   15.3930 C.3   441  GLU441      0.0388
      6  CG       -28.3760    0.8360   15.4390 C.3   441  GLU441      0.1160
      7  CD       -27.7610   -0.0560   14.3800 C.2   441  GLU441      0.3649
      8  OE1      -26.7620    0.3460   13.7190 O.co2 441  GLU441     -0.2457
      9  OE2      -28.2800   -1.1730   14.2100 O.co2 441  GLU441     -0.2457
     10  N        -23.7850    4.9810    7.6560 N.3   450  SER450     -0.1202
     11  CA       -22.6430    4.0830    7.7210 C.3   450  SER450      0.2020
     12  C        -22.0300    3.9280    6.3300 C.2   450  SER450      0.2619
     13  O        -22.5490    4.4420    5.3370 O.2   450  SER450     -0.2717
     14  CB       -23.0630    2.7290    8.2960 C.3   450  SER450      0.2103
     15  OG       -23.5760    1.8750    7.2910 O.3   450  SER450     -0.2182
     16  N        -20.9140    3.1960    6.2390 N.am  451  ARG451     -0.1965
     17  CA       -20.2520    3.0560    4.9430 C.3   451  ARG451      0.1729
     18  C        -21.1320    2.2980    3.9550 C.2   451  ARG451      0.2616
     19  O        -21.1470    2.6140    2.7590 O.2   451  ARG451     -0.2715
     20  CB       -18.8890    2.3710    5.0940 C.3   451  ARG451      0.0348
     21  CG       -18.9520    0.8880    5.3720 C.3   451  ARG451      0.0492
     22  CD       -18.8240    0.6330    6.8500 C.3   451  ARG451      0.2205
     23  NE       -18.8900   -0.7720    7.2370 N.pl3 451  ARG451     -0.0865
     24  CZ       -17.8440   -1.5920    7.3020 C.cat 451  ARG451      0.5346
     25  NH1      -16.6150   -1.1610    7.0030 N.pl3 451  ARG451      0.1354
     26  NH2      -18.0220   -2.8530    7.6750 N.pl3 451  ARG451      0.1354
     27  N        -21.9060    1.3130    4.4400 N.am  452  VAL452     -0.1977
     28  CA       -22.7170    0.4890    3.5490 C.3   452  VAL452      0.1596
     29  C        -24.0680    1.1180    3.2630 C.2   452  VAL452      0.2287
     30  O        -24.8810    0.5150    2.5540 O.2   452  VAL452     -0.2864
     31  CB       -22.9100   -0.9530    4.0890 C.3   452  VAL452      0.0276
     32  CG1      -21.5790   -1.6530    4.2520 C.3   452  VAL452      0.0022
     33  CG2      -23.6870   -0.9630    5.3990 C.3   452  VAL452      0.0022
     34  N        -26.4150    2.3850    5.6130 N.3   454  ALA454     -0.1245
     35  CA       -27.4400    2.3690    6.6490 C.3   454  ALA454      0.1562
     36  C        -27.6720    3.7900    7.1490 C.2   454  ALA454      0.2260
     37  O        -26.7270    4.5590    7.3380 O.2   454  ALA454     -0.2867
     38  CB       -27.0270    1.4500    7.7980 C.3   454  ALA454      0.0290
     39  N        -30.3750    3.2790   11.7070 N.3   459  GLN459     -0.1231
     40  CA       -29.4340    2.7060   10.7600 C.3   459  GLN459      0.1698
     41  C        -30.1100    1.6150    9.9380 C.2   459  GLN459      0.2592
     42  O        -29.6780    0.4630    9.8800 O.2   459  GLN459     -0.2718
     43  CB       -28.1870    2.2040   11.4880 C.3   459  GLN459      0.0381
     44  CG       -27.3410    3.3690   11.9690 C.3   459  GLN459      0.0905
     45  CD       -26.7230    4.0880   10.8140 C.2   459  GLN459      0.2608
     46  OE1      -25.7230    3.6320   10.2600 O.2   459  GLN459     -0.2717
     47  NE2      -27.3180    5.2060   10.4190 N.am  459  GLN459     -0.0878
     48  N        -31.1930    2.0180    9.3070 N.am  460  VAL460     -0.1966
     49  CA       -31.9750    1.1390    8.4630 C.3   460  VAL460      0.1727
     50  C        -31.3890    1.1680    7.0590 C.2   460  VAL460      0.2616
     51  O        -31.1570    2.2390    6.4970 O.2   460  VAL460     -0.2715
     52  CB       -33.4470    1.5710    8.4760 C.3   460  VAL460      0.0290
     53  CG1      -34.2800    0.6960    7.5580 C.3   460  VAL460      0.0023
     54  CG2      -33.9820    1.5310    9.9210 C.3   460  VAL460      0.0023
     55  N        -31.1330   -0.0040    6.4890 N.am  461  MET461     -0.1977
     56  CA       -30.6190   -0.0370    5.1270 C.3   461  MET461      0.1605
     57  C        -31.6950    0.4230    4.1460 C.2   461  MET461      0.2287
     58  O        -32.8870    0.1620    4.3530 O.2   461  MET461     -0.2864
     59  CB       -30.1450   -1.4370    4.7430 C.3   461  MET461      0.0413
     60  CG       -29.0030   -1.9510    5.5950 C.3   461  MET461      0.0598
     61  SD       -27.4940   -1.0450    5.2940 S.3   461  MET461     -0.1393
     62  CE       -27.2800   -1.2890    3.5330 C.3   461  MET461      0.0692
     63  N        -33.7060   -2.5340    3.0010 N.3   464  THR464     -0.1218
     64  CA       -34.6680   -2.9080    4.0430 C.3   464  THR464      0.1862
     65  C        -35.8290   -1.9170    4.1440 C.2   464  THR464      0.2287
     66  O        -36.9820   -2.3130    4.3800 O.2   464  THR464     -0.2866
     67  CB       -33.9400   -3.0070    5.3790 C.3   464  THR464      0.1770
     68  OG1      -32.8120   -3.8660    5.2250 O.3   464  THR464     -0.2211
     69  CG2      -34.8670   -3.5090    6.4860 C.3   464  THR464      0.0375
     70  N        -38.5060   -2.9560    1.7040 N.3   467  GLU467     -0.1245
     71  CA       -39.3910   -4.0250    2.1770 C.3   467  GLU467      0.1567
     72  C        -40.3560   -3.5290    3.2390 C.2   467  GLU467      0.2260
     73  O        -41.5650   -3.7660    3.1500 O.2   467  GLU467     -0.2867
     74  CB       -38.6020   -5.2200    2.7170 C.3   467  GLU467      0.0388
     75  CG       -37.8570   -6.0290    1.6800 C.3   467  GLU467      0.1160
     76  CD       -36.3700   -5.7740    1.6550 C.2   467  GLU467      0.3649
     77  OE1      -35.9700   -4.7690    1.0530 O.co2 467  GLU467     -0.2457
     78  OE2      -35.6070   -6.5860    2.2390 O.co2 467  GLU467     -0.2457
     79  N        -39.1160   -2.9150   12.2900 N.3   492  TYR492     -0.1241
     80  CA       -38.1950   -3.9620   11.8920 C.3   492  TYR492      0.1605
     81  C        -37.6980   -4.7310   13.1030 C.2   492  TYR492      0.2264
     82  O        -37.5830   -5.9530   13.0430 O.2   492  TYR492     -0.2867
     83  CB       -37.0340   -3.3850   11.0930 C.3   492  TYR492      0.0534
     84  CG       -36.2480   -4.4350   10.3380 C.ar  492  TYR492     -0.0201
     85  CD1      -36.8300   -5.1860    9.3180 C.ar  492  TYR492     -0.0009
     86  CD2      -34.9100   -4.6730   10.6430 C.ar  492  TYR492     -0.0009
     87  CE1      -36.0840   -6.1630    8.6260 C.ar  492  TYR492      0.0417
     88  CE2      -34.1570   -5.6310    9.9570 C.ar  492  TYR492      0.0417
     89  CZ       -34.7460   -6.3750    8.9560 C.ar  492  TYR492      0.1957
     90  OH       -33.9840   -7.3360    8.3010 O.3   492  TYR492     -0.2866
     91  N        -31.2970   -7.9700   13.5350 N.3   511  TYR511     -0.1227
     92  CA       -31.3840   -6.5800   13.0750 C.3   511  TYR511      0.1736
     93  C        -30.1100   -6.1810   12.3390 C.2   511  TYR511      0.2595
     94  O        -30.1640   -5.5240   11.2940 O.2   511  TYR511     -0.2718
     95  CB       -31.6360   -5.6430   14.2660 C.3   511  TYR511      0.0548
     96  CG       -32.0050   -4.2020   13.9280 C.ar  511  TYR511     -0.0200
     97  CD1      -31.0190   -3.2290   13.7280 C.ar  511  TYR511     -0.0009
     98  CD2      -33.3380   -3.8090   13.8490 C.ar  511  TYR511     -0.0009
     99  CE1      -31.3650   -1.8930   13.4310 C.ar  511  TYR511      0.0417
    100  CE2      -33.7030   -2.4880   13.5600 C.ar  511  TYR511      0.0417
    101  CZ       -32.7190   -1.5410   13.3520 C.ar  511  TYR511      0.1957
    102  OH       -33.0760   -0.2220   13.0750 O.3   511  TYR511     -0.2866
    103  N        -28.9580   -6.6250   12.8400 N.am  512  ASN512     -0.1960
    104  CA       -27.6580   -6.2210   12.3120 C.3   512  ASN512      0.1819
    105  C        -27.1610   -7.1190   11.1900 C.2   512  ASN512      0.2621
    106  O        -26.6150   -6.6190   10.1980 O.2   512  ASN512     -0.2715
    107  CB       -26.6220   -6.1940   13.4410 C.3   512  ASN512      0.1195
    108  CG       -25.2260   -5.8700   12.9430 C.2   512  ASN512      0.2630
    109  OD1      -24.3940   -6.7650   12.7500 O.2   512  ASN512     -0.2716
    110  ND2      -24.9670   -4.5880   12.7000 N.am  512  ASN512     -0.0877
    111  N        -27.3450   -8.4360   11.3170 N.am  513  ALA513     -0.1963
    112  CA       -26.8530   -9.4020   10.3400 C.3   513  ALA513      0.1728
    113  C        -27.9400   -9.9650    9.4250 C.2   513  ALA513      0.2617
    114  O        -27.6100  -10.5760    8.4040 O.2   513  ALA513     -0.2715
    115  CB       -26.1520  -10.5650   11.0560 C.3   513  ALA513      0.0334
    116  N        -29.2100   -9.7570    9.7420 N.am  514  GLY514     -0.1941
    117  CA       -30.2920  -10.3410    8.9890 C.3   514  GLY514      0.1998
    118  C        -30.8190  -11.5770    9.6920 C.2   514  GLY514      0.2481
    119  O        -30.0570  -12.3810   10.2340 O.2   514  GLY514     -0.2729
    120  N        -32.1380  -11.7430    9.7100 N.am  515  PRO515     -0.2715
    121  CA       -32.7140  -12.8730   10.4650 C.3   515  PRO515      0.1536
    122  C        -32.2170  -14.2310   10.0010 C.2   515  PRO515      0.2599
    123  O        -32.0810  -15.1400   10.8290 O.2   515  PRO515     -0.2715
    124  CB       -34.2230  -12.6980   10.2510 C.3   515  PRO515      0.0310
    125  CG       -34.3460  -11.8750    8.9960 C.3   515  PRO515      0.0237
    126  CD       -33.1580  -10.9610    8.9930 C.3   515  PRO515      0.0939
    127  N        -31.9040  -14.3920    8.7140 N.am  516  GLY516     -0.1941
    128  CA       -31.4450  -15.6920    8.2360 C.3   516  GLY516      0.2014
    129  C        -30.1070  -16.0920    8.8250 C.2   516  GLY516      0.2638
    130  O        -29.8640  -17.2740    9.1140 O.2   516  GLY516     -0.2714
    131  N        -29.2130  -15.1150    9.0080 N.am  517  ARG517     -0.1977
    132  CA       -27.9340  -15.4130    9.6370 C.3   517  ARG517      0.1597
    133  C        -28.1100  -15.6730   11.1260 C.2   517  ARG517      0.2287
    134  O        -27.5150  -16.6120   11.6740 O.2   517  ARG517     -0.2864
    135  CB       -26.9470  -14.2720    9.3810 C.3   517  ARG517      0.0334
    136  CG       -26.5200  -14.1940    7.9220 C.3   517  ARG517      0.0492
    137  CD       -25.5410  -13.0750    7.6560 C.3   517  ARG517      0.2205
    138  NE       -24.7930  -13.3270    6.4250 N.pl3 517  ARG517     -0.0865
    139  CZ       -25.2820  -13.1540    5.1980 C.cat 517  ARG517      0.5346
    140  NH1      -26.5300  -12.7270    5.0240 N.pl3 517  ARG517      0.1354
    141  NH2      -24.5210  -13.4160    4.1410 N.pl3 517  ARG517      0.1354
    142  N        -18.5380   -7.9360   13.9500 N.3   540  GLU540     -0.1245
    143  CA       -19.3630   -6.7260   14.0370 C.3   540  GLU540      0.1567
    144  C        -20.6750   -6.9910   14.7770 C.2   540  GLU540      0.2260
    145  O        -21.0920   -6.1990   15.6310 O.2   540  GLU540     -0.2867
    146  CB       -19.6700   -6.1660   12.6450 C.3   540  GLU540      0.0388
    147  CG       -20.8110   -5.1060   12.6940 C.3   540  GLU540      0.1160
    148  CD       -21.4210   -4.7620   11.3330 C.2   540  GLU540      0.3649
    149  OE1      -20.9770   -5.3200   10.3090 O.co2 540  GLU540     -0.2457
    150  OE2      -22.3530   -3.9260   11.2890 O.co2 540  GLU540     -0.2457
@<TRIPOS>BOND
     1    77    76   ar
     2    76    75    1
     3    76    78   ar
     4    75    74    1
     5    70    71    1
     6    71    74    1
     7    71    72    1
     8    30    29    2
     9    19    18    2
    10    63    64    1
    11    73    72    2
    12    29    28    1
    13    62    61    1
    14    28    31    1
    15    28    27    1
    16    18    27   am
    17    18    17    1
    18    64    65    1
    19    64    67    1
    20    31    32    1
    21    31    33    1
    22   141   139    1
    23    65    66    2
    24    57    58    2
    25    57    56    1
    26    59    56    1
    27    59    60    1
    28    17    20    1
    29    17    16    1
    30   140   139    1
    31    20    21    1
    32    56    55    1
    33   139   138    2
    34    68    67    1
    35    61    60    1
    36    13    12    2
    37    21    22    1
    38    67    69    1
    39    34    35    1
    40    16    12   am
    41    12    11    1
    42   138   137    1
    43    55    50   am
    44    51    50    2
    45    35    36    1
    46    35    38    1
    47    22    23    1
    48    25    24    1
    49    50    49    1
    50    36    37    2
    51    23    24    2
    52    15    14    1
    53    24    26    1
    54    53    52    1
    55   137   136    1
    56    10    11    1
    57    11    14    1
    58   136   135    1
    59   128   127    1
    60   128   129    1
    61    90    89    1
    62   114   113    2
    63    49    52    1
    64    49    48    1
    65    52    54    1
    66    87    89   ar
    67    87    85   ar
    68   127   122   am
    69   129   131   am
    70   129   130    2
    71    89    88   ar
    72   117   118    1
    73   117   116    1
    74   126   125    1
    75   126   120    1
    76   125   124    1
    77   131   132    1
    78    48    41   am
    79    85    84   ar
    80   135   132    1
    81   113   116   am
    82   113   112    1
    83   132   133    1
    84   118   120   am
    85   118   119    2
    86   120   121    1
    87    42    41    2
    88    41    40    1
    89    88    86   ar
    90   122   121    1
    91   122   123    2
    92   106   105    2
    93   124   121    1
    94    46    45    2
    95   149   148   ar
    96    84    86   ar
    97    84    83    1
    98   112   115    1
    99   112   111    1
   100    47    45   am
   101    40    43    1
   102    40    39    1
   103    45    44    1
   104    83    80    1
   105   133   134    2
   106   105   111   am
   107   105   104    1
   108   150   148   ar
   109    94    93    2
   110   148   147    1
   111    43    44    1
   112    80    79    1
   113    80    81    1
   114   104   103    1
   115   104   107    1
   116    93   103   am
   117    93    92    1
   118   146   147    1
   119   146   143    1
   120   110   108   am
   121   109   108    2
   122   108   107    1
   123    82    81    2
   124    92    91    1
   125    92    95    1
   126   102   101    1
   127   101    99   ar
   128   101   100   ar
   129    99    97   ar
   130   100    98   ar
   131     8     7   ar
   132    97    96   ar
   133    98    96   ar
   134    96    95    1
   135   142   143    1
   136   143   144    1
   137     9     7   ar
   138     7     6    1
   139     4     3    2
   140   144   145    2
   141     5     6    1
   142     5     2    1
   143     3     2    1
   144     2     1    1
