@<TRIPOS>MOLECULE
tmp/5mptA00.pdb
 174 166 0 0 0
SMALL
GASTEIGER

@<TRIPOS>ATOM
      1  N        -15.3090   29.4180    3.8400 N.3   171  TYR171     -0.1241
      2  CA       -14.0410   29.9170    4.3600 C.3   171  TYR171      0.1605
      3  C        -13.7340   31.3520    3.9600 C.2   171  TYR171      0.2264
      4  O        -13.0070   32.0190    4.6910 O.2   171  TYR171     -0.2867
      5  CB       -12.8830   29.0130    3.9080 C.3   171  TYR171      0.0534
      6  CG       -12.8460   27.6330    4.5260 C.ar  171  TYR171     -0.0201
      7  CD1      -13.1010   27.4220    5.8850 C.ar  171  TYR171     -0.0009
      8  CD2      -12.5510   26.5350    3.7470 C.ar  171  TYR171     -0.0009
      9  CE1      -13.0330   26.1830    6.4200 C.ar  171  TYR171      0.0417
     10  CE2      -12.4850   25.3010    4.2760 C.ar  171  TYR171      0.0417
     11  CZ       -12.7330   25.1160    5.6160 C.ar  171  TYR171      0.1957
     12  OH       -12.6320   23.8330    6.1110 O.3   171  TYR171     -0.2866
     13  N          1.9880   31.7460    4.8140 N.3   206  GLU206     -0.1231
     14  CA         0.6710   31.3130    5.2470 C.3   206  GLU206      0.1699
     15  C          0.6610   29.7930    5.3390 C.2   206  GLU206      0.2592
     16  O          0.9590   29.1000    4.3600 O.2   206  GLU206     -0.2718
     17  CB        -0.4250   31.8170    4.3060 C.3   206  GLU206      0.0402
     18  CG        -1.7980   31.4020    4.7790 C.3   206  GLU206      0.1161
     19  CD        -2.9240   31.8490    3.8880 C.2   206  GLU206      0.3649
     20  OE1       -2.6600   32.4320    2.8170 O.co2 206  GLU206     -0.2457
     21  OE2       -4.0820   31.5660    4.2600 O.co2 206  GLU206     -0.2457
     22  N          0.3410   29.2920    6.5230 N.am  207  MET207     -0.1965
     23  CA         0.1550   27.8720    6.7780 C.3   207  MET207      0.1736
     24  C         -1.3120   27.5100    6.6160 C.2   207  MET207      0.2617
     25  O         -2.1890   28.3220    6.8920 O.2   207  MET207     -0.2715
     26  CB         0.5950   27.5180    8.1980 C.3   207  MET207      0.0427
     27  CG         2.0740   27.7420    8.4700 C.3   207  MET207      0.0599
     28  SD         3.0580   26.3420    7.9180 S.3   207  MET207     -0.1393
     29  CE         4.5910   26.6570    8.7840 C.3   207  MET207      0.0692
     30  N         -1.5480   26.2770    6.1860 N.am  208  GLY208     -0.1940
     31  CA        -2.9250   25.7910    6.0790 C.3   208  GLY208      0.2014
     32  C         -3.7880   26.6860    5.2210 C.2   208  GLY208      0.2639
     33  O         -4.9930   26.8540    5.4840 O.2   208  GLY208     -0.2714
     34  N         -3.2060   27.2420    4.1620 N.am  209  ALA209     -0.1963
     35  CA        -3.9130   28.2370    3.3660 C.3   209  ALA209      0.1728
     36  C         -5.1040   27.6340    2.6440 C.2   209  ALA209      0.2617
     37  O         -6.0530   28.3550    2.3020 O.2   209  ALA209     -0.2715
     38  CB        -2.9490   28.8780    2.3650 C.3   209  ALA209      0.0334
     39  N         -5.0760   26.3310    2.4120 N.am  210  GLY210     -0.1940
     40  CA        -6.2140   25.6110    1.9030 C.3   210  GLY210      0.2014
     41  C         -6.8360   26.2140    0.6670 C.2   210  GLY210      0.2639
     42  O         -6.1720   26.3500   -0.3690 O.2   210  GLY210     -0.2714
     43  N         -8.1110   26.5800    0.7890 N.am  211  THR211     -0.1950
     44  CA        -8.9360   27.1190   -0.2840 C.3   211  THR211      0.1897
     45  C         -8.6400   28.5820   -0.5760 C.2   211  THR211      0.2313
     46  O         -9.2040   29.1320   -1.5260 O.2   211  THR211     -0.2863
     47  CB       -10.4270   26.9590    0.0550 C.3   211  THR211      0.1794
     48  OG1      -10.7840   27.7230    1.2260 O.3   211  THR211     -0.2208
     49  CG2      -10.8080   25.4720    0.2570 C.3   211  THR211      0.0378
     50  N         -9.1240   31.1890    1.6160 N.3   213  GLY213     -0.1210
     51  CA       -10.1420   32.0640    2.1690 C.3   213  GLY213      0.1956
     52  C         -9.5380   33.3250    2.7420 C.2   213  GLY213      0.2612
     53  O        -10.1330   34.4090    2.6640 O.2   213  GLY213     -0.2717
     54  N         -8.3500   33.2030    3.3090 N.am  214  THR214     -0.1952
     55  CA        -7.5700   34.3390    3.7450 C.3   214  THR214      0.1897
     56  C         -6.7210   34.8730    2.6050 C.2   214  THR214      0.2313
     57  O         -6.6310   36.0880    2.4120 O.2   214  THR214     -0.2863
     58  CB        -6.6890   33.9270    4.9260 C.3   214  THR214      0.1794
     59  OG1       -7.5220   33.4830    6.0070 O.3   214  THR214     -0.2208
     60  CG2       -5.8150   35.0920    5.3910 C.3   214  THR214      0.0378
     61  N          0.2950   24.6650    2.3660 N.3   235  ASP235     -0.1225
     62  CA        -0.7400   23.7960    2.9250 C.3   235  ASP235      0.1805
     63  C         -0.1950   22.3840    2.9140 C.2   235  ASP235      0.2598
     64  O          0.7500   22.0790    2.1950 O.2   235  ASP235     -0.2718
     65  CB        -2.0520   23.8440    2.1220 C.3   235  ASP235      0.1424
     66  CG        -3.2630   23.3100    2.9080 C.2   235  ASP235      0.3668
     67  OD1       -4.0000   24.0850    3.5550 O.co2 235  ASP235     -0.2456
     68  OD2       -3.5040   22.0970    2.8720 O.co2 235  ASP235     -0.2456
     69  N         -0.8240   21.5310    3.7130 N.am  236  LEU236     -0.1966
     70  CA        -0.5270   20.1130    3.6480 C.3   236  LEU236      0.1728
     71  C         -0.9310   19.5130    2.3080 C.2   236  LEU236      0.2616
     72  O         -0.3130   18.5380    1.8680 O.2   236  LEU236     -0.2715
     73  CB        -1.2540   19.3780    4.7810 C.3   236  LEU236      0.0311
     74  CG        -0.8040   17.9110    4.9910 C.3   236  LEU236      0.0022
     75  CD1        0.6670   17.8180    5.3360 C.3   236  LEU236      0.0001
     76  CD2       -1.6050   17.2760    6.1080 C.3   236  LEU236      0.0001
     77  N         -1.9730   20.0500    1.6670 N.am  237  SER237     -0.1950
     78  CA        -2.5690   19.4530    0.4730 C.3   237  SER237      0.1924
     79  C         -1.8940   19.9610   -0.7970 C.2   237  SER237      0.2314
     80  O         -1.9110   21.1600   -1.0770 O.2   237  SER237     -0.2863
     81  CB        -4.0640   19.7590    0.4250 C.3   237  SER237      0.2116
     82  OG        -4.5680   19.6260   -0.8920 O.3   237  SER237     -0.2180
     83  N         -4.6160   21.4250   -3.3830 N.3   240  LEU240     -0.1245
     84  CA        -5.0280   22.7970   -3.0790 C.3   240  LEU240      0.1561
     85  C         -3.9470   23.8010   -3.4600 C.2   240  LEU240      0.2260
     86  O         -4.2600   24.8920   -3.9450 O.2   240  LEU240     -0.2867
     87  CB        -5.3920   22.9280   -1.6000 C.3   240  LEU240      0.0270
     88  CG        -6.6930   22.2130   -1.1920 C.3   240  LEU240      0.0019
     89  CD1       -6.9690   22.3310    0.2950 C.3   240  LEU240      0.0001
     90  CD2       -7.8920   22.7600   -1.9560 C.3   240  LEU240      0.0001
     91  N          3.6800   22.4250    2.8540 N.3   259  VAL259     -0.1231
     92  CA         4.3600   22.4970    4.1440 C.3   259  VAL259      0.1692
     93  C          3.4580   21.8810    5.1980 C.2   259  VAL259      0.2592
     94  O          2.2770   22.2290    5.2960 O.2   259  VAL259     -0.2718
     95  CB         4.7280   23.9370    4.5430 C.3   259  VAL259      0.0266
     96  CG1        5.2820   23.9700    5.9780 C.3   259  VAL259      0.0020
     97  CG2        5.7060   24.5150    3.5560 C.3   259  VAL259      0.0020
     98  N          4.0140   20.9830    5.9940 N.am  260  ASN260     -0.1960
     99  CA         3.2950   20.3440    7.0880 C.3   260  ASN260      0.1819
    100  C          3.6720   21.0350    8.3900 C.2   260  ASN260      0.2621
    101  O          4.8570   21.0670    8.7600 O.2   260  ASN260     -0.2715
    102  CB         3.6480   18.8600    7.1350 C.3   260  ASN260      0.1195
    103  CG         2.8680   18.0940    8.1800 C.2   260  ASN260      0.2630
    104  OD1        2.3130   18.6480    9.1180 O.2   260  ASN260     -0.2716
    105  ND2        2.9060   16.7710    8.0530 N.am  260  ASN260     -0.0877
    106  N          2.6810   21.6730    9.0170 N.am  261  ILE261     -0.1963
    107  CA         2.8400   22.3640   10.2950 C.3   261  ILE261      0.1727
    108  C          3.5170   21.4960   11.3330 C.2   261  ILE261      0.2616
    109  O          4.2600   22.0150   12.1810 O.2   261  ILE261     -0.2715
    110  CB         1.4670   22.8370   10.8010 C.3   261  ILE261      0.0290
    111  CG1        0.8750   23.8390    9.8130 C.3   261  ILE261      0.0022
    112  CG2        1.5530   23.3950   12.2340 C.3   261  ILE261      0.0023
    113  CD1       -0.6270   24.0910    9.9650 C.3   261  ILE261      0.0001
    114  N          3.2810   20.1680   11.2940 N.am  262  GLU262     -0.1977
    115  CA         3.8170   19.2730   12.3190 C.3   262  GLU262      0.1602
    116  C          5.2830   18.9390   12.0980 C.2   262  GLU262      0.2287
    117  O          5.9360   18.4580   13.0320 O.2   262  GLU262     -0.2864
    118  CB         3.0220   17.9560   12.3720 C.3   262  GLU262      0.0415
    119  CG         1.5850   18.1700   12.7800 C.3   262  GLU262      0.1163
    120  CD         0.8390   16.8940   13.1350 C.2   262  GLU262      0.3649
    121  OE1        1.4910   15.8200   13.2450 O.co2 262  GLU262     -0.2457
    122  OE2       -0.3940   16.9690   13.3070 O.co2 262  GLU262     -0.2457
    123  N         -4.9350   30.3300    9.5280 N.3   279  THR279     -0.1203
    124  CA        -6.3690   30.4400    9.7700 C.3   279  THR279      0.1994
    125  C         -6.9430   29.0450    9.9140 C.2   279  THR279      0.2618
    126  O         -7.0380   28.3090    8.9270 O.2   279  THR279     -0.2717
    127  CB        -7.0440   31.2000    8.6340 C.3   279  THR279      0.1784
    128  OG1       -6.5300   32.5330    8.6070 O.3   279  THR279     -0.2211
    129  CG2       -8.5810   31.1750    8.7570 C.3   279  THR279      0.0376
    130  N         -7.2970   28.6980   11.1660 N.am  280  ASN280     -0.1960
    131  CA        -8.0510   27.4970   11.5350 C.3   280  ASN280      0.1819
    132  C         -7.4160   26.2280   10.9950 C.2   280  ASN280      0.2621
    133  O         -8.0990   25.2760   10.5920 O.2   280  ASN280     -0.2715
    134  CB        -9.5080   27.6480   11.1330 C.3   280  ASN280      0.1195
    135  CG       -10.2640   28.4160   12.1810 C.2   280  ASN280      0.2630
    136  OD1      -10.1460   28.1150   13.3850 O.2   280  ASN280     -0.2716
    137  ND2      -10.9850   29.4440   11.7800 N.am  280  ASN280     -0.0877
    138  N         -6.1130   26.1820   11.0680 N.am  281  CYS281     -0.1968
    139  CA        -5.3580   24.9990   10.6970 C.3   281  CYS281      0.1712
    140  C         -4.5020   24.4600   11.8270 C.2   281  CYS281      0.2296
    141  O         -4.3330   23.2390   11.9240 O.2   281  CYS281     -0.2864
    142  CB        -4.4730   25.2800    9.4770 C.3   281  CYS281      0.0983
    143  SG        -3.3110   26.6520    9.7720 S.3   281  CYS281     -0.0798
    144  N         -5.8480   21.7470   14.0150 N.3   284  ALA284     -0.1231
    145  CA        -6.0850   20.4320   13.4160 C.3   284  ALA284      0.1694
    146  C         -4.8990   19.5140   13.5660 C.2   284  ALA284      0.2592
    147  O         -4.9850   18.3460   13.1510 O.2   284  ALA284     -0.2718
    148  CB        -6.4120   20.5820   11.9250 C.3   284  ALA284      0.0304
    149  N         -3.8350   19.9830   14.1830 N.am  285  THR285     -0.1953
    150  CA        -2.6460   19.1570   14.3190 C.3   285  THR285      0.1897
    151  C         -2.7080   18.3440   15.6120 C.2   285  THR285      0.2313
    152  O         -3.5370   18.5750   16.4980 O.2   285  THR285     -0.2863
    153  CB        -1.3760   20.0140   14.2760 C.3   285  THR285      0.1794
    154  OG1       -1.2980   20.8840   15.4150 O.3   285  THR285     -0.2208
    155  CG2       -1.3170   20.8480   13.0120 C.3   285  THR285      0.0378
    156  N        -17.8420   19.1090   10.6270 N.3   321  PHE321     -0.1241
    157  CA       -16.4400   18.7400   10.6550 C.3   321  PHE321      0.1605
    158  C        -16.1760   17.5760   11.5780 C.2   321  PHE321      0.2264
    159  O        -15.1930   16.8490   11.3730 O.2   321  PHE321     -0.2867
    160  CB       -15.6020   19.9540   11.0450 C.3   321  PHE321      0.0534
    161  CG       -15.5190   20.9840    9.9590 C.ar  321  PHE321     -0.0203
    162  CD1      -16.4610   21.9840    9.8510 C.ar  321  PHE321     -0.0042
    163  CD2      -14.4620   20.9670    9.0600 C.ar  321  PHE321     -0.0042
    164  CE1      -16.3920   22.9310    8.8350 C.ar  321  PHE321     -0.0003
    165  CE2      -14.3680   21.9320    8.0570 C.ar  321  PHE321     -0.0003
    166  CZ       -15.3260   22.9020    7.9430 C.ar  321  PHE321     -0.0000
    167  N         -7.6290   14.6420   15.4570 N.3   329  LEU329     -0.1245
    168  CA        -6.2360   14.2130   15.4910 C.3   329  LEU329      0.1561
    169  C         -5.5240   14.5470   16.7900 C.2   329  LEU329      0.2260
    170  O         -4.4690   13.9580   17.0620 O.2   329  LEU329     -0.2867
    171  CB        -5.4570   14.8100   14.3330 C.3   329  LEU329      0.0270
    172  CG        -5.7880   14.3420   12.9210 C.3   329  LEU329      0.0019
    173  CD1       -4.8590   15.0120   11.9130 C.3   329  LEU329      0.0001
    174  CD2       -5.6640   12.8330   12.8300 C.3   329  LEU329      0.0001
@<TRIPOS>BOND
     1    86    85    2
     2    85    84    1
     3    83    84    1
     4    84    87    1
     5    90    88    1
     6    87    88    1
     7    46    45    2
     8    88    89    1
     9    80    79    2
    10    82    81    1
    11    79    78    1
    12    45    44    1
    13    42    41    2
    14    44    47    1
    15    44    43    1
    16    47    49    1
    17    47    48    1
    18    81    78    1
    19    78    77    1
    20    41    43   am
    21    41    40    1
    22    50    51    1
    23    77    71   am
    24    72    71    2
    25    40    39    1
    26    65    66    1
    27    65    62    1
    28    51    52    1
    29    64    63    2
    30    37    36    2
    31    71    70    1
    32    38    35    1
    33    61    62    1
    34    57    56    2
    35    39    36   am
    36    56    55    1
    37    36    35    1
    38    53    52    2
    39    52    54   am
    40    20    19   ar
    41    91    92    1
    42    68    66   ar
    43    66    67   ar
    44    63    62    1
    45    63    69   am
    46    54    55    1
    47    35    34    1
    48    97    95    1
    49    70    69    1
    50    70    73    1
    51    55    58    1
    52     8    10   ar
    53     8     6   ar
    54     1     2    1
    55    19    21   ar
    56    19    18    1
    57     5     2    1
    58     5     6    1
    59     3     2    1
    60     3     4    2
    61    92    95    1
    62    92    93    1
    63    34    32   am
    64    10    11   ar
    65    17    18    1
    66    17    14    1
    67    16    15    2
    68     6     7   ar
    69    95    96    1
    70    73    74    1
    71    13    14    1
    72    58    60    1
    73    58    59    1
    74    74    75    1
    75    74    76    1
    76    93    94    2
    77    93    98   am
    78    32    33    2
    79    32    31    1
    80    14    15    1
    81    15    22   am
    82    11    12    1
    83    11     9   ar
    84     7     9   ar
    85    98    99    1
    86    31    30    1
    87    30    24   am
    88    22    23    1
    89    24    23    1
    90    24    25    2
    91    23    26    1
    92    99   102    1
    93    99   100    1
    94   102   103    1
    95    28    27    1
    96    28    29    1
    97   166   165   ar
    98   166   164   ar
    99   105   103   am
   100   165   163   ar
   101   103   104    2
   102    26    27    1
   103   100   101    2
   104   100   106   am
   105   128   127    1
   106   127   129    1
   107   127   124    1
   108   164   162   ar
   109   126   125    2
   110   106   107    1
   111   163   161   ar
   112   142   143    1
   113   142   139    1
   114   123   124    1
   115   124   125    1
   116   111   113    1
   117   111   110    1
   118   162   161   ar
   119   125   130   am
   120   161   160    1
   121   107   110    1
   122   107   108    1
   123   133   132    2
   124   156   157    1
   125   157   160    1
   126   157   158    1
   127   139   138    1
   128   139   140    1
   129   110   112    1
   130   132   138   am
   131   132   131    1
   132   134   131    1
   133   134   135    1
   134   130   131    1
   135   114   108   am
   136   114   115    1
   137   108   109    2
   138   159   158    2
   139   137   135   am
   140   140   141    2
   141   173   172    1
   142   148   145    1
   143   116   115    1
   144   116   117    2
   145   135   136    2
   146   115   118    1
   147   118   119    1
   148   119   120    1
   149   174   172    1
   150   172   171    1
   151   155   153    1
   152   120   121   ar
   153   120   122   ar
   154   147   146    2
   155   145   146    1
   156   145   144    1
   157   146   149   am
   158   149   150    1
   159   153   150    1
   160   153   154    1
   161   150   151    1
   162   171   168    1
   163   167   168    1
   164   168   169    1
   165   151   152    2
   166   169   170    2
