@<TRIPOS>MOLECULE
tmp/5mpzA00.pdb
 101 95 0 0 0
SMALL
GASTEIGER

@<TRIPOS>ATOM
      1  N          6.0450   23.7300   70.3560 N.3    27  PRO27      -0.2102
      2  CA         5.2960   22.9230   71.3390 C.3    27  PRO27       0.1504
      3  C          4.9320   21.5400   70.8500 C.2    27  PRO27       0.2575
      4  O          4.4810   20.7190   71.6620 O.2    27  PRO27      -0.2718
      5  CB         4.0290   23.7430   71.5910 C.3    27  PRO27       0.0282
      6  CG         4.3750   25.1360   71.1600 C.3    27  PRO27       0.0208
      7  CD         5.3340   24.9800   70.0190 C.3    27  PRO27       0.0893
      8  N          5.1090   21.2640   69.5620 N.am   28  PHE28      -0.1977
      9  CA         4.7050   20.0180   68.9380 C.3    28  PHE28       0.1639
     10  C          5.8820   19.1090   68.6340 C.2    28  PHE28       0.2290
     11  O          5.6670   17.9800   68.1740 O.2    28  PHE28      -0.2864
     12  CB         3.9480   20.3200   67.6380 C.3    28  PHE28       0.0560
     13  CG         2.6660   21.0650   67.8520 C.ar   28  PHE28      -0.0200
     14  CD1        2.6520   22.4510   67.9380 C.ar   28  PHE28      -0.0042
     15  CD2        1.4670   20.3760   67.9590 C.ar   28  PHE28      -0.0042
     16  CE1        1.4600   23.1430   68.1380 C.ar   28  PHE28      -0.0003
     17  CE2        0.2750   21.0590   68.1650 C.ar   28  PHE28      -0.0003
     18  CZ         0.2760   22.4430   68.2500 C.ar   28  PHE28      -0.0000
     19  N          4.0590   15.9770   74.6710 N.3    32  VAL32      -0.1245
     20  CA         3.6480   16.7880   75.8120 C.3    32  VAL32       0.1561
     21  C          4.0370   16.0680   77.0930 C.2    32  VAL32       0.2260
     22  O          3.7050   14.8930   77.2790 O.2    32  VAL32      -0.2867
     23  CB         2.1330   17.0490   75.7590 C.3    32  VAL32       0.0252
     24  CG1        1.6590   17.6740   77.0680 C.3    32  VAL32       0.0019
     25  CG2        1.7890   17.9450   74.5800 C.3    32  VAL32       0.0019
     26  N          5.5270   20.5430   82.0400 N.3    37  LEU37      -0.1245
     27  CA         4.8350   21.7450   81.5980 C.3    37  LEU37       0.1561
     28  C          3.8550   22.2890   82.6240 C.2    37  LEU37       0.2260
     29  O          3.2580   23.3450   82.3810 O.2    37  LEU37      -0.2867
     30  CB         4.0980   21.4660   80.2920 C.3    37  LEU37       0.0270
     31  CG         5.0010   21.1440   79.1070 C.3    37  LEU37       0.0019
     32  CD1        4.1840   20.6050   77.9510 C.3    37  LEU37       0.0001
     33  CD2        5.7900   22.3830   78.6950 C.3    37  LEU37       0.0001
     34  N          0.9140   20.9250   83.6160 N.3    39  ILE39      -0.1245
     35  CA        -0.4690   20.6860   83.2030 C.3    39  ILE39       0.1561
     36  C         -0.8500   19.2600   83.5890 C.2    39  ILE39       0.2260
     37  O         -1.0330   18.4040   82.7100 O.2    39  ILE39      -0.2867
     38  CB        -0.6670   20.9720   81.7060 C.3    39  ILE39       0.0252
     39  CG1        0.4280   20.3080   80.8580 C.3    39  ILE39       0.0019
     40  CG2       -0.6890   22.4820   81.4600 C.3    39  ILE39       0.0019
     41  CD1        0.2170   20.4160   79.3690 C.3    39  ILE39       0.0001
     42  N         -3.4360   16.7540   81.7560 N.3    42  TYR42      -0.1241
     43  CA        -3.3640   16.5610   80.3060 C.3    42  TYR42       0.1605
     44  C         -3.8260   15.1610   79.8820 C.2    42  TYR42       0.2264
     45  O         -4.6570   15.0220   78.9720 O.2    42  TYR42      -0.2867
     46  CB        -1.9460   16.8430   79.8030 C.3    42  TYR42       0.0534
     47  CG        -1.8530   16.7520   78.3070 C.ar   42  TYR42      -0.0201
     48  CD1       -2.2810   17.7980   77.5040 C.ar   42  TYR42      -0.0009
     49  CD2       -1.3710   15.6100   77.6860 C.ar   42  TYR42      -0.0009
     50  CE1       -2.2220   17.7200   76.1200 C.ar   42  TYR42       0.0417
     51  CE2       -1.3080   15.5190   76.3050 C.ar   42  TYR42       0.0417
     52  CZ        -1.7400   16.5710   75.5240 C.ar   42  TYR42       0.1957
     53  OH        -1.6800   16.4690   74.1490 O.3    42  TYR42      -0.2866
     54  N         -0.0550   12.5480   70.5390 N.3    50  MET50      -0.1245
     55  CA         0.7500   12.4280   69.3290 C.3    50  MET50       0.1570
     56  C          1.5420   13.7130   69.1460 C.2    50  MET50       0.2261
     57  O          1.0780   14.7850   69.5230 O.2    50  MET50      -0.2867
     58  CB        -0.1590   12.1740   68.1170 C.3    50  MET50       0.0387
     59  CG         0.5630   11.8780   66.8050 C.3    50  MET50       0.0595
     60  SD         1.7340   10.5050   66.8870 S.3    50  MET50      -0.1393
     61  CE         0.6940    9.1580   67.4560 C.3    50  MET50       0.0692
     62  N         -2.5860   14.7400   66.2520 N.3    77  MET77      -0.1245
     63  CA        -1.7700   15.7330   66.9350 C.3    77  MET77       0.1570
     64  C         -2.4730   17.0840   66.9890 C.2    77  MET77       0.2261
     65  O         -2.5270   17.7220   68.0480 O.2    77  MET77      -0.2867
     66  CB        -0.4380   15.8560   66.1930 C.3    77  MET77       0.0387
     67  CG         0.4430   16.9850   66.6820 C.3    77  MET77       0.0595
     68  SD         2.0170   17.0600   65.7870 S.3    77  MET77      -0.1393
     69  CE         1.4420   17.2570   64.0980 C.3    77  MET77       0.0692
     70  N         -4.3900   19.1170   70.3940 N.3    81  ALA81      -0.1245
     71  CA        -4.0250   20.4550   70.8480 C.3    81  ALA81       0.1562
     72  C         -5.2330   21.3840   70.8410 C.2    81  ALA81       0.2260
     73  O         -5.3850   22.2150   71.7410 O.2    81  ALA81      -0.2867
     74  CB        -2.8870   21.0160   69.9960 C.3    81  ALA81       0.0290
     75  N         -7.3040   20.2260   74.0670 N.3    84  TYR84      -0.1227
     76  CA        -6.8150   20.5190   75.4090 C.3    84  TYR84       0.1736
     77  C         -6.7090   22.0210   75.6730 C.2    84  TYR84       0.2595
     78  O         -6.9900   22.4750   76.7860 O.2    84  TYR84      -0.2718
     79  CB        -5.4540   19.8520   75.6510 C.3    84  TYR84       0.0548
     80  CG        -4.9680   20.1640   77.0330 C.ar   84  TYR84      -0.0200
     81  CD1       -5.4840   19.4910   78.1260 C.ar   84  TYR84      -0.0009
     82  CD2       -4.0520   21.1880   77.2540 C.ar   84  TYR84      -0.0009
     83  CE1       -5.0960   19.8140   79.4110 C.ar   84  TYR84       0.0417
     84  CE2       -3.6570   21.5110   78.5350 C.ar   84  TYR84       0.0417
     85  CZ        -4.1760   20.8210   79.6020 C.ar   84  TYR84       0.1957
     86  OH        -3.7710   21.1540   80.8810 O.3    84  TYR84      -0.2866
     87  N         -6.2600   22.7870   74.6870 N.am   85  ASN85      -0.1974
     88  CA        -5.9210   24.1880   74.8910 C.3    85  ASN85       0.1688
     89  C         -7.1070   25.0840   74.5510 C.2    85  ASN85       0.2292
     90  O         -7.9270   24.7560   73.6920 O.2    85  ASN85      -0.2864
     91  CB        -4.7190   24.5310   74.0080 C.3    85  ASN85       0.1181
     92  CG        -3.4830   23.7160   74.3540 C.2    85  ASN85       0.2629
     93  OD1       -2.8000   23.9870   75.3410 O.2    85  ASN85      -0.2716
     94  ND2       -3.1970   22.7000   73.5400 N.am   85  ASN85      -0.0877
     95  N         -0.7930   27.9930   72.1320 N.3    91  VAL91      -0.1245
     96  CA        -0.6720   26.6830   71.4850 C.3    91  VAL91       0.1561
     97  C         -1.8280   26.4330   70.5120 C.2    91  VAL91       0.2260
     98  O         -1.6290   25.8690   69.4280 O.2    91  VAL91      -0.2867
     99  CB        -0.5100   25.5600   72.5280 C.3    91  VAL91       0.0252
    100  CG1       -0.5740   24.1840   71.8570 C.3    91  VAL91       0.0019
    101  CG2        0.8060   25.7030   73.2690 C.3    91  VAL91       0.0019
@<TRIPOS>BOND
     1    69    68    1
     2    68    67    1
     3    66    67    1
     4    66    63    1
     5    62    63    1
     6    59    60    1
     7    59    58    1
     8    60    61    1
     9    63    64    1
    10    64    65    2
    11    12    13    1
    12    12     9    1
    13    13    14   ar
    14    13    15   ar
    15    14    16   ar
    16    15    17   ar
    17    58    55    1
    18    16    18   ar
    19    17    18   ar
    20    11    10    2
    21    10     9    1
    22     9     8    1
    23    56    55    1
    24    56    57    2
    25    55    54    1
    26    98    97    2
    27     8     3   am
    28    74    71    1
    29     7     1    1
    30     7     6    1
    31     1     2    1
    32    70    71    1
    33    97    96    1
    34    72    71    1
    35    72    73    2
    36     3     2    1
    37     3     4    2
    38     6     5    1
    39     2     5    1
    40    96    95    1
    41    96    99    1
    42   100    99    1
    43    99   101    1
    44    94    92   am
    45    90    89    2
    46    91    92    1
    47    91    88    1
    48    75    76    1
    49    53    52    1
    50    92    93    2
    51    89    88    1
    52    25    23    1
    53    19    20    1
    54    87    88    1
    55    87    77   am
    56    76    79    1
    57    76    77    1
    58    52    50   ar
    59    52    51   ar
    60    79    80    1
    61    77    78    2
    62    23    20    1
    63    23    24    1
    64    20    21    1
    65    50    48   ar
    66    51    49   ar
    67    80    82   ar
    68    80    81   ar
    69    21    22    2
    70    82    84   ar
    71    48    47   ar
    72    49    47   ar
    73    32    31    1
    74    81    83   ar
    75    47    46    1
    76    84    85   ar
    77    33    31    1
    78    45    44    2
    79    31    30    1
    80    41    39    1
    81    83    85   ar
    82    85    86    1
    83    46    43    1
    84    44    43    1
    85    30    27    1
    86    43    42    1
    87    39    38    1
    88    40    38    1
    89    27    26    1
    90    27    28    1
    91    38    35    1
    92    29    28    2
    93    37    36    2
    94    35    36    1
    95    35    34    1
