@<TRIPOS>MOLECULE
tmp/5mq1A00.pdb
 128 128 0 0 0
SMALL
GASTEIGER

@<TRIPOS>ATOM
      1  N         18.3060  148.9190   36.0150 N.3    22  SER22      -0.1202
      2  CA        18.6370  150.0900   36.8450 C.3    22  SER22       0.2020
      3  C         19.0270  149.7680   38.2930 C.2    22  SER22       0.2619
      4  O         19.4180  150.6820   39.0440 O.2    22  SER22      -0.2717
      5  CB        17.4970  151.1200   36.7960 C.3    22  SER22       0.2103
      6  OG        17.1780  151.5320   35.4610 O.3    22  SER22      -0.2182
      7  N         18.8220  148.5150   38.7190 N.am   23  ALA23      -0.1965
      8  CA        19.1410  148.0980   40.0840 C.3    23  ALA23       0.1728
      9  C         18.3500  148.8720   41.1470 C.2    23  ALA23       0.2616
     10  O         18.8280  149.0940   42.2900 O.2    23  ALA23      -0.2715
     11  CB        20.6490  148.1860   40.3560 C.3    23  ALA23       0.0334
     12  N         17.1180  149.2550   40.8120 N.am   24  PHE24      -0.1960
     13  CA        16.2780  149.9460   41.7710 C.3    24  PHE24       0.1771
     14  C         15.7730  148.9840   42.8970 C.2    24  PHE24       0.2619
     15  O         15.4010  149.4380   43.9720 O.2    24  PHE24      -0.2715
     16  CB        15.0780  150.6010   41.1090 C.3    24  PHE24       0.0574
     17  CG        15.3470  151.7740   40.1950 C.ar   24  PHE24      -0.0200
     18  CD1       16.5020  152.5620   40.2600 C.ar   24  PHE24      -0.0042
     19  CD2       14.3830  152.1590   39.2780 C.ar   24  PHE24      -0.0042
     20  CE1       16.6790  153.6350   39.3980 C.ar   24  PHE24      -0.0003
     21  CE2       14.5700  153.2290   38.4170 C.ar   24  PHE24      -0.0003
     22  CZ        15.7070  153.9940   38.5120 C.ar   24  PHE24      -0.0000
     23  N         15.7290  147.6720   42.6290 N.am   25  PHE25      -0.1974
     24  CA        15.0980  146.6950   43.5320 C.3    25  PHE25       0.1639
     25  C         16.1500  145.7060   44.1270 C.2    25  PHE25       0.2290
     26  O         15.7790  144.7590   44.8340 O.2    25  PHE25      -0.2864
     27  CB        13.9600  145.9580   42.7940 C.3    25  PHE25       0.0560
     28  CG        12.8970  146.8740   42.3440 C.ar   25  PHE25      -0.0200
     29  CD1       11.8940  147.2640   43.2460 C.ar   25  PHE25      -0.0042
     30  CD2       12.9270  147.4450   41.0610 C.ar   25  PHE25      -0.0042
     31  CE1       10.9260  148.1610   42.8700 C.ar   25  PHE25      -0.0003
     32  CE2       11.9150  148.3490   40.7150 C.ar   25  PHE25      -0.0003
     33  CZ        10.9350  148.6880   41.6200 C.ar   25  PHE25      -0.0000
     34  N         18.4880  146.1320   46.6150 N.3    27  PHE27      -0.1228
     35  CA        18.7400  146.2690   48.0780 C.3    27  PHE27       0.1721
     36  C         17.6200  147.0440   48.7770 C.2    27  PHE27       0.2437
     37  O         16.8060  147.7040   48.1030 O.2    27  PHE27      -0.2733
     38  CB        20.1250  146.9520   48.3040 C.3    27  PHE27       0.0547
     39  CG        21.2770  146.1100   47.8180 C.ar   27  PHE27      -0.0202
     40  CD1       21.6960  145.0140   48.5720 C.ar   27  PHE27      -0.0042
     41  CD2       21.9170  146.3750   46.6110 C.ar   27  PHE27      -0.0042
     42  CE1       22.7600  144.2160   48.1290 C.ar   27  PHE27      -0.0003
     43  CE2       22.9670  145.5700   46.1680 C.ar   27  PHE27      -0.0003
     44  CZ        23.3360  144.4980   46.9210 C.ar   27  PHE27      -0.0000
     45  N         17.5430  146.9720   50.1200 N.am   28  PRO28      -0.2718
     46  CA        16.4500  147.6780   50.8080 C.3    28  PRO28       0.1535
     47  C         16.4640  149.1970   50.5840 C.2    28  PRO28       0.2598
     48  O         17.5550  149.8350   50.5030 O.2    28  PRO28      -0.2715
     49  CB        16.7010  147.3490   52.2850 C.3    28  PRO28       0.0310
     50  CG        17.4480  146.0680   52.2600 C.3    28  PRO28       0.0237
     51  CD        18.3380  146.1510   51.0610 C.3    28  PRO28       0.0939
     52  N         15.2840  149.7720   50.4150 N.am   29  VAL29      -0.1978
     53  CA        15.1360  151.2510   50.3470 C.3    29  VAL29       0.1596
     54  C         15.2830  151.8900   51.7220 C.2    29  VAL29       0.2287
     55  O         14.4970  151.6150   52.6220 O.2    29  VAL29      -0.2864
     56  CB        13.7420  151.6410   49.8080 C.3    29  VAL29       0.0276
     57  CG1       13.6080  153.1520   49.6750 C.3    29  VAL29       0.0022
     58  CG2       13.4610  150.9600   48.4350 C.3    29  VAL29       0.0022
     59  N         17.6880  157.5100   51.0870 N.3    33  ILE33      -0.1231
     60  CA        17.3730  157.6550   49.6510 C.3    33  ILE33       0.1692
     61  C         15.9210  158.0220   49.3740 C.2    33  ILE33       0.2591
     62  O         15.6460  158.6640   48.3360 O.2    33  ILE33      -0.2718
     63  CB        17.7980  156.4720   48.8260 C.3    33  ILE33       0.0266
     64  CG1       18.0950  156.9150   47.3970 C.3    33  ILE33       0.0019
     65  CG2       16.7450  155.4120   48.8070 C.3    33  ILE33       0.0020
     66  CD1       18.8270  155.9120   46.5730 C.3    33  ILE33       0.0001
     67  N         15.0260  157.7050   50.3040 N.am   34  ALA34      -0.1980
     68  CA        13.5980  157.9340   50.1540 C.3    34  ALA34       0.1597
     69  C         12.9920  158.4690   51.4470 C.2    34  ALA34       0.2287
     70  O         12.6040  157.6960   52.3380 O.2    34  ALA34      -0.2864
     71  CB        12.8920  156.6040   49.7220 C.3    34  ALA34       0.0319
     72  N         10.2950  156.8260   54.1280 N.3    37  TYR37      -0.1241
     73  CA         9.8790  155.4580   53.6020 C.3    37  TYR37       0.1605
     74  C          9.3500  154.5520   54.6910 C.2    37  TYR37       0.2264
     75  O          8.2340  153.9540   54.5290 O.2    37  TYR37      -0.2867
     76  CB        11.0310  154.7990   52.8450 C.3    37  TYR37       0.0534
     77  CG        10.6110  153.6130   51.9900 C.ar   37  TYR37      -0.0201
     78  CD1       10.1300  153.8530   50.6990 C.ar   37  TYR37      -0.0009
     79  CD2       10.7150  152.3080   52.4540 C.ar   37  TYR37      -0.0009
     80  CE1        9.7210  152.7820   49.8810 C.ar   37  TYR37       0.0417
     81  CE2       10.3330  151.2310   51.6610 C.ar   37  TYR37       0.0417
     82  CZ         9.8640  151.4810   50.3840 C.ar   37  TYR37       0.1957
     83  OH         9.4500  150.3820   49.5790 O.3    37  TYR37      -0.2866
     84  N          6.3680  149.8980   45.9280 N.3    76  ALA76      -0.1245
     85  CA         6.8190  151.0750   45.1360 C.3    76  ALA76       0.1562
     86  C          5.6100  151.8600   44.6080 C.2    76  ALA76       0.2260
     87  O          5.7000  153.1080   44.4900 O.2    76  ALA76      -0.2867
     88  CB         7.7260  150.6840   43.9890 C.3    76  ALA76       0.0290
     89  N          4.2360  153.9420   47.8830 N.3    79  TYR79      -0.1227
     90  CA         5.0930  155.0570   48.3130 C.3    79  TYR79       0.1736
     91  C          5.2560  156.1620   47.2510 C.2    79  TYR79       0.2595
     92  O          5.2690  157.3800   47.6180 O.2    79  TYR79      -0.2718
     93  CB         6.4450  154.5510   48.7930 C.3    79  TYR79       0.0548
     94  CG         7.4400  155.6880   49.1300 C.ar   79  TYR79      -0.0200
     95  CD1        7.4070  156.3140   50.3660 C.ar   79  TYR79      -0.0009
     96  CD2        8.3750  156.1380   48.2070 C.ar   79  TYR79      -0.0009
     97  CE1        8.3080  157.3430   50.6760 C.ar   79  TYR79       0.0417
     98  CE2        9.2720  157.1870   48.5140 C.ar   79  TYR79       0.0417
     99  CZ         9.2330  157.7380   49.7750 C.ar   79  TYR79       0.1957
    100  OH        10.1220  158.7920   50.0250 O.3    79  TYR79      -0.2866
    101  N          5.4530  155.7940   45.9880 N.am   80  ASN80      -0.1974
    102  CA         5.7360  156.7590   44.8840 C.3    80  ASN80       0.1688
    103  C          4.4300  157.1280   44.1550 C.2    80  ASN80       0.2292
    104  O          3.5780  156.2640   43.9580 O.2    80  ASN80      -0.2864
    105  CB         6.7170  156.1430   43.8910 C.3    80  ASN80       0.1181
    106  CG         8.0370  155.7310   44.5260 C.2    80  ASN80       0.2629
    107  OD1        8.9030  156.5900   44.7910 O.2    80  ASN80      -0.2716
    108  ND2        8.2000  154.4330   44.8030 N.am   80  ASN80      -0.0877
    109  N          9.4000  158.0090   38.1730 N.3    85  ILE85      -0.1231
    110  CA        10.1380  156.9880   37.5830 C.3    85  ILE85       0.1692
    111  C         10.0210  155.6230   38.3270 C.2    85  ILE85       0.2592
    112  O         10.0170  154.5120   37.7290 O.2    85  ILE85      -0.2718
    113  CB        11.6620  157.3040   37.2830 C.3    85  ILE85       0.0266
    114  CG1       12.4740  157.3500   38.5730 C.3    85  ILE85       0.0019
    115  CG2       11.7870  158.4960   36.3420 C.3    85  ILE85       0.0020
    116  CD1       13.9960  157.6070   38.3640 C.3    85  ILE85       0.0001
    117  N          9.9030  155.6710   39.6550 N.am   86  TYR86      -0.1976
    118  CA         9.8660  154.4490   40.4850 C.3    86  TYR86       0.1639
    119  C          8.5470  153.6940   40.3910 C.2    86  TYR86       0.2290
    120  O          8.5500  152.4450   40.3190 O.2    86  TYR86      -0.2864
    121  CB        10.2130  154.7730   41.9340 C.3    86  TYR86       0.0560
    122  CG        11.5770  155.4250   42.0400 C.ar   86  TYR86      -0.0198
    123  CD1       12.7620  154.7310   41.6610 C.ar   86  TYR86      -0.0009
    124  CD2       11.6810  156.7370   42.4580 C.ar   86  TYR86      -0.0009
    125  CE1       13.9660  155.3960   41.6830 C.ar   86  TYR86       0.0417
    126  CE2       12.9020  157.3830   42.5200 C.ar   86  TYR86       0.0417
    127  CZ        14.0410  156.6860   42.1270 C.ar   86  TYR86       0.1957
    128  OH        15.3140  157.3130   42.1600 O.3    86  TYR86      -0.2866
@<TRIPOS>BOND
     1     6     5    1
     2     1     2    1
     3   115   113    1
     4     5     2    1
     5     2     3    1
     6   113   110    1
     7   113   114    1
     8   110   109    1
     9   110   111    1
    10   112   111    2
    11     3     7   am
    12     3     4    2
    13   111   117   am
    14   116   114    1
    15    21    22   ar
    16    21    19   ar
    17    22    20   ar
    18     7     8    1
    19    19    17   ar
    20    20    18   ar
    21   117   118    1
    22     8    11    1
    23     8     9    1
    24    17    18   ar
    25    17    16    1
    26   120   119    2
    27   119   118    1
    28   118   121    1
    29    32    30   ar
    30    32    33   ar
    31    12     9   am
    32    12    13    1
    33    30    28   ar
    34    16    13    1
    35     9    10    2
    36    33    31   ar
    37   123   125   ar
    38   123   122   ar
    39   125   127   ar
    40    13    14    1
    41   121   122    1
    42   122   124   ar
    43   127   128    1
    44   127   126   ar
    45    28    27    1
    46    28    29   ar
    47   124   126   ar
    48    23    14   am
    49    23    24    1
    50    27    24    1
    51    31    29   ar
    52    14    15    2
    53    24    25    1
    54   105   106    1
    55   105   102    1
    56   104   103    2
    57    88    85    1
    58    25    26    2
    59   103   102    1
    60    87    86    2
    61   106   107    2
    62   106   108   am
    63    86    85    1
    64   102   101    1
    65    85    84    1
    66   101    91   am
    67    43    41   ar
    68    43    44   ar
    69    66    64    1
    70    41    39   ar
    71    34    35    1
    72    44    42   ar
    73    91    92    2
    74    91    90    1
    75    64    63    1
    76    39    38    1
    77    39    40   ar
    78    89    90    1
    79    35    38    1
    80    35    36    1
    81    37    36    2
    82    42    40   ar
    83    96    98   ar
    84    96    94   ar
    85    90    93    1
    86    62    61    2
    87    58    56    1
    88    98    99   ar
    89    36    45   am
    90    93    94    1
    91    65    63    1
    92    63    60    1
    93    94    95   ar
    94    61    60    1
    95    61    67   am
    96    83    82    1
    97    60    59    1
    98    57    56    1
    99    71    68    1
   100    99   100    1
   101    99    97   ar
   102    56    53    1
   103    80    82   ar
   104    80    78   ar
   105    45    46    1
   106    45    51    1
   107    68    67    1
   108    68    69    1
   109    53    52    1
   110    53    54    1
   111    95    97   ar
   112    82    81   ar
   113    52    47   am
   114    48    47    2
   115    47    46    1
   116    78    77   ar
   117    46    49    1
   118    51    50    1
   119    69    70    2
   120    81    79   ar
   121    54    55    2
   122    77    79   ar
   123    77    76    1
   124    50    49    1
   125    76    73    1
   126    73    72    1
   127    73    74    1
   128    75    74    2
