@<TRIPOS>MOLECULE
tmp/5mqeB00.pdb
 93 88 0 0 0
SMALL
GASTEIGER

@<TRIPOS>ATOM
      1  N        -14.3940   16.7220   -8.1660 N.3    27  PRO27      -0.2102
      2  CA       -13.6120   15.9110   -7.2280 C.3    27  PRO27       0.1504
      3  C        -13.1130   14.6290   -7.8470 C.2    27  PRO27       0.2575
      4  O        -12.3230   13.9160   -7.2100 O.2    27  PRO27      -0.2718
      5  CB       -14.6080   15.6330   -6.0820 C.3    27  PRO27       0.0282
      6  CG       -15.7120   16.6140   -6.2740 C.3    27  PRO27       0.0208
      7  CD       -15.8040   16.7920   -7.7540 C.3    27  PRO27       0.0893
      8  N        -13.5250   14.3320   -9.0760 N.am   28  PHE28      -0.1977
      9  CA       -13.1970   13.0920   -9.7470 C.3    28  PHE28       0.1639
     10  C        -12.2700   13.2810  -10.9420 C.2    28  PHE28       0.2290
     11  O        -11.9840   12.3000  -11.6350 O.2    28  PHE28      -0.2864
     12  CB       -14.4840   12.3910  -10.2130 C.3    28  PHE28       0.0560
     13  CG       -15.4320   12.0500   -9.0910 C.ar   28  PHE28      -0.0200
     14  CD1      -15.3100   10.8490   -8.4060 C.ar   28  PHE28      -0.0042
     15  CD2      -16.4460   12.9160   -8.7330 C.ar   28  PHE28      -0.0042
     16  CE1      -16.1790   10.5390   -7.3770 C.ar   28  PHE28      -0.0003
     17  CE2      -17.3230   12.6150   -7.7040 C.ar   28  PHE28      -0.0003
     18  CZ       -17.1880   11.4460   -7.0210 C.ar   28  PHE28      -0.0000
     19  N         -6.8360   11.4380   -6.2270 N.3    32  VAL32      -0.1245
     20  CA        -6.9180   12.1040   -4.9370 C.3    32  VAL32       0.1561
     21  C         -5.5250   12.1920   -4.3330 C.2    32  VAL32       0.2260
     22  O         -4.7930   11.1970   -4.2720 O.2    32  VAL32      -0.2867
     23  CB        -7.8870   11.3630   -4.0030 C.3    32  VAL32       0.0252
     24  CG1       -7.8410   11.9530   -2.6010 C.3    32  VAL32       0.0019
     25  CG2       -9.3130   11.4080   -4.5610 C.3    32  VAL32       0.0019
     26  N         -5.4380   17.5950    0.1200 N.3    37  LEU37      -0.1245
     27  CA        -6.8380   17.9290    0.3670 C.3    37  LEU37       0.1561
     28  C         -7.2440   17.7840    1.8280 C.2    37  LEU37       0.2260
     29  O         -8.4250   17.9600    2.1480 O.2    37  LEU37      -0.2867
     30  CB        -7.7540   17.0520   -0.4980 C.3    37  LEU37       0.0270
     31  CG        -7.4940   17.0610   -2.0050 C.3    37  LEU37       0.0019
     32  CD1       -8.5510   16.2420   -2.7450 C.3    37  LEU37       0.0001
     33  CD2       -7.4250   18.4840   -2.5310 C.3    37  LEU37       0.0001
     34  N         -7.4330   15.0840    3.6800 N.3    39  ILE39      -0.1245
     35  CA        -8.0960   13.8260    4.0130 C.3    39  ILE39       0.1561
     36  C         -7.0330   12.7320    4.0390 C.2    39  ILE39       0.2260
     37  O         -7.0420   11.8370    3.1830 O.2    39  ILE39      -0.2867
     38  CB        -9.2300   13.5060    3.0240 C.3    39  ILE39       0.0252
     39  CG1       -8.8040   13.7770    1.5770 C.3    39  ILE39       0.0019
     40  CG2      -10.4930   14.2950    3.3780 C.3    39  ILE39       0.0019
     41  CD1       -9.6190   12.9880    0.5480 C.3    39  ILE39       0.0001
     42  N         -7.3640    8.7560    3.4460 N.3    42  TYR42      -0.1241
     43  CA        -8.0290    8.2960    2.2300 C.3    42  TYR42       0.1605
     44  C         -7.4530    6.9680    1.7480 C.2    42  TYR42       0.2264
     45  O         -8.1860    5.9870    1.5590 O.2    42  TYR42      -0.2867
     46  CB        -7.9150    9.3580    1.1360 C.3    42  TYR42       0.0534
     47  CG        -8.7020    9.0100   -0.1080 C.ar   42  TYR42      -0.0201
     48  CD1      -10.0740    9.2210   -0.1630 C.ar   42  TYR42      -0.0009
     49  CD2       -8.0750    8.4770   -1.2270 C.ar   42  TYR42      -0.0009
     50  CE1      -10.8010    8.8960   -1.2950 C.ar   42  TYR42       0.0417
     51  CE2       -8.7910    8.1590   -2.3650 C.ar   42  TYR42       0.0417
     52  CZ       -10.1570    8.3700   -2.3920 C.ar   42  TYR42       0.1957
     53  OH       -10.8790    8.0510   -3.5190 O.3    42  TYR42      -0.2866
     54  N         -9.1880    5.4120   -8.1770 N.3    50  MET50      -0.1245
     55  CA        -9.5770    5.4590   -9.5760 C.3    50  MET50       0.1570
     56  C        -10.2680    6.7870   -9.8260 C.2    50  MET50       0.2261
     57  O        -10.9950    7.2880   -8.9640 O.2    50  MET50      -0.2867
     58  CB       -10.4870    4.2780   -9.9520 C.3    50  MET50       0.0387
     59  CG       -10.8100    4.2020  -11.4280 C.3    50  MET50       0.0595
     60  SD        -9.3460    4.2580  -12.4980 S.3    50  MET50      -0.1393
     61  CE        -8.4860    2.7610  -11.9850 C.3    50  MET50       0.0692
     62  N        -16.0700    6.4230   -3.8850 N.3    81  ALA81      -0.1245
     63  CA       -16.6290    7.6410   -3.3140 C.3    81  ALA81       0.1562
     64  C        -17.7680    7.3330   -2.3550 C.2    81  ALA81       0.2260
     65  O        -17.8950    7.9850   -1.3110 O.2    81  ALA81      -0.2867
     66  CB       -17.0970    8.5900   -4.4240 C.3    81  ALA81       0.0290
     67  N        -15.9050    6.0760    0.9290 N.3    84  TYR84      -0.1227
     68  CA       -15.1200    7.0130    1.7280 C.3    84  TYR84       0.1736
     69  C        -15.9820    8.1170    2.3330 C.2    84  TYR84       0.2595
     70  O        -15.7370    8.5540    3.4650 O.2    84  TYR84      -0.2718
     71  CB       -13.9960    7.6270    0.8880 C.3    84  TYR84       0.0548
     72  CG       -13.1770    8.5910    1.7150 C.ar   84  TYR84      -0.0200
     73  CD1      -12.3420    8.1190    2.7140 C.ar   84  TYR84      -0.0009
     74  CD2      -13.2950    9.9700    1.5570 C.ar   84  TYR84      -0.0009
     75  CE1      -11.6200    8.9720    3.5100 C.ar   84  TYR84       0.0417
     76  CE2      -12.5660   10.8410    2.3570 C.ar   84  TYR84       0.0417
     77  CZ       -11.7260   10.3270    3.3320 C.ar   84  TYR84       0.1957
     78  OH       -10.9910   11.1530    4.1470 O.3    84  TYR84      -0.2866
     79  N        -16.9760    8.5980    1.5970 N.am   85  ASN85      -0.1974
     80  CA       -17.7060    9.7940    1.9970 C.3    85  ASN85       0.1688
     81  C        -19.0020    9.4200    2.7050 C.2    85  ASN85       0.2292
     82  O        -19.5930    8.3720    2.4430 O.2    85  ASN85      -0.2864
     83  CB       -17.9920   10.6690    0.7700 C.3    85  ASN85       0.1181
     84  CG       -16.7170   11.0750    0.0470 C.2    85  ASN85       0.2629
     85  OD1      -16.0580   12.0400    0.4410 O.2    85  ASN85      -0.2716
     86  ND2      -16.3500   10.3270   -0.9970 N.am   85  ASN85      -0.0877
     87  N        -19.6790   15.1240   -1.6800 N.3    91  VAL91      -0.1245
     88  CA       -19.0910   14.2640   -2.7040 C.3    91  VAL91       0.1561
     89  C        -19.9030   12.9800   -2.8740 C.2    91  VAL91       0.2260
     90  O        -20.0230   12.4560   -3.9860 O.2    91  VAL91      -0.2867
     91  CB       -17.6120   13.9800   -2.3770 C.3    91  VAL91       0.0252
     92  CG1      -17.0270   12.9500   -3.3370 C.3    91  VAL91       0.0019
     93  CG2      -16.7930   15.2720   -2.4510 C.3    91  VAL91       0.0019
@<TRIPOS>BOND
     1    60    61    1
     2    60    59    1
     3    11    10    2
     4    59    58    1
     5    10     9    1
     6    12     9    1
     7    12    13    1
     8    58    55    1
     9    56    55    1
    10    56    57    2
    11     9     8    1
    12    55    54    1
    13    13    15   ar
    14    13    14   ar
    15     8     3   am
    16    15    17   ar
    17    14    16   ar
    18     1     7    1
    19     1     2    1
    20     3     2    1
    21     3     4    2
    22     7     6    1
    23    17    18   ar
    24    16    18   ar
    25     2     5    1
    26     6     5    1
    27    19    20    1
    28    20    21    1
    29    20    23    1
    30    25    23    1
    31    66    63    1
    32    21    22    2
    33    23    24    1
    34    90    89    2
    35    62    63    1
    36    53    52    1
    37    92    91    1
    38    63    64    1
    39    89    88    1
    40    32    31    1
    41    88    91    1
    42    88    87    1
    43    33    31    1
    44    93    91    1
    45    52    51   ar
    46    52    50   ar
    47    51    49   ar
    48    64    65    2
    49    31    30    1
    50    50    48   ar
    51    49    47   ar
    52    86    84   am
    53    30    27    1
    54    48    47   ar
    55    47    46    1
    56    84    85    2
    57    84    83    1
    58    26    27    1
    59    27    28    1
    60    41    39    1
    61    83    80    1
    62    71    72    1
    63    71    68    1
    64    67    68    1
    65    46    43    1
    66    74    72   ar
    67    74    76   ar
    68    45    44    2
    69    39    38    1
    70    79    80    1
    71    79    69   am
    72    72    73   ar
    73    68    69    1
    74    44    43    1
    75    28    29    2
    76    80    81    1
    77    43    42    1
    78    69    70    2
    79    76    77   ar
    80    82    81    2
    81    73    75   ar
    82    38    40    1
    83    38    35    1
    84    37    36    2
    85    77    75   ar
    86    77    78    1
    87    34    35    1
    88    35    36    1
