@<TRIPOS>MOLECULE
tmp/5mqgA00.pdb
 118 111 0 0 0
SMALL
GASTEIGER

@<TRIPOS>ATOM
      1  N        -13.0210  -25.9100   -0.9150 N.3    29  PRO29      -0.2102
      2  CA       -13.0170  -26.2710    0.5110 C.3    29  PRO29       0.1504
      3  C        -11.6290  -26.4650    1.0930 C.2    29  PRO29       0.2575
      4  O        -11.5210  -26.6680    2.3060 O.2    29  PRO29      -0.2718
      5  CB       -13.8660  -27.5600    0.5810 C.3    29  PRO29       0.0282
      6  CG       -14.0850  -28.0100   -0.7890 C.3    29  PRO29       0.0208
      7  CD       -13.6770  -26.9300   -1.7580 C.3    29  PRO29       0.0893
      8  N        -10.5880  -26.4120    0.2640 N.am   30  PHE30      -0.1977
      9  CA        -9.2150  -26.6710    0.6690 C.3    30  PHE30       0.1639
     10  C         -8.3620  -25.4130    0.7000 C.2    30  PHE30       0.2290
     11  O         -7.1900  -25.4870    1.0690 O.2    30  PHE30      -0.2864
     12  CB        -8.6000  -27.7280   -0.2600 C.3    30  PHE30       0.0560
     13  CG        -9.3100  -29.0440   -0.1830 C.ar   30  PHE30      -0.0200
     14  CD1       -9.0150  -29.9210    0.8310 C.ar   30  PHE30      -0.0042
     15  CD2      -10.3340  -29.3560   -1.0690 C.ar   30  PHE30      -0.0042
     16  CE1       -9.7140  -31.1240    0.9380 C.ar   30  PHE30      -0.0003
     17  CE2      -11.0360  -30.5450   -0.9600 C.ar   30  PHE30      -0.0003
     18  CZ       -10.7290  -31.4140    0.0350 C.ar   30  PHE30      -0.0000
     19  N         -8.5020  -22.8240    2.6450 N.3    32  GLN32      -0.1245
     20  CA        -8.3470  -22.2250    3.9590 C.3    32  GLN32       0.1566
     21  C         -8.4360  -23.3460    4.9770 C.2    32  GLN32       0.2260
     22  O         -9.0170  -24.4010    4.6920 O.2    32  GLN32      -0.2867
     23  CB        -9.4310  -21.1620    4.2130 C.3    32  GLN32       0.0367
     24  CG       -10.8750  -21.6510    3.9850 C.3    32  GLN32       0.0905
     25  CD       -11.2020  -21.9810    2.5260 C.2    32  GLN32       0.2608
     26  OE1      -11.0090  -21.1580    1.6100 O.2    32  GLN32      -0.2717
     27  NE2      -11.7130  -23.1960    2.3080 N.am   32  GLN32      -0.0878
     28  N         -9.5760  -25.7680    7.9390 N.3    34  VAL34      -0.1245
     29  CA       -10.8210  -26.1280    8.6080 C.3    34  VAL34       0.1561
     30  C        -10.8410  -25.4490    9.9720 C.2    34  VAL34       0.2260
     31  O         -9.9180  -25.6180   10.7760 O.2    34  VAL34      -0.2867
     32  CB       -10.9360  -27.6540    8.7440 C.3    34  VAL34       0.0252
     33  CG1      -12.1860  -28.0240    9.5290 C.3    34  VAL34       0.0019
     34  CG2      -10.9770  -28.3300    7.3800 C.3    34  VAL34       0.0019
     35  N        -17.2840  -23.7080   12.0620 N.3    39  LEU39      -0.1245
     36  CA       -18.1470  -24.6750   11.4150 C.3    39  LEU39       0.1561
     37  C        -19.0370  -25.4250   12.3920 C.2    39  LEU39       0.2260
     38  O        -19.9610  -26.1070   11.9470 O.2    39  LEU39      -0.2867
     39  CB       -17.3030  -25.6710   10.6070 C.3    39  LEU39       0.0270
     40  CG       -16.6020  -25.0930    9.3830 C.3    39  LEU39       0.0019
     41  CD1      -15.4980  -26.0250    8.9070 C.3    39  LEU39       0.0001
     42  CD2      -17.6040  -24.8530    8.2690 C.3    39  LEU39       0.0001
     43  N        -18.1320  -28.0680   14.3400 N.3    41  ILE41      -0.1245
     44  CA       -17.8540  -29.5080   14.2850 C.3    41  ILE41       0.1561
     45  C        -16.7890  -29.8330   15.3270 C.2    41  ILE41       0.2260
     46  O        -15.6090  -30.0300   14.9880 O.2    41  ILE41      -0.2867
     47  CB       -17.4800  -29.9910   12.8700 C.3    41  ILE41       0.0252
     48  CG1      -16.4160  -29.1010   12.2120 C.3    41  ILE41       0.0019
     49  CG2      -18.7300  -30.1070   11.9860 C.3    41  ILE41       0.0019
     50  CD1      -15.8580  -29.7170   10.9320 C.3    41  ILE41       0.0001
     51  N        -13.8380  -32.4950   14.9750 N.3    44  TYR44      -0.1241
     52  CA       -12.8700  -32.5180   13.8870 C.3    44  TYR44       0.1605
     53  C        -11.4630  -32.8380   14.3830 C.2    44  TYR44       0.2264
     54  O        -10.7820  -33.7100   13.8280 O.2    44  TYR44      -0.2867
     55  CB       -12.8910  -31.1970   13.1120 C.3    44  TYR44       0.0534
     56  CG       -11.9800  -31.2240   11.9170 C.ar   44  TYR44      -0.0201
     57  CD1      -12.3530  -31.8910   10.7590 C.ar   44  TYR44      -0.0009
     58  CD2      -10.7390  -30.5900   11.9460 C.ar   44  TYR44      -0.0009
     59  CE1      -11.5190  -31.9240    9.6520 C.ar   44  TYR44       0.0417
     60  CE2       -9.8900  -30.6130   10.8520 C.ar   44  TYR44       0.0417
     61  CZ       -10.2860  -31.2960    9.7050 C.ar   44  TYR44       0.1957
     62  OH        -9.4460  -31.3180    8.6180 O.3    44  TYR44      -0.2866
     63  N         -4.1480  -29.6780    7.6260 N.3    52  MET52      -0.1245
     64  CA        -3.3570  -29.1360    6.5340 C.3    52  MET52       0.1570
     65  C         -4.3300  -28.6600    5.4700 C.2    52  MET52       0.2261
     66  O         -5.4080  -29.2330    5.3170 O.2    52  MET52      -0.2867
     67  CB        -2.4150  -30.2080    5.9860 C.3    52  MET52       0.0387
     68  CG        -1.4110  -29.6780    4.9750 C.3    52  MET52       0.0595
     69  SD        -0.4450  -28.2500    5.5490 S.3    52  MET52      -0.1393
     70  CE         0.2500  -28.8670    7.0830 C.3    52  MET52       0.0692
     71  N         -3.2240  -33.3860    3.7200 N.3    79  MET79      -0.1245
     72  CA        -4.4650  -32.6860    3.4110 C.3    79  MET79       0.1570
     73  C         -5.5100  -33.6450    2.8390 C.2    79  MET79       0.2261
     74  O         -6.6780  -33.6330    3.2550 O.2    79  MET79      -0.2867
     75  CB        -4.1690  -31.5580    2.4220 C.3    79  MET79       0.0387
     76  CG        -5.4220  -30.7800    2.0360 C.3    79  MET79       0.0595
     77  SD        -5.0330  -29.4390    0.9100 S.3    79  MET79      -0.1393
     78  CE        -4.4720  -30.4060   -0.5170 C.3    79  MET79       0.0692
     79  N         -6.6430  -36.4220    5.4530 N.3    82  ASN82      -0.1225
     80  CA        -7.5230  -35.8500    6.4570 C.3    82  ASN82       0.1785
     81  C         -8.9490  -35.7860    5.9310 C.2    82  ASN82       0.2597
     82  O         -9.8980  -36.1670    6.6240 O.2    82  ASN82      -0.2718
     83  CB        -7.0510  -34.4310    6.7940 C.3    82  ASN82       0.1169
     84  CG        -5.7900  -34.4050    7.6530 C.2    82  ASN82       0.2627
     85  OD1       -5.3960  -35.4170    8.2370 O.2    82  ASN82      -0.2716
     86  ND2       -5.1620  -33.2230    7.7460 N.am   82  ASN82      -0.0877
     87  N         -9.1160  -35.3010    4.6990 N.am   83  ALA83      -0.1979
     88  CA       -10.4580  -35.1110    4.1600 C.3    83  ALA83       0.1597
     89  C        -11.1410  -36.4430    3.8810 C.2    83  ALA83       0.2287
     90  O        -12.3550  -36.5790    4.1020 O.2    83  ALA83      -0.2864
     91  CB       -10.3900  -34.2480    2.9020 C.3    83  ALA83       0.0319
     92  N        -12.3160  -37.8460    7.3870 N.3    86  TYR86      -0.1227
     93  CA       -13.3250  -37.1390    8.1630 C.3    86  TYR86       0.1736
     94  C        -14.6930  -37.1230    7.4990 C.2    86  TYR86       0.2595
     95  O        -15.7080  -37.0980    8.2040 O.2    86  TYR86      -0.2718
     96  CB       -12.8610  -35.6910    8.4650 C.3    86  TYR86       0.0548
     97  CG       -13.8510  -34.9890    9.3550 C.ar   86  TYR86      -0.0200
     98  CD1      -13.9010  -35.2670   10.7030 C.ar   86  TYR86      -0.0009
     99  CD2      -14.8030  -34.1150    8.8250 C.ar   86  TYR86      -0.0009
    100  CE1      -14.8500  -34.6930   11.5100 C.ar   86  TYR86       0.0417
    101  CE2      -15.7600  -33.5150    9.6450 C.ar   86  TYR86       0.0417
    102  CZ       -15.7860  -33.8250   10.9770 C.ar   86  TYR86       0.1957
    103  OH       -16.7640  -33.2390   11.7460 O.3    86  TYR86      -0.2866
    104  N        -14.7430  -37.1500    6.1700 N.am   87  ASN87      -0.1974
    105  CA       -15.9410  -36.8500    5.4110 C.3    87  ASN87       0.1688
    106  C        -16.5220  -38.0810    4.7360 C.2    87  ASN87       0.2292
    107  O        -15.8000  -39.0190    4.3790 O.2    87  ASN87      -0.2864
    108  CB       -15.6340  -35.8050    4.3320 C.3    87  ASN87       0.1181
    109  CG       -15.2030  -34.4920    4.9210 C.2    87  ASN87       0.2629
    110  OD1      -16.0280  -33.7070    5.3760 O.2    87  ASN87      -0.2716
    111  ND2      -13.9050  -34.2490    4.9310 N.am   87  ASN87      -0.0877
    112  N        -16.8870  -32.4710   -0.1800 N.3    93  VAL93      -0.1245
    113  CA       -15.4670  -32.2960    0.1100 C.3    93  VAL93       0.1561
    114  C        -14.6730  -33.5710   -0.1690 C.2    93  VAL93       0.2260
    115  O        -13.5050  -33.5000   -0.5510 O.2    93  VAL93      -0.2867
    116  CB       -15.2560  -31.7180    1.5180 C.3    93  VAL93       0.0252
    117  CG1      -15.8930  -32.6120    2.5140 C.3    93  VAL93       0.0019
    118  CG2      -13.7700  -31.5170    1.8120 C.3    93  VAL93       0.0019
@<TRIPOS>BOND
     1     7     1    1
     2     7     6    1
     3    15    17   ar
     4    15    13   ar
     5    17    18   ar
     6     1     2    1
     7     6     5    1
     8   115   114    2
     9    78    77    1
    10    12    13    1
    11    12     9    1
    12    13    14   ar
    13   112   113    1
    14   114   113    1
    15    18    16   ar
    16   113   116    1
    17     8     9    1
    18     8     3   am
    19     2     5    1
    20     2     3    1
    21     9    10    1
    22    10    11    2
    23    14    16   ar
    24    77    76    1
    25     3     4    2
    26   116   118    1
    27   116   117    1
    28    26    25    2
    29    76    75    1
    30    27    25   am
    31    75    72    1
    32    25    24    1
    33    19    20    1
    34    73    74    2
    35    73    72    1
    36    91    88    1
    37    72    71    1
    38    89    90    2
    39    89    88    1
    40    20    23    1
    41    20    21    1
    42    24    23    1
    43    88    87    1
    44   108   109    1
    45   108   105    1
    46   107   106    2
    47    22    21    2
    48    87    81   am
    49   106   105    1
    50   109   111   am
    51   109   110    2
    52    68    69    1
    53    68    67    1
    54    66    65    2
    55   105   104    1
    56    79    80    1
    57    65    64    1
    58    69    70    1
    59    81    80    1
    60    81    82    2
    61    67    64    1
    62   104    94   am
    63    80    83    1
    64    64    63    1
    65    83    84    1
    66    34    32    1
    67    92    93    1
    68    94    93    1
    69    94    95    2
    70    84    86   am
    71    84    85    2
    72    28    29    1
    73    93    96    1
    74    42    40    1
    75    96    97    1
    76    29    32    1
    77    29    30    1
    78    62    61    1
    79    32    33    1
    80    99    97   ar
    81    99   101   ar
    82    41    40    1
    83    97    98   ar
    84    40    39    1
    85   101   102   ar
    86    59    61   ar
    87    59    57   ar
    88    61    60   ar
    89    30    31    2
    90    39    36    1
    91    98   100   ar
    92    57    56   ar
    93    60    58   ar
    94    50    48    1
    95   102   100   ar
    96   102   103    1
    97    36    35    1
    98    36    37    1
    99    56    58   ar
   100    56    55    1
   101    38    37    2
   102    49    47    1
   103    48    47    1
   104    47    44    1
   105    55    52    1
   106    54    53    2
   107    52    53    1
   108    52    51    1
   109    44    43    1
   110    44    45    1
   111    46    45    2
