@<TRIPOS>MOLECULE
tmp/5mqkB00.pdb
 93 88 0 0 0
SMALL
GASTEIGER

@<TRIPOS>ATOM
      1  N         21.7360   -4.1370    1.8120 N.3    28  PRO28      -0.2102
      2  CA        20.6170   -3.7680    0.9340 C.3    28  PRO28       0.1504
      3  C         19.2500   -4.0370    1.5440 C.2    28  PRO28       0.2575
      4  O         18.2320   -3.6650    0.9400 O.2    28  PRO28      -0.2718
      5  CB        20.8290   -4.6430   -0.3100 C.3    28  PRO28       0.0282
      6  CG        22.1470   -5.2830   -0.1410 C.3    28  PRO28       0.0208
      7  CD        22.4460   -5.3230    1.3060 C.3    28  PRO28       0.0893
      8  N         19.1950   -4.6500    2.7190 N.am   29  PHE29      -0.1977
      9  CA        17.9540   -4.9920    3.3910 C.3    29  PHE29       0.1639
     10  C         17.6830   -4.1060    4.5940 C.2    29  PHE29       0.2290
     11  O         16.6760   -4.3040    5.2750 O.2    29  PHE29      -0.2864
     12  CB        17.9930   -6.4600    3.8490 C.3    29  PHE29       0.0560
     13  CG        18.1980   -7.4360    2.7260 C.ar   29  PHE29      -0.0200
     14  CD1       17.1100   -7.9390    2.0410 C.ar   29  PHE29      -0.0042
     15  CD2       19.4650   -7.8500    2.3610 C.ar   29  PHE29      -0.0042
     16  CE1       17.2780   -8.8470    0.9950 C.ar   29  PHE29      -0.0003
     17  CE2       19.6400   -8.7550    1.3100 C.ar   29  PHE29      -0.0003
     18  CZ        18.5520   -9.2430    0.6300 C.ar   29  PHE29      -0.0000
     19  N         13.4840   -0.4920   -0.0550 N.3    33  VAL33      -0.1245
     20  CA        14.0200   -0.2200   -1.3830 C.3    33  VAL33       0.1561
     21  C         13.4010    1.0640   -1.9120 C.2    33  VAL33       0.2260
     22  O         12.1760    1.2360   -1.8820 O.2    33  VAL33      -0.2867
     23  CB        13.7460   -1.3970   -2.3300 C.3    33  VAL33       0.0252
     24  CG1       14.2730   -1.1000   -3.7370 C.3    33  VAL33       0.0019
     25  CG2       14.3430   -2.7010   -1.7820 C.3    33  VAL33       0.0019
     26  N         17.3990    4.6670   -6.4910 N.3    38  LEU38      -0.1245
     27  CA        18.3700    3.6840   -6.9580 C.3    38  LEU38       0.1561
     28  C         18.4370    3.6320   -8.4780 C.2    38  LEU38       0.2260
     29  O         19.4900    3.3100   -9.0410 O.2    38  LEU38      -0.2867
     30  CB        18.0120    2.2990   -6.4110 C.3    38  LEU38       0.0270
     31  CG        18.2070    1.9980   -4.9270 C.3    38  LEU38       0.0019
     32  CD1       17.3110    0.8240   -4.4990 C.3    38  LEU38       0.0001
     33  CD2       19.6600    1.6840   -4.6670 C.3    38  LEU38       0.0001
     34  N         16.0950    1.6820  -10.2810 N.3    40  ILE40      -0.1245
     35  CA        15.5710    0.3670  -10.6550 C.3    40  ILE40       0.1561
     36  C         14.0470    0.4390  -10.6270 C.2    40  ILE40       0.2260
     37  O         13.4090   -0.1720   -9.7590 O.2    40  ILE40      -0.2867
     38  CB        16.0960   -0.7400   -9.7210 C.3    40  ILE40       0.0252
     39  CG1       15.9770   -0.3310   -8.2480 C.3    40  ILE40       0.0019
     40  CG2       17.5450   -1.0800  -10.0520 C.3    40  ILE40       0.0019
     41  CD1       16.0350   -1.5070   -7.2860 C.3    40  ILE40       0.0001
     42  N         10.8240   -2.1500   -9.8850 N.3    43  TYR43      -0.1241
     43  CA        10.8260   -2.9210   -8.6470 C.3    43  TYR43       0.1605
     44  C          9.4130   -3.1250   -8.1030 C.2    43  TYR43       0.2264
     45  O          9.0200   -4.2530   -7.7810 O.2    43  TYR43      -0.2867
     46  CB        11.7230   -2.2360   -7.6150 C.3    43  TYR43       0.0534
     47  CG        11.8290   -3.0190   -6.3350 C.ar   43  TYR43      -0.0201
     48  CD1       12.7410   -4.0610   -6.2110 C.ar   43  TYR43      -0.0009
     49  CD2       11.0110   -2.7280   -5.2500 C.ar   43  TYR43      -0.0009
     50  CE1       12.8320   -4.7920   -5.0400 C.ar   43  TYR43       0.0417
     51  CE2       11.0910   -3.4500   -4.0810 C.ar   43  TYR43       0.0417
     52  CZ        12.0030   -4.4790   -3.9790 C.ar   43  TYR43       0.1957
     53  OH        12.0660   -5.2020   -2.8140 O.3    43  TYR43      -0.2866
     54  N          9.2040   -5.4290    1.8490 N.3    51  MET51      -0.1245
     55  CA         9.4980   -5.6770    3.2530 C.3    51  MET51       0.1570
     56  C         11.0040   -5.5670    3.4320 C.2    51  MET51       0.2261
     57  O         11.7680   -5.8790    2.5190 O.2    51  MET51      -0.2867
     58  CB         8.9830   -7.0500    3.6960 C.3    51  MET51       0.0387
     59  CG         9.0990   -7.3350    5.1900 C.3    51  MET51       0.0595
     60  SD         8.2960   -6.1130    6.2470 S.3    51  MET51      -0.1393
     61  CE         6.5950   -6.2180    5.6230 C.3    51  MET51       0.0692
     62  N         13.5160  -10.5780   -2.5920 N.3    82  ALA82      -0.1245
     63  CA        14.8510  -10.3820   -3.1590 C.3    82  ALA82       0.1562
     64  C         15.2110  -11.4850   -4.1550 C.2    82  ALA82       0.2260
     65  O         15.8060  -11.2110   -5.2100 O.2    82  ALA82      -0.2867
     66  CB        15.8820  -10.2860   -2.0280 C.3    82  ALA82       0.0290
     67  N         13.0710  -10.6120   -7.4370 N.3    85  TYR85      -0.1227
     68  CA        13.4790   -9.4690   -8.2490 C.3    85  TYR85       0.1736
     69  C         14.8640   -9.6600   -8.8580 C.2    85  TYR85       0.2595
     70  O         15.1080   -9.2580  -10.0020 O.2    85  TYR85      -0.2718
     71  CB        13.4490   -8.1950   -7.4110 C.3    85  TYR85       0.0548
     72  CG        13.8420   -6.9870   -8.2080 C.ar   85  TYR85      -0.0200
     73  CD1       12.9710   -6.4420   -9.1410 C.ar   85  TYR85      -0.0009
     74  CD2       15.1020   -6.4020   -8.0620 C.ar   85  TYR85      -0.0009
     75  CE1       13.3310   -5.3440   -9.8940 C.ar   85  TYR85       0.0417
     76  CE2       15.4680   -5.2950   -8.8090 C.ar   85  TYR85       0.0417
     77  CZ        14.5750   -4.7730   -9.7280 C.ar   85  TYR85       0.1957
     78  OH        14.9270   -3.6790  -10.4750 O.3    85  TYR85      -0.2866
     79  N         15.7870  -10.2570   -8.1150 N.am   86  ASN86      -0.1974
     80  CA        17.1860  -10.2910   -8.5090 C.3    86  ASN86       0.1688
     81  C         17.5320  -11.5990   -9.2080 C.2    86  ASN86       0.2292
     82  O         16.9220  -12.6420   -8.9550 O.2    86  ASN86      -0.2864
     83  CB        18.0680  -10.0890   -7.2800 C.3    86  ASN86       0.1181
     84  CG        17.8250   -8.7460   -6.6200 C.2    86  ASN86       0.2629
     85  OD1       18.2920   -7.7060   -7.1000 O.2    86  ASN86      -0.2716
     86  ND2       17.0700   -8.7560   -5.5200 N.am   86  ASN86      -0.0877
     87  N         22.8250   -9.1750   -4.7820 N.3    92  VAL92      -0.1245
     88  CA        21.7660   -9.1580   -3.7690 C.3    92  VAL92       0.1561
     89  C         21.1320  -10.5360   -3.6030 C.2    92  VAL92       0.2260
     90  O         20.7380  -10.9210   -2.4930 O.2    92  VAL92      -0.2867
     91  CB        20.7090   -8.0870   -4.0960 C.3    92  VAL92       0.0252
     92  CG1       19.5230   -8.1990   -3.1550 C.3    92  VAL92       0.0019
     93  CG2       21.3420   -6.6820   -4.0140 C.3    92  VAL92       0.0019
@<TRIPOS>BOND
     1    35    36    1
     2    35    34    1
     3    35    38    1
     4    36    37    2
     5    78    77    1
     6    40    38    1
     7    70    69    2
     8    75    77   ar
     9    75    73   ar
    10    42    43    1
    11    77    76   ar
    12    38    39    1
    13    81    82    2
    14    81    80    1
    15    73    72   ar
    16    29    28    2
    17    69    68    1
    18    69    79   am
    19    76    74   ar
    20    43    44    1
    21    43    46    1
    22    80    79    1
    23    80    83    1
    24    28    27    1
    25    68    67    1
    26    68    71    1
    27    39    41    1
    28    72    74   ar
    29    72    71    1
    30    44    45    2
    31    46    47    1
    32    83    84    1
    33    85    84    2
    34    27    26    1
    35    27    30    1
    36    84    86   am
    37    30    31    1
    38    47    48   ar
    39    47    49   ar
    40    48    50   ar
    41    49    51   ar
    42    65    64    2
    43    50    52   ar
    44    31    33    1
    45    31    32    1
    46    87    88    1
    47    64    63    1
    48    91    93    1
    49    91    88    1
    50    91    92    1
    51    51    52   ar
    52    52    53    1
    53    88    89    1
    54    24    23    1
    55    89    90    2
    56    63    62    1
    57    63    66    1
    58    23    25    1
    59    23    20    1
    60    21    22    2
    61    21    20    1
    62    20    19    1
    63     5     6    1
    64     5     2    1
    65     6     7    1
    66    18    16   ar
    67    18    17   ar
    68     2     3    1
    69     2     1    1
    70     4     3    2
    71    16    14   ar
    72     7     1    1
    73    17    15   ar
    74     3     8   am
    75    54    55    1
    76    14    13   ar
    77    15    13   ar
    78    57    56    2
    79     8     9    1
    80    13    12    1
    81    55    56    1
    82    55    58    1
    83     9    12    1
    84     9    10    1
    85    58    59    1
    86    10    11    2
    87    59    60    1
    88    61    60    1
