@<TRIPOS>MOLECULE
tmp/5mqtA01.pdb
 218 204 0 0 0
SMALL
GASTEIGER

@<TRIPOS>ATOM
      1  N        -12.9610  119.8900   22.4290 N.3    11  ILE11      -0.1245
      2  CA       -13.5500  120.0570   23.7570 C.3    11  ILE11       0.1561
      3  C        -14.8380  119.2120   23.8520 C.2    11  ILE11       0.2260
      4  O        -15.6050  119.1850   22.9100 O.2    11  ILE11      -0.2867
      5  CB       -13.7810  121.5660   24.0530 C.3    11  ILE11       0.0252
      6  CG1      -12.4390  122.2820   24.2400 C.3    11  ILE11       0.0019
      7  CG2      -14.6680  121.7950   25.2850 C.3    11  ILE11       0.0019
      8  CD1      -12.1200  123.2430   23.2640 C.3    11  ILE11       0.0001
      9  N        -12.8350  112.4770   25.5540 N.3    15  LYS15      -0.1245
     10  CA       -11.4560  112.0400   25.8810 C.3    15  LYS15       0.1561
     11  C        -11.2480  111.5480   27.3300 C.2    15  LYS15       0.2260
     12  O        -10.6740  110.4720   27.5250 O.2    15  LYS15      -0.2867
     13  CB       -10.4280  113.1350   25.5540 C.3    15  LYS15       0.0271
     14  CG       -10.3790  113.5450   24.0960 C.3    15  LYS15       0.0035
     15  CD        -9.5090  114.7550   23.9100 C.3    15  LYS15       0.0206
     16  CE       -10.3070  116.0110   24.0890 C.3    15  LYS15       0.1093
     17  NZ       -10.3370  116.5030   25.4900 N.3    15  LYS15      -0.1314
     18  N         -4.6770  115.4910   31.1970 N.3    34  GLU34      -0.1245
     19  CA        -4.3420  116.8190   30.7020 C.3    34  GLU34       0.1567
     20  C         -4.1210  117.7580   31.9120 C.2    34  GLU34       0.2260
     21  O         -4.8580  117.5970   32.8930 O.2    34  GLU34      -0.2867
     22  CB        -5.5140  117.3370   29.8500 C.3    34  GLU34       0.0388
     23  CG        -5.0860  118.1190   28.6250 C.3    34  GLU34       0.1160
     24  CD        -6.1420  118.9800   27.9550 C.2    34  GLU34       0.3649
     25  OE1       -5.7550  119.8590   27.1450 O.co2  34  GLU34      -0.2457
     26  OE2       -7.3510  118.7740   28.2290 O.co2  34  GLU34      -0.2457
     27  N         -4.6930  121.0680   32.0050 N.3    36  VAL36      -0.1231
     28  CA        -5.8630  121.9640   31.8200 C.3    36  VAL36       0.1692
     29  C         -7.0690  121.3500   32.4970 C.2    36  VAL36       0.2591
     30  O         -7.7050  121.9810   33.3350 O.2    36  VAL36      -0.2718
     31  CB        -6.2060  122.2070   30.3180 C.3    36  VAL36       0.0266
     32  CG1       -7.3790  123.1730   30.1650 C.3    36  VAL36       0.0020
     33  CG2       -5.0000  122.6810   29.5150 C.3    36  VAL36       0.0020
     34  N         -7.3730  120.1070   32.1000 N.am   37  ALA37      -0.1980
     35  CA        -8.4750  119.2830   32.5760 C.3    37  ALA37       0.1597
     36  C         -8.4130  119.1020   34.0920 C.2    37  ALA37       0.2287
     37  O         -9.4570  119.1060   34.7550 O.2    37  ALA37      -0.2864
     38  CB        -8.4430  117.9270   31.8760 C.3    37  ALA37       0.0319
     39  N         -9.4310  122.2760   35.7210 N.3    40  SER40      -0.1217
     40  CA       -10.8870  122.4020   35.5070 C.3    40  SER40       0.1889
     41  C        -11.6590  121.5200   36.5670 C.2    40  SER40       0.2288
     42  O        -12.6340  120.8180   36.2540 O.2    40  SER40      -0.2866
     43  CB       -11.2560  121.9970   34.0740 C.3    40  SER40       0.2089
     44  OG       -10.3870  122.4810   33.0560 O.3    40  SER40      -0.2183
     45  N         -5.6600  129.8590   34.8680 N.3    52  LEU52      -0.1245
     46  CA        -6.8590  129.4890   34.1080 C.3    52  LEU52       0.1561
     47  C         -8.0050  130.4920   34.3440 C.2    52  LEU52       0.2260
     48  O         -8.7530  130.7600   33.4010 O.2    52  LEU52      -0.2867
     49  CB        -7.3000  128.0570   34.4320 C.3    52  LEU52       0.0270
     50  CG        -8.5410  127.5540   33.7180 C.3    52  LEU52       0.0019
     51  CD1       -8.1760  126.6320   32.5800 C.3    52  LEU52       0.0001
     52  CD2       -9.4870  126.8900   34.6990 C.3    52  LEU52       0.0001
     53  N         -6.9930  133.5190   32.4530 N.3    55  MET55      -0.1230
     54  CA        -7.1180  133.1100   31.0410 C.3    55  MET55       0.1702
     55  C         -8.5130  133.3850   30.5190 C.2    55  MET55       0.2592
     56  O         -8.6490  134.0210   29.4770 O.2    55  MET55      -0.2718
     57  CB        -6.7350  131.6260   30.8560 C.3    55  MET55       0.0401
     58  CG        -6.6150  131.1910   29.4210 C.3    55  MET55       0.0596
     59  SD        -5.4990  132.2120   28.4350 S.3    55  MET55      -0.1393
     60  CE        -6.2620  132.0670   26.8670 C.3    55  MET55       0.0692
     61  N         -9.5410  132.9590   31.2710 N.am   56  TYR56      -0.1976
     62  CA       -10.9290  133.2200   30.9360 C.3    56  TYR56       0.1639
     63  C        -11.2000  134.7350   31.0160 C.2    56  TYR56       0.2290
     64  O        -11.6700  135.3080   30.0300 O.2    56  TYR56      -0.2864
     65  CB       -11.8810  132.4240   31.8540 C.3    56  TYR56       0.0560
     66  CG       -11.9550  130.9250   31.5890 C.ar   56  TYR56      -0.0198
     67  CD1      -12.5360  130.4290   30.4230 C.ar   56  TYR56      -0.0009
     68  CD2      -11.5770  130.0050   32.5640 C.ar   56  TYR56      -0.0009
     69  CE1      -12.6420  129.0530   30.1910 C.ar   56  TYR56       0.0417
     70  CE2      -11.6950  128.6280   32.3520 C.ar   56  TYR56       0.0417
     71  CZ       -12.2190  128.1540   31.1580 C.ar   56  TYR56       0.1957
     72  OH       -12.3440  126.7940   30.9530 O.3    56  TYR56      -0.2866
     73  N         -8.0830  136.8270   27.8860 N.3    59  PRO59      -0.2102
     74  CA        -7.1790  136.0050   27.0600 C.3    59  PRO59       0.1504
     75  C         -6.1310  136.7790   26.2600 C.2    59  PRO59       0.2575
     76  O         -5.2040  136.1510   25.7480 O.2    59  PRO59      -0.2718
     77  CB        -8.1250  135.2820   26.0930 C.3    59  PRO59       0.0282
     78  CG        -9.4690  135.4700   26.6240 C.3    59  PRO59       0.0208
     79  CD        -9.4750  136.7170   27.4170 C.3    59  PRO59       0.0893
     80  N         -6.2910  138.1210   26.1090 N.am   60  GLU60      -0.1980
     81  CA        -5.3570  138.9670   25.3560 C.3    60  GLU60       0.1602
     82  C         -4.0940  139.1290   26.1700 C.2    60  GLU60       0.2287
     83  O         -3.0340  139.3480   25.5830 O.2    60  GLU60      -0.2864
     84  CB        -5.9370  140.3660   25.0330 C.3    60  GLU60       0.0415
     85  CG        -7.3920  140.4150   24.5980 C.3    60  GLU60       0.1163
     86  CD        -8.4430  140.5690   25.6890 C.2    60  GLU60       0.3649
     87  OE1       -9.6350  140.6880   25.3280 O.co2  60  GLU60      -0.2457
     88  OE2       -8.0910  140.5740   26.8930 O.co2  60  GLU60      -0.2457
     89  N         -0.4090  131.2470   29.9500 N.3    66  PHE66      -0.1227
     90  CA        -1.1300  129.9680   30.0480 C.3    66  PHE66       0.1736
     91  C         -0.5420  128.8740   29.1510 C.2    66  PHE66       0.2595
     92  O         -0.1600  127.8270   29.6690 O.2    66  PHE66      -0.2718
     93  CB        -2.6510  130.1190   29.7670 C.3    66  PHE66       0.0547
     94  CG        -3.4820  128.8510   29.9090 C.ar   66  PHE66      -0.0202
     95  CD1       -3.6020  127.9500   28.8520 C.ar   66  PHE66      -0.0042
     96  CD2       -4.1770  128.5800   31.0830 C.ar   66  PHE66      -0.0042
     97  CE1       -4.3450  126.7670   28.9920 C.ar   66  PHE66      -0.0003
     98  CE2       -4.9320  127.4070   31.2170 C.ar   66  PHE66      -0.0003
     99  CZ        -5.0100  126.5090   30.1680 C.ar   66  PHE66      -0.0000
    100  N         -0.5130  129.0800   27.8130 N.am   67  GLN67      -0.1979
    101  CA        -0.0400  128.0600   26.8770 C.3    67  GLN67       0.1601
    102  C          1.3780  127.5610   27.1760 C.2    67  GLN67       0.2287
    103  O          1.7140  126.4310   26.8130 O.2    67  GLN67      -0.2864
    104  CB        -0.1930  128.5180   25.4270 C.3    67  GLN67       0.0394
    105  CG        -1.6180  128.3510   24.8790 C.3    67  GLN67       0.0908
    106  CD        -2.1830  126.9580   25.0670 C.2    67  GLN67       0.2608
    107  OE1       -1.5020  125.9300   24.8800 O.2    67  GLN67      -0.2717
    108  NE2       -3.4380  126.8990   25.4860 N.am   67  GLN67      -0.0878
    109  N         -4.2440  114.1650   25.4530 N.3    98  ARG98      -0.1245
    110  CA        -3.7150  115.2240   24.5480 C.3    98  ARG98       0.1563
    111  C         -2.1810  115.3050   24.5460 C.2    98  ARG98       0.2260
    112  O         -1.5150  114.9410   25.5210 O.2    98  ARG98      -0.2867
    113  CB        -4.3460  116.6090   24.7600 C.3    98  ARG98       0.0307
    114  CG        -5.7070  116.7550   24.0870 C.3    98  ARG98       0.0489
    115  CD        -6.0660  118.1990   23.7910 C.3    98  ARG98       0.2205
    116  NE        -7.4930  118.3570   23.5070 N.pl3  98  ARG98      -0.0865
    117  CZ        -8.3280  119.0780   24.2520 C.cat  98  ARG98       0.5346
    118  NH1       -7.8830  119.7350   25.3140 N.pl3  98  ARG98       0.1354
    119  NH2       -9.6110  119.1650   23.9280 N.pl3  98  ARG98       0.1354
    120  N         -1.2450  121.1170   21.9370 N.3   103  ASP103     -0.1239
    121  CA        -1.0690  122.3400   22.7240 C.3   103  ASP103      0.1674
    122  C         -0.6680  123.4610   21.7730 C.2   103  ASP103      0.2266
    123  O         -1.2940  124.5110   21.7740 O.2   103  ASP103     -0.2867
    124  CB         0.0580  122.1920   23.7910 C.3   103  ASP103      0.1410
    125  CG        -0.0930  121.1300   24.8760 C.2   103  ASP103      0.3668
    126  OD1       -1.2490  120.8430   25.2810 O.co2 103  ASP103     -0.2456
    127  OD2        0.9500  120.6590   25.3890 O.co2 103  ASP103     -0.2456
    128  N         -4.4640  124.6070   19.8770 N.3   107  PHE107     -0.1241
    129  CA        -4.8330  125.6570   20.8230 C.3   107  PHE107      0.1605
    130  C         -3.9560  126.8940   20.7600 C.2   107  PHE107      0.2264
    131  O         -4.4890  127.9750   20.5100 O.2   107  PHE107     -0.2867
    132  CB        -4.9270  125.0900   22.2470 C.3   107  PHE107      0.0534
    133  CG        -6.1430  124.1890   22.4030 C.ar  107  PHE107     -0.0203
    134  CD1       -6.0870  122.8420   22.0450 C.ar  107  PHE107     -0.0042
    135  CD2       -7.3630  124.7040   22.8410 C.ar  107  PHE107     -0.0042
    136  CE1       -7.2240  122.0310   22.1320 C.ar  107  PHE107     -0.0003
    137  CE2       -8.4960  123.8840   22.9330 C.ar  107  PHE107     -0.0003
    138  CZ        -8.4200  122.5600   22.5660 C.ar  107  PHE107     -0.0000
    139  N         -5.0550  130.6020   19.2700 N.3   111  LEU111     -0.1245
    140  CA        -4.9410  131.8040   20.1130 C.3   111  LEU111      0.1561
    141  C         -4.0580  132.9130   19.4850 C.2   111  LEU111      0.2260
    142  O         -4.2900  134.1000   19.7400 O.2   111  LEU111     -0.2867
    143  CB        -4.5010  131.4530   21.5330 C.3   111  LEU111      0.0270
    144  CG        -5.6090  130.8630   22.3690 C.3   111  LEU111      0.0019
    145  CD1       -5.0560  130.0210   23.4640 C.3   111  LEU111      0.0001
    146  CD2       -6.5560  131.9380   22.8850 C.3   111  LEU111      0.0001
    147  N         -6.5360  134.2490   16.8440 N.3   114  SER114     -0.1202
    148  CA        -7.6220  134.9690   17.5220 C.3   114  SER114      0.2020
    149  C         -7.1520  136.3840   17.8620 C.2   114  SER114      0.2619
    150  O         -7.9560  137.2150   18.2920 O.2   114  SER114     -0.2717
    151  CB        -7.9440  134.2840   18.8500 C.3   114  SER114      0.2103
    152  OG        -8.8410  133.2000   18.7120 O.3   114  SER114     -0.2182
    153  N         -5.8260  136.6230   17.7380 N.am  115  GLU115     -0.1965
    154  CA        -5.1000  137.8460   18.1070 C.3   115  GLU115      0.1733
    155  C         -4.9320  137.9210   19.6380 C.2   115  GLU115      0.2616
    156  O         -4.6430  138.9890   20.1710 O.2   115  GLU115     -0.2715
    157  CB        -5.7350  139.1360   17.5280 C.3   115  GLU115      0.0429
    158  CG        -5.5440  139.3410   16.0350 C.3   115  GLU115      0.1163
    159  CD        -6.1210  140.6360   15.4930 C.2   115  GLU115      0.3649
    160  OE1       -7.1820  141.0790   15.9930 O.co2 115  GLU115     -0.2457
    161  OE2       -5.5110  141.2050   14.5590 O.co2 115  GLU115     -0.2457
    162  N         -5.0820  136.7810   20.3350 N.am  116  CYS116     -0.1968
    163  CA        -4.9030  136.7200   21.7800 C.3   116  CYS116      0.1712
    164  C         -3.4450  136.6660   22.1850 C.2   116  CYS116      0.2296
    165  O         -3.0990  136.9820   23.3300 O.2   116  CYS116     -0.2864
    166  CB        -5.7070  135.5820   22.3780 C.3   116  CYS116      0.0983
    167  SG        -7.4780  135.9070   22.3960 S.3   116  CYS116     -0.0798
    168  N        -21.6470  118.5070   30.6310 N.3   162  ARG162     -0.1245
    169  CA       -20.5350  118.7280   31.5490 C.3   162  ARG162      0.1563
    170  C        -20.9850  119.7740   32.5820 C.2   162  ARG162      0.2260
    171  O        -21.1270  119.4230   33.7520 O.2   162  ARG162     -0.2867
    172  CB       -19.2880  119.1820   30.7860 C.3   162  ARG162      0.0307
    173  CG       -18.0640  119.2400   31.6480 C.3   162  ARG162      0.0489
    174  CD       -16.9490  118.5090   30.9880 C.3   162  ARG162      0.2205
    175  NE       -16.4020  119.2990   29.8960 N.pl3 162  ARG162     -0.0865
    176  CZ       -15.2780  119.0020   29.2610 C.cat 162  ARG162      0.5346
    177  NH1      -14.5740  117.9290   29.6100 N.pl3 162  ARG162      0.1354
    178  NH2      -14.8430  119.7750   28.2760 N.pl3 162  ARG162      0.1354
    179  N        -19.5070  123.0520   33.2570 N.3   164  ARG164     -0.1245
    180  CA       -18.5030  124.0070   33.7560 C.3   164  ARG164      0.1563
    181  C        -19.0150  125.3460   33.2790 C.2   164  ARG164      0.2260
    182  O        -19.1640  125.5450   32.0790 O.2   164  ARG164     -0.2867
    183  CB       -17.1030  123.6950   33.1890 C.3   164  ARG164      0.0307
    184  CG       -16.5900  122.2980   33.5450 C.3   164  ARG164      0.0489
    185  CD       -15.2800  121.9070   32.8810 C.3   164  ARG164      0.2205
    186  NE       -14.7880  120.6310   33.4070 N.pl3 164  ARG164     -0.0865
    187  CZ       -13.8770  119.8610   32.8160 C.cat 164  ARG164      0.5346
    188  NH1      -13.3310  120.2300   31.6590 N.pl3 164  ARG164      0.1354
    189  NH2      -13.5010  118.7170   33.3800 N.pl3 164  ARG164      0.1354
    190  N        -17.2540  127.2540   30.5950 N.3   167  GLU167     -0.1245
    191  CA       -17.4480  126.5020   29.3550 C.3   167  GLU167      0.1567
    192  C        -18.8110  126.8070   28.6740 C.2   167  GLU167      0.2260
    193  O        -18.8760  126.7870   27.4450 O.2   167  GLU167     -0.2867
    194  CB       -17.3760  124.9960   29.6320 C.3   167  GLU167      0.0388
    195  CG       -15.9920  124.4100   29.7970 C.3   167  GLU167      0.1160
    196  CD       -16.0200  122.8990   29.6620 C.2   167  GLU167      0.3649
    197  OE1      -17.1080  122.2780   29.7830 O.co2 167  GLU167     -0.2457
    198  OE2      -14.9260  122.3350   29.4410 O.co2 167  GLU167     -0.2457
    199  N        -18.7720  129.0780   25.4480 N.3   170  ILE170     -0.1245
    200  CA       -18.1470  128.5720   24.2120 C.3   170  ILE170      0.1561
    201  C        -19.1100  128.5500   22.9980 C.2   170  ILE170      0.2260
    202  O        -20.1320  127.8550   23.0670 O.2   170  ILE170     -0.2867
    203  CB       -17.5100  127.1890   24.4840 C.3   170  ILE170      0.0252
    204  CG1      -16.2680  127.3330   25.3910 C.3   170  ILE170      0.0019
    205  CG2      -17.2020  126.4330   23.1820 C.3   170  ILE170      0.0019
    206  CD1      -15.5910  126.0000   25.8280 C.3   170  ILE170      0.0001
    207  N        -16.4060  128.6150   17.6050 N.3   174  TYR174     -0.1241
    208  CA       -15.1190  128.2580   18.1880 C.3   174  TYR174      0.1605
    209  C        -14.7870  126.7930   18.0310 C.2   174  TYR174      0.2264
    210  O        -13.6510  126.4660   17.6890 O.2   174  TYR174     -0.2867
    211  CB       -15.0300  128.6680   19.6520 C.3   174  TYR174      0.0534
    212  CG       -13.6730  128.3930   20.2680 C.ar  174  TYR174     -0.0201
    213  CD1      -12.5510  129.1200   19.8840 C.ar  174  TYR174     -0.0009
    214  CD2      -13.5130  127.4130   21.2470 C.ar  174  TYR174     -0.0009
    215  CE1      -11.2970  128.8740   20.4520 C.ar  174  TYR174      0.0417
    216  CE2      -12.2630  127.1570   21.8250 C.ar  174  TYR174      0.0417
    217  CZ       -11.1540  127.8890   21.4230 C.ar  174  TYR174      0.1957
    218  OH        -9.9140  127.6670   21.9950 O.3   174  TYR174     -0.2866
@<TRIPOS>BOND
     1   161   159   ar
     2   159   160   ar
     3   159   158    1
     4   158   157    1
     5   147   148    1
     6   148   149    1
     7   148   151    1
     8   157   154    1
     9   207   208    1
    10   210   209    2
    11   153   149   am
    12   153   154    1
    13   149   150    2
    14   209   208    1
    15   154   155    1
    16   208   211    1
    17   152   151    1
    18   139   140    1
    19   141   142    2
    20   141   140    1
    21   155   156    2
    22   155   162   am
    23   211   212    1
    24   128   129    1
    25   213   212   ar
    26   213   215   ar
    27   140   143    1
    28   212   214   ar
    29   162   163    1
    30   215   217   ar
    31   131   130    2
    32   130   129    1
    33   129   132    1
    34   214   216   ar
    35   217   216   ar
    36   217   218    1
    37   143   144    1
    38   122   123    2
    39   122   121    1
    40   163   164    1
    41   163   166    1
    42   120   121    1
    43   134   136   ar
    44   134   133   ar
    45   136   138   ar
    46   164   165    2
    47   132   133    1
    48   144   146    1
    49   144   145    1
    50   166   167    1
    51   133   135   ar
    52     1     2    1
    53   138   137   ar
    54   121   124    1
    55   135   137   ar
    56     4     3    2
    57   201   202    2
    58   201   200    1
    59   205   203    1
    60     8     6    1
    61   116   115    1
    62   116   117    2
    63     2     3    1
    64     2     5    1
    65   115   114    1
    66   124   125    1
    67    15    16    1
    68    15    14    1
    69   119   117    1
    70     5     6    1
    71     5     7    1
    72   114   113    1
    73    16    17    1
    74    14    13    1
    75   200   203    1
    76   200   199    1
    77   117   118    1
    78   203   204    1
    79   111   110    1
    80   111   112    2
    81   110   113    1
    82   110   109    1
    83    85    84    1
    84    85    86    1
    85   125   126   ar
    86   125   127   ar
    87   105   106    1
    88   105   104    1
    89   107   106    2
    90    84    81    1
    91   106   108   am
    92    87    86   ar
    93    81    80    1
    94    81    82    1
    95   204   206    1
    96   104   101    1
    97    13    10    1
    98     9    10    1
    99    83    82    2
   100    86    88   ar
   101    76    75    2
   102    10    11    1
   103    77    78    1
   104    77    74    1
   105    80    75   am
   106    75    74    1
   107    78    79    1
   108   103   102    2
   109    60    59    1
   110   101   102    1
   111   101   100    1
   112    74    73    1
   113    25    24   ar
   114    11    12    2
   115    79    73    1
   116   193   192    2
   117   100    91   am
   118    24    26   ar
   119    24    23    1
   120   178   176    1
   121    59    58    1
   122    23    22    1
   123   192   191    1
   124    95    97   ar
   125    95    94   ar
   126    97    99   ar
   127    91    92    2
   128    91    90    1
   129   176   177    1
   130   176   175    2
   131   191   194    1
   132   191   190    1
   133    58    57    1
   134   198   196   ar
   135    56    55    2
   136    33    31    1
   137   194   195    1
   138   196   197   ar
   139   196   195    1
   140    93    94    1
   141    93    90    1
   142    22    19    1
   143   175   174    1
   144    94    96   ar
   145    89    90    1
   146    64    63    2
   147    32    31    1
   148    99    98   ar
   149    69    67   ar
   150    69    71   ar
   151    31    28    1
   152    67    66   ar
   153    55    54    1
   154    55    61   am
   155   168   169    1
   156    19    18    1
   157    19    20    1
   158   172   169    1
   159   172   173    1
   160    57    54    1
   161    62    63    1
   162    62    61    1
   163    62    65    1
   164    72    71    1
   165   174   173    1
   166    54    53    1
   167    96    98   ar
   168    71    70   ar
   169   169   170    1
   170    66    65    1
   171    66    68   ar
   172   188   187    1
   173    28    27    1
   174    28    29    1
   175    38    35    1
   176    20    21    2
   177   182   181    2
   178    34    29   am
   179    34    35    1
   180    70    68   ar
   181    29    30    2
   182    35    36    1
   183    51    50    1
   184   170   171    2
   185   187   189    1
   186   187   186    2
   187   185   186    1
   188   185   184    1
   189    44    43    1
   190   183   184    1
   191   183   180    1
   192   179   180    1
   193   181   180    1
   194    48    47    2
   195    50    49    1
   196    50    52    1
   197    43    40    1
   198    36    37    2
   199    46    47    1
   200    46    49    1
   201    46    45    1
   202    40    39    1
   203    40    41    1
   204    42    41    2
