@<TRIPOS>MOLECULE
tmp/5mqvC00.pdb
 208 195 0 0 0
SMALL
GASTEIGER

@<TRIPOS>ATOM
      1  N          7.8310  -33.7910   45.2800 N.3     8  ARG8       -0.1245
      2  CA         6.5280  -33.2500   44.9270 C.3     8  ARG8        0.1563
      3  C          6.2580  -33.3780   43.4310 C.2     8  ARG8        0.2260
      4  O          7.1740  -33.3610   42.6030 O.2     8  ARG8       -0.2867
      5  CB         6.4220  -31.7840   45.3490 C.3     8  ARG8        0.0307
      6  CG         7.2800  -30.8250   44.5390 C.3     8  ARG8        0.0489
      7  CD         7.1640  -29.4050   45.0700 C.3     8  ARG8        0.2205
      8  NE         7.9270  -28.4550   44.2640 N.pl3   8  ARG8       -0.0865
      9  CZ         7.4810  -27.8820   43.1490 C.cat   8  ARG8        0.5346
     10  NH1        6.2680  -28.1560   42.6880 N.pl3   8  ARG8        0.1354
     11  NH2        8.2560  -27.0300   42.4890 N.pl3   8  ARG8        0.1354
     12  N          5.1390  -32.1720   39.8020 N.3    10  ILE10      -0.1231
     13  CA         5.3840  -30.9210   39.0930 C.3    10  ILE10       0.1692
     14  C          4.6120  -30.8290   37.7870 C.2    10  ILE10       0.2593
     15  O          4.6080  -29.7550   37.1650 O.2    10  ILE10      -0.2718
     16  CB         6.8890  -30.7020   38.8210 C.3    10  ILE10       0.0266
     17  CG1        7.4680  -31.8720   38.0090 C.3    10  ILE10       0.0019
     18  CG2        7.6240  -30.5190   40.1510 C.3    10  ILE10       0.0020
     19  CD1        8.9620  -32.1080   38.1850 C.3    10  ILE10       0.0001
     20  N          3.9610  -31.8990   37.3480 N.am   11  GLY11      -0.1942
     21  CA         3.1480  -31.8440   36.1480 C.3    11  GLY11       0.2014
     22  C          2.9060  -33.2400   35.5990 C.2    11  GLY11       0.2640
     23  O          2.9860  -34.2310   36.3230 O.2    11  GLY11      -0.2714
     24  N          2.6020  -33.2810   34.3020 N.am   12  SER12      -0.1935
     25  CA         2.3460  -34.5250   33.5930 C.3    12  SER12       0.2055
     26  C          2.8890  -34.4190   32.1770 C.2    12  SER12       0.2643
     27  O          2.8240  -33.3530   31.5570 O.2    12  SER12      -0.2714
     28  CB         0.8460  -34.8490   33.5510 C.3    12  SER12       0.2130
     29  OG         0.3150  -34.9760   34.8590 O.3    12  SER12      -0.2179
     30  N          3.4290  -35.5230   31.6720 N.am   13  GLY13      -0.1954
     31  CA         3.8460  -35.6200   30.2900 C.3    13  GLY13       0.1869
     32  C          2.7280  -36.1450   29.4160 C.2    13  GLY13       0.2309
     33  O          1.5520  -36.1330   29.7870 O.2    13  GLY13      -0.2863
     34  N          4.8660  -36.5310   36.4480 N.3    18  ILE18      -0.1245
     35  CA         6.2330  -36.0550   36.6330 C.3    18  ILE18       0.1561
     36  C          6.3810  -35.5250   38.0530 C.2    18  ILE18       0.2260
     37  O          5.5340  -34.7610   38.5330 O.2    18  ILE18      -0.2867
     38  CB         6.6030  -34.9730   35.6040 C.3    18  ILE18       0.0252
     39  CG1        6.1960  -35.4030   34.1920 C.3    18  ILE18       0.0019
     40  CG2        8.0970  -34.6920   35.6560 C.3    18  ILE18       0.0019
     41  CD1        6.8240  -36.7080   33.7340 C.3    18  ILE18       0.0001
     42  N          9.5630  -34.3180   41.1750 N.3    20  LEU20      -0.1245
     43  CA        10.9440  -34.1640   41.5960 C.3    20  LEU20       0.1561
     44  C         11.3290  -35.3240   42.5070 C.2    20  LEU20       0.2260
     45  O         10.4820  -35.9540   43.1470 O.2    20  LEU20      -0.2867
     46  CB        11.1480  -32.8320   42.3210 C.3    20  LEU20       0.0270
     47  CG        11.0470  -31.5570   41.4800 C.3    20  LEU20       0.0019
     48  CD1       10.9940  -30.3340   42.3780 C.3    20  LEU20       0.0001
     49  CD2       12.2280  -31.4580   40.5300 C.3    20  LEU20       0.0001
     50  N         14.5740  -35.7600   38.0920 N.3    31  ALA31      -0.1231
     51  CA        13.1640  -35.7710   37.7280 C.3    31  ALA31       0.1694
     52  C         12.7330  -37.2130   37.4980 C.2    31  ALA31       0.2592
     53  O         13.5190  -38.0310   37.0170 O.2    31  ALA31      -0.2718
     54  CB        12.9030  -34.9280   36.4790 C.3    31  ALA31       0.0304
     55  N         11.4960  -37.5320   37.8700 N.am   32  ILE32      -0.1966
     56  CA        11.0120  -38.9070   37.8690 C.3    32  ILE32       0.1727
     57  C          9.6510  -38.9520   37.1890 C.2    32  ILE32       0.2616
     58  O          8.7520  -38.1800   37.5340 O.2    32  ILE32      -0.2715
     59  CB        10.9340  -39.4810   39.2980 C.3    32  ILE32       0.0290
     60  CG1       12.3310  -39.4660   39.9310 C.3    32  ILE32       0.0022
     61  CG2       10.3450  -40.8900   39.2820 C.3    32  ILE32       0.0023
     62  CD1       12.3930  -39.9800   41.3640 C.3    32  ILE32       0.0001
     63  N          9.5010  -39.8620   36.2330 N.am   33  LYS33      -0.1977
     64  CA         8.2410  -40.0990   35.5450 C.3    33  LYS33       0.1596
     65  C          7.6720  -41.4310   36.0170 C.2    33  LYS33       0.2287
     66  O          8.3850  -42.4430   36.0350 O.2    33  LYS33      -0.2864
     67  CB         8.4430  -40.1000   34.0290 C.3    33  LYS33       0.0298
     68  CG         7.1600  -40.1630   33.2180 C.3    33  LYS33       0.0038
     69  CD         7.4410  -39.9590   31.7370 C.3    33  LYS33       0.0206
     70  CE         6.1790  -39.5980   30.9730 C.3    33  LYS33       0.1093
     71  NZ         6.4170  -39.5090   29.5070 N.3    33  LYS33      -0.1314
     72  N          9.0170  -45.7040   25.6320 N.3    47  GLU47      -0.1245
     73  CA         9.6220  -44.3780   25.5920 C.3    47  GLU47       0.1567
     74  C         11.0560  -44.4240   26.0970 C.2    47  GLU47       0.2260
     75  O         11.9460  -43.7920   25.5180 O.2    47  GLU47      -0.2867
     76  CB         8.7990  -43.3880   26.4190 C.3    47  GLU47       0.0388
     77  CG         9.1440  -41.9310   26.1350 C.3    47  GLU47       0.1160
     78  CD         8.4780  -40.9580   27.0970 C.2    47  GLU47       0.3649
     79  OE1        7.8070  -41.4120   28.0470 O.co2  47  GLU47      -0.2457
     80  OE2        8.6320  -39.7320   26.9020 O.co2  47  GLU47      -0.2457
     81  N         14.4300  -42.9880   24.2970 N.3    51  TYR51      -0.1241
     82  CA        15.4560  -42.1500   24.9130 C.3    51  TYR51       0.1605
     83  C         16.8310  -42.7870   24.7880 C.2    51  TYR51       0.2264
     84  O         17.8150  -42.1090   24.4710 O.2    51  TYR51      -0.2867
     85  CB        15.1440  -41.9030   26.3900 C.3    51  TYR51       0.0534
     86  CG        14.2380  -40.7290   26.6620 C.ar   51  TYR51      -0.0201
     87  CD1       14.6990  -39.4310   26.5200 C.ar   51  TYR51      -0.0009
     88  CD2       12.9330  -40.9170   27.0950 C.ar   51  TYR51      -0.0009
     89  CE1       13.8820  -38.3500   26.7800 C.ar   51  TYR51       0.0417
     90  CE2       12.1090  -39.8420   27.3570 C.ar   51  TYR51       0.0417
     91  CZ        12.5920  -38.5620   27.2010 C.ar   51  TYR51       0.1957
     92  OH        11.7860  -37.4820   27.4610 O.3    51  TYR51      -0.2866
     93  N         18.8060  -40.8590   30.7620 N.3    63  ILE63      -0.1245
     94  CA        17.7100  -41.5700   31.4060 C.3    63  ILE63       0.1561
     95  C         18.2500  -42.7930   32.1380 C.2    63  ILE63       0.2260
     96  O         19.3400  -43.2920   31.8500 O.2    63  ILE63      -0.2867
     97  CB        16.6260  -41.9860   30.3760 C.3    63  ILE63       0.0252
     98  CG1       15.2780  -41.3630   30.7260 C.3    63  ILE63       0.0019
     99  CG2       16.4820  -43.5060   30.2610 C.3    63  ILE63       0.0019
    100  CD1       15.2400  -39.8660   30.5650 C.3    63  ILE63       0.0001
    101  N         10.7800  -44.0760   35.5470 N.3    75  MET75      -0.1245
    102  CA        11.8820  -43.6220   34.7060 C.3    75  MET75       0.1570
    103  C         12.5140  -42.4040   35.3650 C.2    75  MET75       0.2261
    104  O         11.8000  -41.5040   35.8120 O.2    75  MET75      -0.2867
    105  CB        11.4030  -43.2820   33.2890 C.3    75  MET75       0.0387
    106  CG        12.5360  -43.0130   32.3060 C.3    75  MET75       0.0595
    107  SD        11.9960  -42.8990   30.5870 S.3    75  MET75      -0.1393
    108  CE        10.9670  -41.4340   30.6380 C.3    75  MET75       0.0692
    109  N         15.2630  -39.2110   35.0810 N.3    77  MET77      -0.1230
    110  CA        15.9610  -38.3220   34.1650 C.3    77  MET77       0.1702
    111  C         16.7800  -37.3020   34.9470 C.2    77  MET77       0.2592
    112  O         16.3880  -36.8630   36.0370 O.2    77  MET77      -0.2718
    113  CB        14.9780  -37.5760   33.2440 C.3    77  MET77       0.0401
    114  CG        15.6490  -36.6340   32.2380 C.3    77  MET77       0.0596
    115  SD        14.4880  -35.6650   31.2480 S.3    77  MET77      -0.1393
    116  CE        13.8810  -36.9100   30.1140 C.3    77  MET77       0.0692
    117  N         17.9240  -36.9330   34.3720 N.am   78  GLU78      -0.1966
    118  CA        18.7070  -35.8270   34.8990 C.3    78  GLU78       0.1733
    119  C         17.8400  -34.5790   34.9910 C.2    78  GLU78       0.2616
    120  O         17.0230  -34.3030   34.1080 O.2    78  GLU78      -0.2715
    121  CB        19.9160  -35.5560   34.0000 C.3    78  GLU78       0.0429
    122  CG        19.5430  -35.1110   32.5770 C.3    78  GLU78       0.1163
    123  CD        20.7430  -34.6810   31.7530 C.2    78  GLU78       0.3649
    124  OE1       21.4450  -33.7380   32.1710 O.co2  78  GLU78      -0.2457
    125  OE2       20.9810  -35.2810   30.6850 O.co2  78  GLU78      -0.2457
    126  N         18.0220  -33.8140   36.0610 N.am   79  LEU79      -0.1963
    127  CA        17.2390  -32.6000   36.2310 C.3    79  LEU79       0.1728
    128  C         17.6290  -31.5710   35.1790 C.2    79  LEU79       0.2616
    129  O         18.8100  -31.3820   34.8750 O.2    79  LEU79      -0.2715
    130  CB        17.4340  -32.0210   37.6310 C.3    79  LEU79       0.0311
    131  CG        16.5040  -30.8580   37.9910 C.3    79  LEU79       0.0022
    132  CD1       15.0510  -31.3170   38.0360 C.3    79  LEU79       0.0001
    133  CD2       16.9040  -30.2360   39.3230 C.3    79  LEU79       0.0001
    134  N         16.6220  -30.9190   34.6090 N.am   80  LEU80      -0.1963
    135  CA        16.8060  -29.8640   33.6270 C.3    80  LEU80       0.1728
    136  C         16.1230  -28.5920   34.1160 C.2    80  LEU80       0.2617
    137  O         15.4540  -28.5740   35.1520 O.2    80  LEU80      -0.2715
    138  CB        16.2560  -30.2910   32.2600 C.3    80  LEU80       0.0311
    139  CG        16.9640  -31.4780   31.5990 C.3    80  LEU80       0.0022
    140  CD1       16.1750  -31.9550   30.3890 C.3    80  LEU80       0.0001
    141  CD2       18.3910  -31.1180   31.1950 C.3    80  LEU80       0.0001
    142  N         16.2980  -27.5170   33.3520 N.am   81  GLY81      -0.1941
    143  CA        15.8010  -26.2160   33.7330 C.3    81  GLY81       0.1998
    144  C         14.4150  -25.9140   33.1930 C.2    81  GLY81       0.2480
    145  O         13.6420  -26.8160   32.8590 O.2    81  GLY81      -0.2729
    146  N         14.0720  -24.6290   33.1060 N.am   82  PRO82      -0.2726
    147  CA        12.7200  -24.2540   32.6770 C.3    82  PRO82       0.1402
    148  C         12.4870  -24.5730   31.2110 C.2    82  PRO82       0.2269
    149  O         13.4190  -24.7080   30.4150 O.2    82  PRO82      -0.2865
    150  CB        12.6670  -22.7380   32.9090 C.3    82  PRO82       0.0296
    151  CG        13.9440  -22.3690   33.5750 C.3    82  PRO82       0.0237
    152  CD        14.9270  -23.4490   33.3010 C.3    82  PRO82       0.0939
    153  N          7.7890  -21.5620   29.8570 N.3    86  ASP86      -0.1239
    154  CA         8.0780  -20.8570   31.1030 C.3    86  ASP86       0.1674
    155  C          8.8510  -19.5740   30.8340 C.2    86  ASP86       0.2266
    156  O          8.4970  -18.5010   31.3330 O.2    86  ASP86      -0.2867
    157  CB         8.8750  -21.7570   32.0520 C.3    86  ASP86       0.1410
    158  CG         8.0720  -22.9370   32.5640 C.2    86  ASP86       0.3668
    159  OD1        6.8340  -22.8150   32.6820 O.co2  86  ASP86      -0.2456
    160  OD2        8.6850  -23.9850   32.8670 O.co2  86  ASP86      -0.2456
    161  N          6.6050  -26.3390   25.3800 N.3   127  ASP127     -0.1225
    162  CA         6.6750  -27.0670   26.6430 C.3   127  ASP127      0.1805
    163  C          7.6620  -28.2270   26.5990 C.2   127  ASP127      0.2597
    164  O          8.1170  -28.6780   27.6560 O.2   127  ASP127     -0.2718
    165  CB         5.2910  -27.5930   27.0280 C.3   127  ASP127      0.1424
    166  CG         4.4040  -26.5210   27.6330 C.2   127  ASP127      0.3668
    167  OD1        4.8900  -25.7650   28.5010 O.co2 127  ASP127     -0.2456
    168  OD2        3.2190  -26.4400   27.2490 O.co2 127  ASP127     -0.2456
    169  N          7.9980  -28.7280   25.4120 N.am  128  ASN128     -0.1974
    170  CA         8.8570  -29.8970   25.2810 C.3   128  ASN128      0.1688
    171  C         10.3060  -29.5370   24.9810 C.2   128  ASN128      0.2292
    172  O         11.0820  -30.4130   24.5810 O.2   128  ASN128     -0.2864
    173  CB         8.3010  -30.8320   24.2030 C.3   128  ASN128      0.1181
    174  CG         7.1240  -31.6530   24.7020 C.2   128  ASN128      0.2629
    175  OD1        6.9690  -31.8570   25.9050 O.2   128  ASN128     -0.2716
    176  ND2        6.2900  -32.1270   23.7830 N.am  128  ASN128     -0.0877
    177  N         13.4890  -27.7420   27.0370 N.3   130  LEU130     -0.1245
    178  CA        13.9350  -27.3010   28.3530 C.3   130  LEU130      0.1561
    179  C         15.3840  -26.8480   28.2800 C.2   130  LEU130      0.2260
    180  O         16.2050  -27.4860   27.6200 O.2   130  LEU130     -0.2867
    181  CB        13.8210  -28.4300   29.3840 C.3   130  LEU130      0.0270
    182  CG        12.4990  -28.6400   30.1230 C.3   130  LEU130      0.0019
    183  CD1       11.3240  -28.7100   29.1680 C.3   130  LEU130      0.0001
    184  CD2       12.5830  -29.9090   30.9630 C.3   130  LEU130      0.0001
    185  N         20.9440  -26.8120   32.9550 N.3   133  LEU133     -0.1245
    186  CA        21.2500  -26.1990   34.2390 C.3   133  LEU133      0.1561
    187  C         22.7060  -25.7570   34.2970 C.2   133  LEU133      0.2260
    188  O         23.5790  -26.3290   33.6370 O.2   133  LEU133     -0.2867
    189  CB        20.9710  -27.1670   35.3950 C.3   133  LEU133      0.0270
    190  CG        19.5160  -27.5740   35.6280 C.3   133  LEU133      0.0019
    191  CD1       19.4250  -28.6080   36.7380 C.3   133  LEU133      0.0001
    192  CD2       18.6760  -26.3560   35.9750 C.3   133  LEU133      0.0001
    193  N         12.4960  -32.9570   25.0650 N.3   143  ILE143     -0.1231
    194  CA        11.9980  -34.0020   25.9480 C.3   143  ILE143      0.1692
    195  C         10.7220  -34.6040   25.3760 C.2   143  ILE143      0.2592
    196  O         10.1120  -34.0780   24.4430 O.2   143  ILE143     -0.2718
    197  CB        11.7320  -33.4930   27.3830 C.3   143  ILE143      0.0266
    198  CG1       10.7030  -32.3570   27.3770 C.3   143  ILE143      0.0019
    199  CG2       13.0280  -33.0440   28.0360 C.3   143  ILE143      0.0020
    200  CD1       10.0590  -32.1220   28.7220 C.3   143  ILE143      0.0001
    201  N         10.3270  -35.7270   25.9770 N.am  144  ASP144     -0.1974
    202  CA         9.0340  -36.3670   25.7680 C.3   144  ASP144      0.1709
    203  C          8.9450  -37.0510   24.4110 C.2   144  ASP144      0.2293
    204  O          8.6570  -36.4110   23.3950 O.2   144  ASP144     -0.2864
    205  CB         7.8950  -35.3600   25.9250 C.3   144  ASP144      0.1436
    206  CG         6.6030  -36.0180   26.3830 C.2   144  ASP144      0.3671
    207  OD1        6.2760  -37.1050   25.8640 O.co2 144  ASP144     -0.2456
    208  OD2        5.9250  -35.4610   27.2710 O.co2 144  ASP144     -0.2456
@<TRIPOS>BOND
     1   204   203    2
     2   176   174   am
     3   173   174    1
     4   173   170    1
     5    81    82    1
     6   203   202    1
     7   196   195    2
     8    84    83    2
     9   172   171    2
    10   174   175    2
    11    83    82    1
    12    82    85    1
    13   171   170    1
    14   193   194    1
    15   170   169    1
    16   195   194    1
    17   195   201   am
    18   161   162    1
    19   169   163   am
    20    75    74    2
    21    73    72    1
    22    73    74    1
    23    73    76    1
    24   202   205    1
    25   202   201    1
    26   207   206   ar
    27   205   206    1
    28   194   197    1
    29    77    76    1
    30    77    78    1
    31   206   208   ar
    32    85    86    1
    33    87    86   ar
    34    87    89   ar
    35   163   162    1
    36   163   164    2
    37   162   165    1
    38    86    88   ar
    39    89    91   ar
    40    80    78   ar
    41   165   166    1
    42   177   178    1
    43    88    90   ar
    44    78    79   ar
    45    91    90   ar
    46    91    92    1
    47   168   166   ar
    48   198   197    1
    49   198   200    1
    50   197   199    1
    51   180   179    2
    52   166   167   ar
    53   179   178    1
    54   178   181    1
    55   183   182    1
    56   181   182    1
    57    32    33    2
    58    32    31    1
    59    71    70    1
    60   153   154    1
    61   116   115    1
    62   182   184    1
    63    99    97    1
    64    31    30    1
    65    97    98    1
    66    97    94    1
    67   140   139    1
    68   149   148    2
    69   100    98    1
    70   107   108    1
    71   107   106    1
    72   125   123   ar
    73    93    94    1
    74   155   154    1
    75   155   156    2
    76    70    69    1
    77   154   157    1
    78   141   139    1
    79   148   147    1
    80   115   114    1
    81    94    95    1
    82    27    26    2
    83   139   138    1
    84    30    26   am
    85    69    68    1
    86   123   124   ar
    87   123   122    1
    88    96    95    2
    89   157   158    1
    90    26    25    1
    91   114   113    1
    92   138   135    1
    93   106   105    1
    94   158   159   ar
    95   158   160   ar
    96   122   121    1
    97   147   150    1
    98   147   146    1
    99   145   144    2
   100   150   151    1
   101   185   186    1
   102   146   144   am
   103   146   152    1
   104   144   143    1
   105    68    67    1
   106   113   110    1
   107   105   102    1
   108   152   151    1
   109   142   143    1
   110   142   136   am
   111    28    25    1
   112    28    29    1
   113    25    24    1
   114   135   136    1
   115   135   134    1
   116   188   187    2
   117    41    39    1
   118   121   118    1
   119    67    64    1
   120   120   119    2
   121   136   137    2
   122   110   111    1
   123   110   109    1
   124    39    38    1
   125   186   187    1
   126   186   189    1
   127    24    22   am
   128   117   118    1
   129   117   111   am
   130   134   128   am
   131   102   103    1
   132   102   101    1
   133   129   128    2
   134   118   119    1
   135   111   112    2
   136   119   126   am
   137   128   127    1
   138   103   104    2
   139   189   190    1
   140    64    65    1
   141    64    63    1
   142    22    21    1
   143    22    23    2
   144    38    40    1
   145    38    35    1
   146   190   192    1
   147   190   191    1
   148    65    66    2
   149   126   127    1
   150    21    20    1
   151   127   130    1
   152    63    57   am
   153    34    35    1
   154    54    51    1
   155    35    36    1
   156    53    52    2
   157    15    14    2
   158    57    58    2
   159    57    56    1
   160    20    14   am
   161    52    51    1
   162    52    55   am
   163   130   131    1
   164    51    50    1
   165    14    13    1
   166    56    55    1
   167    56    59    1
   168   131   132    1
   169   131   133    1
   170    17    19    1
   171    17    16    1
   172    36    37    2
   173    16    13    1
   174    16    18    1
   175    13    12    1
   176    61    59    1
   177    59    60    1
   178    60    62    1
   179    49    47    1
   180    42    43    1
   181    47    46    1
   182    47    48    1
   183    43    46    1
   184    43    44    1
   185    11     9    1
   186    44    45    2
   187     4     3    2
   188    10     9    1
   189     9     8    2
   190     3     2    1
   191     8     7    1
   192     6     7    1
   193     6     5    1
   194     2     1    1
   195     2     5    1
