@<TRIPOS>MOLECULE
tmp/5mqyA00.pdb
 136 130 0 0 0
SMALL
GASTEIGER

@<TRIPOS>ATOM
      1  N         55.1980   49.0220    3.8690 N.3    19  GLN19      -0.1245
      2  CA        55.6870   48.0520    4.8190 C.3    19  GLN19       0.1566
      3  C         55.0910   46.6220    4.4690 C.2    19  GLN19       0.2260
      4  O         55.6030   45.6260    4.9830 O.2    19  GLN19      -0.2867
      5  CB        55.3890   48.3740    6.2800 C.3    19  GLN19       0.0367
      6  CG        53.8850   48.3950    6.5700 C.3    19  GLN19       0.0905
      7  CD        53.6360   48.8730    7.9650 C.2    19  GLN19       0.2608
      8  OE1       53.5690   50.1220    8.1810 O.2    19  GLN19      -0.2717
      9  NE2       53.5580   48.0190    8.9540 N.am   19  GLN19      -0.0878
     10  N         54.8690   43.9000   10.6120 N.3    23  GLY23      -0.1225
     11  CA        54.7070   44.9260   11.6490 C.3    23  GLY23       0.1811
     12  C         56.0150   45.7990   11.8630 C.2    23  GLY23       0.2280
     13  O         56.4830   45.8340   12.9540 O.2    23  GLY23      -0.2866
     14  N         56.2080   49.1540   10.9010 N.3    25  CYS25      -0.1221
     15  CA        55.9320   50.6080   10.8650 C.3    25  CYS25       0.1808
     16  C         57.0450   51.3380   11.6030 C.2    25  CYS25       0.2601
     17  O         57.4300   52.4580   11.1530 O.2    25  CYS25      -0.2717
     18  CB        54.5930   50.7870   11.5880 C.3    25  CYS25       0.0970
     19  SG        54.4320   50.2370   13.2490 S.3    25  CYS25      -0.0800
     20  N         57.4530   50.8830   12.7680 N.am   26  TRP26      -0.1976
     21  CA        58.5180   51.5150   13.5390 C.3    26  TRP26       0.1640
     22  C         59.7560   51.7600   12.7510 C.2    26  TRP26       0.2290
     23  O         60.4960   52.7490   13.0130 O.2    26  TRP26      -0.2864
     24  CB        58.7300   50.7000   14.8230 C.3    26  TRP26       0.0576
     25  CG        59.1400   49.2460   14.5120 C.ar   26  TRP26       0.0006
     26  CD1       58.2830   48.2010   14.2630 C.ar   26  TRP26       0.0946
     27  CD2       60.4680   48.7790   14.3130 C.ar   26  TRP26       0.0152
     28  NE1       59.0480   47.0920   13.9710 N.ar   26  TRP26      -0.2442
     29  CE2       60.3720   47.3880   13.9690 C.ar   26  TRP26       0.0810
     30  CE3       61.7380   49.3700   14.3660 C.ar   26  TRP26       0.0012
     31  CZ2       61.4920   46.5640   13.7390 C.ar   26  TRP26       0.0191
     32  CZ3       62.8340   48.5910   14.1330 C.ar   26  TRP26       0.0001
     33  CH2       62.7000   47.1780   13.8080 C.ar   26  TRP26       0.0015
     34  N         65.8560   45.7120   21.5330 N.3    61  GLY61      -0.1225
     35  CA        64.4310   45.5170   21.9740 C.3    61  GLY61       0.1811
     36  C         63.4630   45.3500   20.8550 C.2    61  GLY61       0.2280
     37  O         62.2720   45.1530   21.1780 O.2    61  GLY61      -0.2866
     38  N         61.3830   43.6900   17.6280 N.3    63  GLU63      -0.1245
     39  CA        60.8990   42.3330   17.4060 C.3    63  GLU63       0.1567
     40  C         60.5340   42.1450   15.9500 C.2    63  GLU63       0.2260
     41  O         59.5480   41.4360   15.6120 O.2    63  GLU63      -0.2867
     42  CB        59.7450   42.0430   18.3760 C.3    63  GLU63       0.0388
     43  CG        60.1390   42.1700   19.8490 C.3    63  GLU63       0.1160
     44  CD        58.9960   41.7230   20.7780 C.2    63  GLU63       0.3649
     45  OE1       58.0430   41.1320   20.2900 O.co2  63  GLU63      -0.2457
     46  OE2       59.0480   41.9820   21.9800 O.co2  63  GLU63      -0.2457
     47  N         59.1030   41.7980   12.4260 N.3    65  CYS65      -0.1221
     48  CA        57.7670   42.0130   11.8830 C.3    65  CYS65       0.1808
     49  C         56.7540   41.9050   13.0000 C.2    65  CYS65       0.2601
     50  O         55.5250   42.1130   12.7130 O.2    65  CYS65      -0.2717
     51  CB        57.4140   41.0050   10.7590 C.3    65  CYS65       0.0970
     52  SG        58.3790   41.3480    9.2750 S.3    65  CYS65      -0.0800
     53  N         57.1030   41.6480   14.2500 N.am   66  ASN66      -0.1960
     54  CA        56.1600   41.6690   15.3690 C.3    66  ASN66       0.1819
     55  C         56.0590   43.0230   16.0240 C.2    66  ASN66       0.2622
     56  O         55.3140   43.2010   16.9710 O.2    66  ASN66      -0.2715
     57  CB        56.4650   40.6170   16.3720 C.3    66  ASN66       0.1195
     58  CG        56.1410   39.1990   15.8690 C.2    66  ASN66       0.2630
     59  OD1       55.3980   39.0440   14.8960 O.2    66  ASN66      -0.2716
     60  ND2       56.7130   38.2230   16.5250 N.am   66  ASN66      -0.0877
     61  N         56.9040   43.9630   15.6300 N.am   67  GLY67      -0.1940
     62  CA        56.7910   45.3810   16.2120 C.3    67  GLY67       0.2014
     63  C         58.1270   45.7800   16.7590 C.2    67  GLY67       0.2639
     64  O         59.1300   45.0380   16.7620 O.2    67  GLY67      -0.2714
     65  N         58.1810   47.0040   17.2810 N.am   68  GLY68      -0.1939
     66  CA        59.4130   47.6140   17.7550 C.3    68  GLY68       0.2014
     67  C         59.1560   49.0840   17.9790 C.2    68  GLY68       0.2639
     68  O         58.0090   49.5050   17.8550 O.2    68  GLY68      -0.2714
     69  N         60.1880   49.7890   18.3880 N.am   69  LEU69      -0.1963
     70  CA        60.0290   51.2390   18.7580 C.3    69  LEU69       0.1728
     71  C         61.0600   51.9830   17.9800 C.2    69  LEU69       0.2616
     72  O         62.2130   51.5540   17.7410 O.2    69  LEU69      -0.2715
     73  CB        60.3180   51.4810   20.2270 C.3    69  LEU69       0.0311
     74  CG        59.3430   50.8640   21.2730 C.3    69  LEU69       0.0022
     75  CD1       59.7020   51.2500   22.6300 C.3    69  LEU69       0.0001
     76  CD2       57.8770   51.1990   20.9680 C.3    69  LEU69       0.0001
     77  N         60.6830   53.2260   17.5680 N.am   70  MET70      -0.1977
     78  CA        61.6340   54.0830   16.8360 C.3    70  MET70       0.1605
     79  C         62.8380   54.3630   17.7300 C.2    70  MET70       0.2287
     80  O         63.9600   54.3740   17.1650 O.2    70  MET70      -0.2864
     81  CB        60.8990   55.4070   16.3820 C.3    70  MET70       0.0413
     82  CG        59.8530   55.1240   15.3430 C.3    70  MET70       0.0598
     83  SD        58.2580   54.4910   15.9390 S.3    70  MET70      -0.1393
     84  CE        57.4790   56.0180   16.4760 C.3    70  MET70       0.0692
     85  N         64.2720   52.4720   19.8480 N.3    72  TYR72      -0.1241
     86  CA        65.1560   51.2720   19.8490 C.3    72  TYR72       0.1605
     87  C         65.8430   51.2360   18.5140 C.2    72  TYR72       0.2264
     88  O         67.0520   50.8690   18.4760 O.2    72  TYR72      -0.2867
     89  CB        64.3300   49.9880   20.0550 C.3    72  TYR72       0.0534
     90  CG        63.6800   49.8530   21.3570 C.ar   72  TYR72      -0.0201
     91  CD1       63.9720   50.6410   22.4680 C.ar   72  TYR72      -0.0009
     92  CD2       62.7700   48.7840   21.5120 C.ar   72  TYR72      -0.0009
     93  CE1       63.3760   50.3830   23.7140 C.ar   72  TYR72       0.0417
     94  CE2       62.1580   48.4990   22.7410 C.ar   72  TYR72       0.0417
     95  CZ        62.5040   49.2380   23.8000 C.ar   72  TYR72       0.1957
     96  OH        61.8130   48.9830   24.9660 O.3    72  TYR72      -0.2866
     97  N         54.0610   58.0210   17.3750 N.3   135  ALA135     -0.1245
     98  CA        53.0990   56.8860   17.3420 C.3   135  ALA135      0.1562
     99  C         51.7050   57.4260   17.5030 C.2   135  ALA135      0.2260
    100  O         51.4870   58.3760   18.2580 O.2   135  ALA135     -0.2867
    101  CB        53.4520   55.9220   18.4890 C.3   135  ALA135      0.0290
    102  N         48.6770   53.9720   21.7900 N.3   161  MET161     -0.1230
    103  CA        49.0420   54.1200   20.3450 C.3   161  MET161      0.1702
    104  C         49.5880   52.7640   19.8530 C.2   161  MET161      0.2592
    105  O         50.1990   51.9780   20.6320 O.2   161  MET161     -0.2718
    106  CB        50.2060   55.1780   20.2180 C.3   161  MET161      0.0401
    107  CG        49.6760   56.6110   20.7940 C.3   161  MET161      0.0596
    108  SD        50.0000   56.8510   22.5150 S.3   161  MET161     -0.1393
    109  CE        51.8300   56.8600   22.3550 C.3   161  MET161      0.0692
    110  N         49.4320   52.5030   18.5950 N.am  162  ASP162     -0.1960
    111  CA        49.8020   51.1960   18.0530 C.3   162  ASP162      0.1840
    112  C         50.3580   51.2140   16.6700 C.2   162  ASP162      0.2622
    113  O         50.6700   50.1850   16.0620 O.2   162  ASP162     -0.2715
    114  CB        48.5380   50.2960   18.0540 C.3   162  ASP162      0.1450
    115  CG        47.5040   50.7350   17.0640 C.2   162  ASP162      0.3671
    116  OD1       47.6190   51.8450   16.4370 O.co2 162  ASP162     -0.2456
    117  OD2       46.4330   50.0230   16.9230 O.co2 162  ASP162     -0.2456
    118  N         50.8260   52.4180   16.2590 N.am  163  HIS163     -0.1959
    119  CA        51.2870   52.5070   14.8770 C.3   163  HIS163      0.1787
    120  C         52.3880   53.6790   14.7400 C.2   163  HIS163      0.2620
    121  O         52.0080   54.8130   15.0620 O.2   163  HIS163     -0.2715
    122  CB        50.1230   52.7230   13.9330 C.3   163  HIS163      0.0785
    123  CG        50.4680   52.6970   12.4920 C.ar  163  HIS163      0.0821
    124  ND1       51.1390   51.5910   11.9080 N.ar  163  HIS163     -0.2267
    125  CD2       50.3310   53.6010   11.4950 C.ar  163  HIS163      0.1154
    126  CE1       51.3240   51.8430   10.6230 C.ar  163  HIS163      0.1986
    127  NE2       50.8380   53.0660   10.3420 N.ar  163  HIS163     -0.2212
    128  N         53.5600   53.3990   14.2200 N.am  164  GLY164     -0.1954
    129  CA        54.6130   54.4370   14.1230 C.3   164  GLY164      0.1869
    130  C         54.5390   54.9890   12.7620 C.2   164  GLY164      0.2309
    131  O         54.4880   54.3340   11.6990 O.2   164  GLY164     -0.2863
    132  N         54.3920   59.9510   21.9980 N.3   210  ALA210     -0.1245
    133  CA        55.6130   59.1800   21.8630 C.3   210  ALA210      0.1562
    134  C         56.3640   59.6810   20.6490 C.2   210  ALA210      0.2260
    135  O         56.6570   58.9560   19.6710 O.2   210  ALA210     -0.2867
    136  CB        55.3310   57.6520   21.7290 C.3   210  ALA210      0.0290
@<TRIPOS>BOND
     1     1     2    1
     2     3     2    1
     3     3     4    2
     4     2     5    1
     5     5     6    1
     6     6     7    1
     7     7     8    2
     8     7     9   am
     9    52    51    1
    10   127   126   ar
    11   127   125   ar
    12    10    11    1
    13   126   124   ar
    14    51    48    1
    15    15    14    1
    16    15    18    1
    17    15    16    1
    18    17    16    2
    19   125   123   ar
    20    18    19    1
    21    16    20   am
    22    11    12    1
    23   131   130    2
    24    12    13    2
    25    48    47    1
    26    48    49    1
    27   124   123   ar
    28   123   122    1
    29    50    49    2
    30    22    23    2
    31    22    21    1
    32   130   129    1
    33    20    21    1
    34    49    53   am
    35    21    24    1
    36    31    33   ar
    37    31    29   ar
    38    33    32   ar
    39   122   119    1
    40    29    28   ar
    41    29    27   ar
    42    28    26   ar
    43   129   128    1
    44    32    30   ar
    45   128   120   am
    46    53    54    1
    47    26    25   ar
    48    27    30   ar
    49    27    25   ar
    50    25    24    1
    51   120   119    1
    52   120   121    2
    53   119   118    1
    54    59    58    2
    55    82    83    1
    56    82    81    1
    57    54    55    1
    58    54    57    1
    59    41    40    2
    60    61    55   am
    61    61    62    1
    62    58    57    1
    63    58    60   am
    64    83    84    1
    65    40    39    1
    66    55    56    2
    67   113   112    2
    68    62    63    1
    69   118   112   am
    70    81    78    1
    71   116   115   ar
    72   112   111    1
    73    63    64    2
    74    63    65   am
    75    78    77    1
    76    78    79    1
    77   117   115   ar
    78   115   114    1
    79    80    79    2
    80    65    66    1
    81    98    97    1
    82    98    99    1
    83    98   101    1
    84    39    38    1
    85    39    42    1
    86    99   100    2
    87    77    71   am
    88    72    71    2
    89    66    67    1
    90    68    67    2
    91    67    69   am
    92    71    70    1
    93   111   114    1
    94   111   110    1
    95    42    43    1
    96    69    70    1
    97    88    87    2
    98    87    86    1
    99   110   104   am
   100    70    73    1
   101   135   134    2
   102    85    86    1
   103    86    89    1
   104    43    44    1
   105   104   103    1
   106   104   105    2
   107    89    90    1
   108   106   103    1
   109   106   107    1
   110    73    74    1
   111    45    44   ar
   112   103   102    1
   113   134   133    1
   114    44    46   ar
   115   107   108    1
   116    36    37    2
   117    36    35    1
   118    76    74    1
   119    74    75    1
   120    90    92   ar
   121    90    91   ar
   122    92    94   ar
   123    34    35    1
   124   136   133    1
   125   133   132    1
   126   109   108    1
   127    91    93   ar
   128    94    95   ar
   129    93    95   ar
   130    95    96    1
