@<TRIPOS>MOLECULE
tmp/5mr0D01.pdb
 204 192 0 0 0
SMALL
GASTEIGER

@<TRIPOS>ATOM
      1  N         -0.7160  173.7530   20.7680 N.3    32  PHE32      -0.1241
      2  CA        -1.3650  173.9590   19.4710 C.3    32  PHE32       0.1605
      3  C         -2.5390  173.0160   19.2320 C.2    32  PHE32       0.2264
      4  O         -2.7300  172.0480   19.9650 O.2    32  PHE32      -0.2867
      5  CB        -0.3460  173.8850   18.3310 C.3    32  PHE32       0.0534
      6  CG         0.0340  172.4790   17.9070 C.ar   32  PHE32      -0.0203
      7  CD1        1.0780  171.7830   18.5590 C.ar   32  PHE32      -0.0042
      8  CD2       -0.6110  171.8600   16.8240 C.ar   32  PHE32      -0.0042
      9  CE1        1.4540  170.4920   18.1490 C.ar   32  PHE32      -0.0003
     10  CE2       -0.2190  170.5710   16.4060 C.ar   32  PHE32      -0.0003
     11  CZ         0.8070  169.8860   17.0820 C.ar   32  PHE32      -0.0000
     12  N         -5.1230  171.3520   15.7580 N.3    34  GLY34      -0.1225
     13  CA        -5.2850  171.1190   14.3260 C.3    34  GLY34       0.1811
     14  C         -6.7920  170.9930   14.1130 C.2    34  GLY34       0.2280
     15  O         -7.4320  170.1350   14.7300 O.2    34  GLY34      -0.2866
     16  N        -12.0120  171.1250   20.0250 N.3    48  HIS48      -0.1241
     17  CA       -10.6290  171.4850   19.8120 C.3    48  HIS48       0.1621
     18  C        -10.1610  172.5810   20.7380 C.2    48  HIS48       0.2264
     19  O         -9.0420  172.5190   21.2590 O.2    48  HIS48      -0.2867
     20  CB       -10.3550  171.8110   18.3410 C.3    48  HIS48       0.0745
     21  CG       -10.2320  170.5970   17.4760 C.ar   48  HIS48       0.0817
     22  ND1       -9.0810  169.8430   17.4110 N.ar   48  HIS48      -0.2268
     23  CD2      -11.1190  169.9850   16.6680 C.ar   48  HIS48       0.1154
     24  CE1       -9.2660  168.8210   16.5960 C.ar   48  HIS48       0.1986
     25  NE2      -10.4900  168.8800   16.1310 N.ar   48  HIS48      -0.2212
     26  N         -9.7190  171.2240   24.2270 N.3    51  ARG51      -0.1245
     27  CA        -8.4560  170.4870   24.2950 C.3    51  ARG51       0.1563
     28  C         -7.2500  171.4310   24.3260 C.2    51  ARG51       0.2260
     29  O         -6.3050  171.2000   25.0840 O.2    51  ARG51      -0.2867
     30  CB        -8.3450  169.4300   23.1840 C.3    51  ARG51       0.0307
     31  CG        -7.2050  168.4570   23.4570 C.3    51  ARG51       0.0489
     32  CD        -7.1600  167.3310   22.4680 C.3    51  ARG51       0.2205
     33  NE        -6.7500  167.7700   21.1280 N.pl3  51  ARG51      -0.0865
     34  CZ        -6.8530  167.0290   20.0250 C.cat  51  ARG51       0.5346
     35  NH1       -7.3030  165.7830   20.0850 N.pl3  51  ARG51       0.1354
     36  NH2       -6.4870  167.5320   18.8710 N.pl3  51  ARG51       0.1354
     37  N         -7.4920  174.1240    6.7470 N.3    87  TYR87      -0.1241
     38  CA        -6.8340  173.6040    7.9320 C.3    87  TYR87       0.1605
     39  C         -6.4610  174.7880    8.8080 C.2    87  TYR87       0.2264
     40  O         -5.8530  175.7440    8.3440 O.2    87  TYR87      -0.2867
     41  CB        -5.6060  172.7670    7.5790 C.3    87  TYR87       0.0534
     42  CG        -4.8770  172.2030    8.8090 C.ar   87  TYR87      -0.0201
     43  CD1       -5.3350  171.0430    9.4470 C.ar   87  TYR87      -0.0009
     44  CD2       -3.7250  172.8240    9.3230 C.ar   87  TYR87      -0.0009
     45  CE1       -4.6770  170.5260   10.5540 C.ar   87  TYR87       0.0417
     46  CE2       -3.0650  172.3160   10.4450 C.ar   87  TYR87       0.0417
     47  CZ        -3.5410  171.1720   11.0600 C.ar   87  TYR87       0.1957
     48  OH        -2.8710  170.6410   12.1610 O.3    87  TYR87      -0.2866
     49  N         -4.5770  176.0310   12.4230 N.3    89  ARG89      -0.1245
     50  CA        -3.5810  175.7710   13.4510 C.3    89  ARG89       0.1563
     51  C         -3.5020  176.9500   14.4470 C.2    89  ARG89       0.2260
     52  O         -2.7120  177.8810   14.2600 O.2    89  ARG89      -0.2867
     53  CB        -2.2360  175.4630   12.7620 C.3    89  ARG89       0.0307
     54  CG        -0.9570  175.4540   13.6170 C.3    89  ARG89       0.0489
     55  CD        -0.6380  174.1600   14.3170 C.3    89  ARG89       0.2205
     56  NE        -0.7450  172.9620   13.4860 N.pl3  89  ARG89      -0.0865
     57  CZ         0.2850  172.2550   12.9960 C.cat  89  ARG89       0.5346
     58  NH1        0.0450  171.1920   12.2330 N.pl3  89  ARG89       0.1354
     59  NH2        1.5430  172.5900   13.2640 N.pl3  89  ARG89       0.1354
     60  N          6.9450  155.8770   22.5030 N.3   139  ARG139     -0.1245
     61  CA         6.2540  157.1510   22.6650 C.3   139  ARG139      0.1563
     62  C          6.7300  157.8090   23.9820 C.2   139  ARG139      0.2260
     63  O          6.9730  157.1060   24.9800 O.2   139  ARG139     -0.2867
     64  CB         4.7300  156.9100   22.7230 C.3   139  ARG139      0.0307
     65  CG         3.8740  158.1680   22.5980 C.3   139  ARG139      0.0489
     66  CD         3.9390  158.7960   21.1980 C.3   139  ARG139      0.2205
     67  NE         3.0270  159.9450   21.0410 N.pl3 139  ARG139     -0.0865
     68  CZ         3.3700  161.2200   21.1890 C.cat 139  ARG139      0.5346
     69  NH1        4.6340  161.5630   21.4540 N.pl3 139  ARG139      0.1354
     70  NH2        2.4530  162.1640   21.0540 N.pl3 139  ARG139      0.1354
     71  N         -0.9750  168.3750   23.6060 N.3   150  LYS150     -0.1245
     72  CA        -0.6000  168.6620   22.2200 C.3   150  LYS150      0.1561
     73  C          0.2800  169.9330   22.2930 C.2   150  LYS150      0.2260
     74  O         -0.2160  171.0710   22.1950 O.2   150  LYS150     -0.2867
     75  CB        -1.8540  168.8780   21.3620 C.3   150  LYS150      0.0271
     76  CG        -1.6400  168.7200   19.8640 C.3   150  LYS150      0.0035
     77  CD        -2.9760  168.6280   19.1500 C.3   150  LYS150      0.0206
     78  CE        -2.8000  168.2340   17.7040 C.3   150  LYS150      0.1093
     79  NZ        -2.9980  166.7850   17.5700 N.3   150  LYS150     -0.1314
     80  N          7.3770  168.2340   19.5090 N.3   154  TYR154     -0.1241
     81  CA         7.0260  167.1050   18.6260 C.3   154  TYR154      0.1605
     82  C          8.2110  166.3270   18.0660 C.2   154  TYR154      0.2264
     83  O          8.0860  165.5630   17.0950 O.2   154  TYR154     -0.2867
     84  CB         6.0340  167.5190   17.5320 C.3   154  TYR154      0.0534
     85  CG         4.6000  167.1290   17.8680 C.ar  154  TYR154     -0.0201
     86  CD1        4.0040  167.5740   19.0710 C.ar  154  TYR154     -0.0009
     87  CD2        3.8490  166.3240   17.0290 C.ar  154  TYR154     -0.0009
     88  CE1        2.7080  167.2210   19.4060 C.ar  154  TYR154      0.0417
     89  CE2        2.5430  165.9610   17.3520 C.ar  154  TYR154      0.0417
     90  CZ         1.9700  166.4160   18.5350 C.ar  154  TYR154      0.1957
     91  OH         0.6930  166.0420   18.9310 O.3   154  TYR154     -0.2866
     92  N          7.7990  162.4760   17.7890 N.3   157  ASN157     -0.1240
     93  CA         6.9770  162.1430   16.6020 C.3   157  ASN157      0.1653
     94  C          7.8150  162.2430   15.3380 C.2   157  ASN157      0.2266
     95  O          7.7010  161.3940   14.4380 O.2   157  ASN157     -0.2867
     96  CB         5.7980  163.1220   16.5380 C.3   157  ASN157      0.1155
     97  CG         5.0420  163.1970   17.8400 C.2   157  ASN157      0.2627
     98  OD1        5.4860  163.8600   18.7940 O.2   157  ASN157     -0.2716
     99  ND2        3.9180  162.5170   17.8980 N.am  157  ASN157     -0.0877
    100  N          3.7190  155.5500    7.2960 N.3   171  GLU171     -0.1245
    101  CA         3.4190  155.9780    8.6660 C.3   171  GLU171      0.1567
    102  C          4.2500  155.1480    9.6590 C.2   171  GLU171      0.2260
    103  O          4.6560  154.0090    9.3630 O.2   171  GLU171     -0.2867
    104  CB         1.9060  155.8960    8.9560 C.3   171  GLU171      0.0388
    105  CG         1.4130  156.3590   10.3400 C.3   171  GLU171      0.1160
    106  CD         1.8990  157.7270   10.8890 C.2   171  GLU171      0.3649
    107  OE1        3.1240  158.0430   10.8900 O.co2 171  GLU171     -0.2457
    108  OE2        1.0440  158.4950   11.4180 O.co2 171  GLU171     -0.2457
    109  N          0.0900  154.7200   19.2530 N.3   183  GLU183     -0.1245
    110  CA        -0.5290  155.4740   18.1580 C.3   183  GLU183      0.1567
    111  C          0.4810  155.6170   17.0150 C.2   183  GLU183      0.2260
    112  O          1.6340  155.1700   17.1340 O.2   183  GLU183     -0.2867
    113  CB        -0.9910  156.8750   18.6370 C.3   183  GLU183      0.0388
    114  CG         0.1560  157.7870   19.1440 C.3   183  GLU183      0.1160
    115  CD        -0.3440  159.1630   19.6350 C.2   183  GLU183      0.3649
    116  OE1       -1.4400  159.5970   19.2070 O.co2 183  GLU183     -0.2457
    117  OE2        0.3310  159.8220   20.4720 O.co2 183  GLU183     -0.2457
    118  N          2.6200  158.3750   14.3580 N.3   185  SER185     -0.1202
    119  CA         3.3220  159.6460   14.6550 C.3   185  SER185      0.2020
    120  C          2.3890  160.8560   14.7290 C.2   185  SER185      0.2619
    121  O          2.6850  161.8090   15.4460 O.2   185  SER185     -0.2717
    122  CB         4.4770  159.9200   13.6700 C.3   185  SER185      0.2103
    123  OG         3.9690  160.1380   12.3810 O.3   185  SER185     -0.2182
    124  N          1.2660  160.8160   14.0160 N.am  186  GLY186     -0.1942
    125  CA         0.3180  161.9340   14.0950 C.3   186  GLY186      0.2014
    126  C         -1.1560  161.5560   14.0590 C.2   186  GLY186      0.2639
    127  O         -1.9660  162.3590   13.6230 O.2   186  GLY186     -0.2714
    128  N         -1.5240  160.3460   14.5070 N.am  187  ASP187     -0.1957
    129  CA        -2.8950  159.8330   14.4230 C.3   187  ASP187      0.1840
    130  C         -3.1170  158.6880   15.3890 C.2   187  ASP187      0.2622
    131  O         -2.1850  157.9510   15.6920 O.2   187  ASP187     -0.2715
    132  CB        -3.2270  159.3040   13.0040 C.3   187  ASP187      0.1450
    133  CG        -2.0240  159.1570   12.1370 C.2   187  ASP187      0.3671
    134  OD1       -1.2440  158.2190   12.3970 O.co2 187  ASP187     -0.2456
    135  OD2       -1.8620  159.9910   11.2170 O.co2 187  ASP187     -0.2456
    136  N         -4.3690  158.5070   15.8300 N.am  188  ASN188     -0.1972
    137  CA        -4.7520  157.3640   16.6630 C.3   188  ASN188      0.1688
    138  C         -4.8980  156.0940   15.8380 C.2   188  ASN188      0.2292
    139  O         -5.0440  156.1790   14.6300 O.2   188  ASN188     -0.2864
    140  CB        -6.0340  157.6760   17.4270 C.3   188  ASN188      0.1181
    141  CG        -5.8340  158.7490   18.4500 C.2   188  ASN188      0.2629
    142  OD1       -6.2550  159.8800   18.2570 O.2   188  ASN188     -0.2716
    143  ND2       -5.1400  158.4130   19.5470 N.am  188  ASN188     -0.0877
    144  N         -3.0410  160.3160   22.5160 N.3   206  LEU206     -0.1245
    145  CA        -3.7030  161.6240   22.5850 C.3   206  LEU206      0.1561
    146  C         -5.1990  161.3730   22.4510 C.2   206  LEU206      0.2260
    147  O         -5.5890  160.5180   21.6830 O.2   206  LEU206     -0.2867
    148  CB        -3.2040  162.5190   21.4500 C.3   206  LEU206      0.0270
    149  CG        -3.6770  163.9920   21.4230 C.3   206  LEU206      0.0019
    150  CD1       -2.4810  164.8590   21.7320 C.3   206  LEU206      0.0001
    151  CD2       -4.1980  164.3740   20.0480 C.3   206  LEU206      0.0001
    152  N         -7.8440  161.8950   20.7480 N.3   208  GLY208     -0.1210
    153  CA        -8.1350  162.3960   19.3980 C.3   208  GLY208      0.1956
    154  C         -9.6350  162.7650   19.2830 C.2   208  GLY208      0.2612
    155  O        -10.5470  162.0560   19.7840 O.2   208  GLY208     -0.2717
    156  N         -9.8700  163.8970   18.6370 N.am  209  ILE209     -0.1965
    157  CA       -11.2290  164.3400   18.3420 C.3   209  ILE209      0.1727
    158  C        -11.8260  163.5150   17.1840 C.2   209  ILE209      0.2617
    159  O        -12.9870  163.1370   17.2220 O.2   209  ILE209     -0.2715
    160  CB       -11.2770  165.8770   18.2350 C.3   209  ILE209      0.0290
    161  CG1      -11.2850  166.4510   19.6700 C.3   209  ILE209      0.0022
    162  CG2      -12.5250  166.3550   17.4880 C.3   209  ILE209      0.0023
    163  CD1      -10.4690  167.6880   19.8570 C.3   209  ILE209      0.0001
    164  N        -11.0030  163.1710   16.1980 N.am  210  THR210     -0.1937
    165  CA       -11.4240  162.2310   15.1390 C.3   210  THR210      0.2028
    166  C        -11.7380  160.8770   15.7480 C.2   210  THR210      0.2642
    167  O        -12.7810  160.3020   15.4560 O.2   210  THR210     -0.2714
    168  CB       -10.3890  162.0960   14.0110 C.3   210  THR210      0.1808
    169  OG1       -9.8410  163.3710   13.7150 O.3   210  THR210     -0.2208
    170  CG2      -10.9990  161.4990   12.7440 C.3   210  THR210      0.0379
    171  N        -10.8400  160.3870   16.6060 N.am  211  ARG211     -0.1977
    172  CA       -11.0140  159.1210   17.3390 C.3   211  ARG211      0.1597
    173  C        -12.3710  159.0800   18.0620 C.2   211  ARG211      0.2287
    174  O        -13.0890  158.0950   17.9410 O.2   211  ARG211     -0.2864
    175  CB        -9.8550  158.9330   18.3520 C.3   211  ARG211      0.0334
    176  CG        -9.9930  157.7680   19.3130 C.3   211  ARG211      0.0492
    177  CD        -8.9160  157.8980   20.4010 C.3   211  ARG211      0.2205
    178  NE        -8.8760  156.7200   21.2740 N.pl3 211  ARG211     -0.0865
    179  CZ        -9.6840  156.5210   22.3110 C.cat 211  ARG211      0.5346
    180  NH1      -10.5950  157.4310   22.6410 N.pl3 211  ARG211      0.1354
    181  NH2       -9.5690  155.4200   23.0430 N.pl3 211  ARG211      0.1354
    182  N         -6.5970  157.5150   12.5670 N.3   244  THR244     -0.1203
    183  CA        -7.5020  158.6540   12.5670 C.3   244  THR244      0.1994
    184  C         -6.8260  159.9330   13.0330 C.2   244  THR244      0.2618
    185  O         -6.0840  159.9290   14.0090 O.2   244  THR244     -0.2717
    186  CB        -8.7800  158.4160   13.4520 C.3   244  THR244      0.1784
    187  OG1       -8.4290  158.3640   14.8300 O.3   244  THR244     -0.2211
    188  CG2       -9.5430  157.1670   13.0640 C.3   244  THR244      0.0376
    189  N         -7.1480  161.0370   12.3680 N.am  245  GLY245     -0.1942
    190  CA        -6.6680  162.3640   12.7720 C.3   245  GLY245      0.2014
    191  C         -7.3370  163.4410   11.9470 C.2   245  GLY245      0.2640
    192  O         -8.0090  163.1330   10.9520 O.2   245  GLY245     -0.2714
    193  N         -7.1620  164.6980   12.3630 N.am  246  THR246     -0.1936
    194  CA        -7.8250  165.8270   11.6930 C.3   246  THR246      0.2028
    195  C         -7.4650  165.9300   10.2020 C.2   246  THR246      0.2642
    196  O         -8.3550  165.9920    9.3610 O.2   246  THR246     -0.2714
    197  CB        -7.6280  167.1200   12.4820 C.3   246  THR246      0.1808
    198  OG1       -8.2790  166.9970   13.7330 O.3   246  THR246     -0.2208
    199  CG2       -8.2060  168.3310   11.7660 C.3   246  THR246      0.0379
    200  N         -6.1730  165.9160    9.9010 N.am  247  ALA247     -0.1977
    201  CA        -5.6420  165.9890    8.5310 C.3   247  ALA247      0.1597
    202  C         -5.9220  164.7310    7.7430 C.2   247  ALA247      0.2287
    203  O         -6.3630  164.8050    6.6190 O.2   247  ALA247     -0.2864
    204  CB        -4.1480  166.2700    8.5420 C.3   247  ALA247      0.0319
@<TRIPOS>BOND
     1   203   202    2
     2    37    38    1
     3   100   101    1
     4    41    38    1
     5    41    42    1
     6   202   201    1
     7    38    39    1
     8    40    39    2
     9   201   204    1
    10   201   200    1
    11   101   104    1
    12   101   102    1
    13    42    44   ar
    14    42    43   ar
    15   104   105    1
    16    44    46   ar
    17   196   195    2
    18   103   102    2
    19    43    45   ar
    20   200   195   am
    21   195   194    1
    22   105   106    1
    23    46    47   ar
    24    45    47   ar
    25   106   107   ar
    26   106   108   ar
    27   192   191    2
    28    47    48    1
    29   135   133   ar
    30   194   193    1
    31   194   197    1
    32   199   197    1
    33   191   193   am
    34   191   190    1
    35   133   134   ar
    36   133   132    1
    37    58    57    1
    38   189   190    1
    39   189   184   am
    40   123   122    1
    41    49    50    1
    42   197   198    1
    43   182   183    1
    44   183   184    1
    45   183   186    1
    46   170   168    1
    47    53    50    1
    48    53    54    1
    49    57    59    1
    50    57    56    2
    51   132   129    1
    52   184   185    2
    53   188   186    1
    54    50    51    1
    55   186   187    1
    56    56    55    1
    57    54    55    1
    58   127   126    2
    59   122   119    1
    60   169   168    1
    61   168   165    1
    62   124   125    1
    63   124   120   am
    64   126   125    1
    65   126   128   am
    66    14    13    1
    67    14    15    2
    68    52    51    2
    69    13    12    1
    70   118   119    1
    71   129   128    1
    72   129   130    1
    73    95    94    2
    74   139   138    2
    75   119   120    1
    76   120   121    2
    77   165   166    1
    78   165   164    1
    79    94    93    1
    80   130   131    2
    81   130   136   am
    82   167   166    2
    83   166   171   am
    84   136   137    1
    85   138   137    1
    86    25    24   ar
    87    25    23   ar
    88   164   158   am
    89    10     8   ar
    90    10    11   ar
    91    96    93    1
    92    96    97    1
    93    24    22   ar
    94    93    92    1
    95   171   172    1
    96   137   140    1
    97    23    21   ar
    98     8     6   ar
    99   111   112    2
   100   111   110    1
   101    87    89   ar
   102    87    85   ar
   103    11     9   ar
   104    83    82    2
   105   158   159    2
   106   158   157    1
   107   172   173    1
   108   172   175    1
   109    89    90   ar
   110    22    21   ar
   111   140   141    1
   112    21    20    1
   113   162   160    1
   114    84    85    1
   115    84    81    1
   116    79    78    1
   117    78    77    1
   118    97    99   am
   119    97    98    2
   120    85    86   ar
   121     6     5    1
   122     6     7   ar
   123   174   173    2
   124    82    81    1
   125     9     7   ar
   126   110   113    1
   127   110   109    1
   128   160   157    1
   129   160   161    1
   130   142   141    2
   131     5     2    1
   132    20    17    1
   133   157   156    1
   134   175   176    1
   135   141   143   am
   136    90    91    1
   137    90    88   ar
   138    81    80    1
   139   113   114    1
   140   156   154   am
   141    36    34    1
   142    86    88   ar
   143   114   115    1
   144    77    76    1
   145   116   115   ar
   146     3     2    1
   147     3     4    2
   148   154   153    1
   149   154   155    2
   150   176   177    1
   151   153   152    1
   152     2     1    1
   153   115   117   ar
   154   161   163    1
   155    17    16    1
   156    17    18    1
   157    76    75    1
   158    34    35    1
   159    34    33    2
   160   151   149    1
   161   177   178    1
   162    18    19    2
   163    67    68    2
   164    67    66    1
   165    70    68    1
   166    33    32    1
   167    68    69    1
   168    66    65    1
   169   178   179    2
   170    75    72    1
   171   149   148    1
   172   149   150    1
   173   148   145    1
   174   147   146    2
   175    74    73    2
   176    72    73    1
   177    72    71    1
   178   179   180    1
   179   179   181    1
   180   146   145    1
   181    32    31    1
   182    60    61    1
   183   144   145    1
   184    65    64    1
   185    61    64    1
   186    61    62    1
   187    30    31    1
   188    30    27    1
   189    62    63    2
   190    26    27    1
   191    27    28    1
   192    28    29    2
