@<TRIPOS>MOLECULE
tmp/5mr4A00.pdb
 74 72 0 0 0
SMALL
GASTEIGER

@<TRIPOS>ATOM
      1  N         81.9690  -35.7080  -33.5260 N.3     3  PRO3       -0.2102
      2  CA        80.5960  -35.6790  -34.0260 C.3     3  PRO3        0.1504
      3  C         80.1160  -37.0680  -34.5220 C.2     3  PRO3        0.2576
      4  O         80.9260  -37.9480  -34.7830 O.2     3  PRO3       -0.2718
      5  CB        80.6670  -34.6750  -35.1910 C.3     3  PRO3        0.0282
      6  CG        82.0840  -34.6740  -35.6310 C.3     3  PRO3        0.0208
      7  CD        82.9170  -35.0580  -34.4540 C.3     3  PRO3        0.0893
      8  N         78.8050  -37.2190  -34.6650 N.am    4  CYS4       -0.1971
      9  CA        78.1890  -38.4370  -35.1730 C.3     4  CYS4        0.1712
     10  C         78.9420  -39.0140  -36.3640 C.2     4  CYS4        0.2296
     11  O         79.2630  -38.3130  -37.2960 O.2     4  CYS4       -0.2864
     12  CB        76.7400  -38.1480  -35.5560 C.3     4  CYS4        0.0983
     13  SG        75.8630  -39.5050  -36.3810 S.3     4  CYS4       -0.0798
     14  N         77.9990  -37.1840  -31.1420 N.3    34  ALA34      -0.1231
     15  CA        77.0260  -36.1430  -30.9220 C.3    34  ALA34       0.1694
     16  C         76.5490  -35.5670  -32.2440 C.2    34  ALA34       0.2592
     17  O         77.3280  -35.4310  -33.1820 O.2    34  ALA34      -0.2718
     18  CB        77.6500  -35.0590  -30.0670 C.3    34  ALA34       0.0304
     19  N         75.2500  -35.2930  -32.3020 N.am   35  CYS35      -0.1956
     20  CA        74.6100  -34.5660  -33.3620 C.3    35  CYS35       0.1843
     21  C         74.7350  -33.0880  -32.9780 C.2    35  CYS35       0.2625
     22  O         74.1290  -32.6510  -32.0150 O.2    35  CYS35      -0.2714
     23  CB        73.1400  -34.9940  -33.4490 C.3    35  CYS35       0.0997
     24  SG        72.9100  -36.6850  -34.0930 S.3    35  CYS35      -0.0797
     25  N         75.5440  -32.3480  -33.7220 N.am   36  GLU36      -0.1963
     26  CA        75.9680  -30.9970  -33.3760 C.3    36  GLU36       0.1733
     27  C         75.2960  -29.8450  -34.1400 C.2    36  GLU36       0.2616
     28  O         75.5200  -28.6970  -33.8160 O.2    36  GLU36      -0.2715
     29  CB        77.4840  -30.8990  -33.5910 C.3    36  GLU36       0.0429
     30  CG        78.2870  -31.7180  -32.5850 C.3    36  GLU36       0.1163
     31  CD        79.7950  -31.5610  -32.7540 C.2    36  GLU36       0.3649
     32  OE1       80.5120  -31.9460  -31.7940 O.co2  36  GLU36      -0.2457
     33  OE2       80.2540  -31.0770  -33.8400 O.co2  36  GLU36      -0.2457
     34  N         74.4820  -30.1290  -35.1360 N.am   37  ALA37      -0.1963
     35  CA        73.7950  -29.0780  -35.8710 C.3    37  ALA37       0.1728
     36  C         72.9070  -28.2410  -34.9740 C.2    37  ALA37       0.2616
     37  O         72.4600  -28.6780  -33.9470 O.2    37  ALA37      -0.2715
     38  CB        72.9620  -29.6290  -37.0180 C.3    37  ALA37       0.0334
     39  N         72.6540  -27.0230  -35.4210 N.am   38  ALA38      -0.1977
     40  CA        71.7330  -26.1440  -34.7620 C.3    38  ALA38       0.1597
     41  C         70.4010  -26.8380  -34.5300 C.2    38  ALA38       0.2287
     42  O         69.9220  -27.6190  -35.3700 O.2    38  ALA38      -0.2864
     43  CB        71.5380  -24.8810  -35.5880 C.3    38  ALA38       0.0319
     44  N         66.6580  -27.5940  -34.4220 N.3    40  ARG40      -0.1245
     45  CA        65.5960  -27.3380  -35.3690 C.3    40  ARG40       0.1563
     46  C         64.4490  -26.5970  -34.7140 C.2    40  ARG40       0.2260
     47  O         64.1750  -26.7320  -33.5220 O.2    40  ARG40      -0.2867
     48  CB        65.0320  -28.6530  -35.8800 C.3    40  ARG40       0.0307
     49  CG        65.8890  -29.4040  -36.8680 C.3    40  ARG40       0.0489
     50  CD        65.0960  -30.5990  -37.4000 C.3    40  ARG40       0.2205
     51  NE        65.6320  -31.0770  -38.6540 N.pl3  40  ARG40      -0.0865
     52  CZ        65.3660  -30.5440  -39.8430 C.cat  40  ARG40       0.5346
     53  NH1       64.5020  -29.5300  -39.9790 N.pl3  40  ARG40       0.1354
     54  NH2       65.9090  -31.0750  -40.9240 N.pl3  40  ARG40       0.1354
     55  N         67.6960  -34.8900  -32.4690 N.3    64  PRO64      -0.2116
     56  CA        68.1240  -35.8550  -33.4920 C.3    64  PRO64       0.1372
     57  C         68.8370  -37.0830  -32.9200 C.2    64  PRO64       0.2244
     58  O         69.2820  -37.0590  -31.7750 O.2    64  PRO64      -0.2868
     59  CB        69.0700  -35.0420  -34.3660 C.3    64  PRO64       0.0268
     60  CG        68.7600  -33.6170  -34.0890 C.3    64  PRO64       0.0207
     61  CD        68.3190  -33.5670  -32.6660 C.3    64  PRO64       0.0892
     62  N         72.5640  -38.0430  -38.7290 N.3    97  CYS97      -0.1221
     63  CA        71.7440  -37.5270  -37.6470 C.3    97  CYS97       0.1808
     64  C         70.3900  -37.2140  -38.2100 C.2    97  CYS97       0.2601
     65  O         70.2870  -36.4530  -39.1430 O.2    97  CYS97      -0.2717
     66  CB        72.3590  -36.2860  -37.0700 C.3    97  CYS97       0.0970
     67  SG        73.7800  -36.5540  -36.0090 S.3    97  CYS97      -0.0800
     68  N         69.3520  -37.7940  -37.6360 N.am   98  VAL98      -0.1979
     69  CA        67.9910  -37.6200  -38.1300 C.3    98  VAL98       0.1595
     70  C         67.1110  -37.2100  -36.9490 C.2    98  VAL98       0.2287
     71  O         66.3660  -36.2260  -36.9950 O.2    98  VAL98      -0.2864
     72  CB        67.4430  -38.9260  -38.7660 C.3    98  VAL98       0.0276
     73  CG1       66.1960  -38.6540  -39.5930 C.3    98  VAL98       0.0022
     74  CG2       68.4860  -39.5620  -39.6560 C.3    98  VAL98       0.0022
@<TRIPOS>BOND
     1    54    52    1
     2    53    52    1
     3    52    51    2
     4    74    72    1
     5    73    72    1
     6    65    64    2
     7    72    69    1
     8    62    63    1
     9    51    50    1
    10    64    63    1
    11    64    68   am
    12    69    68    1
    13    69    70    1
    14    63    66    1
    15    50    49    1
    16    11    10    2
    17    66    67    1
    18    38    35    1
    19    71    70    2
    20    49    48    1
    21    13    12    1
    22    10     9    1
    23    67    24    1
    24    48    45    1
    25    35    34    1
    26    35    36    1
    27     6     5    1
    28     6     7    1
    29    43    40    1
    30    12     9    1
    31    39    36   am
    32    39    40    1
    33    42    41    2
    34    45    46    1
    35    45    44    1
    36     5     2    1
    37     9     8    1
    38    34    27   am
    39    36    37    2
    40     4     3    2
    41    40    41    1
    42    46    47    2
    43     8     3   am
    44     3     2    1
    45     7     1    1
    46    59    60    1
    47    59    56    1
    48    27    28    2
    49    27    26    1
    50    24    23    1
    51    60    61    1
    52     2     1    1
    53    33    31   ar
    54    25    26    1
    55    25    21   am
    56    29    26    1
    57    29    30    1
    58    56    57    1
    59    56    55    1
    60    23    20    1
    61    20    21    1
    62    20    19    1
    63    17    16    2
    64    21    22    2
    65    57    58    2
    66    31    30    1
    67    31    32   ar
    68    61    55    1
    69    19    16   am
    70    16    15    1
    71    14    15    1
    72    15    18    1
