@<TRIPOS>MOLECULE
tmp/5mraB00.pdb
 88 85 0 0 0
SMALL
GASTEIGER

@<TRIPOS>ATOM
      1  N         -9.8820  -34.0610   12.5510 N.3   103  PHE103     -0.1227
      2  CA       -11.0730  -33.2280   12.7960 C.3   103  PHE103      0.1736
      3  C        -11.3630  -32.2590   11.6390 C.2   103  PHE103      0.2595
      4  O        -11.8720  -31.1570   11.8480 O.2   103  PHE103     -0.2718
      5  CB       -10.9660  -32.5010   14.1490 C.3   103  PHE103      0.0547
      6  CG       -10.5630  -33.4010   15.2920 C.ar  103  PHE103     -0.0202
      7  CD1      -11.4820  -34.2810   15.8690 C.ar  103  PHE103     -0.0042
      8  CD2       -9.2560  -33.3880   15.7800 C.ar  103  PHE103     -0.0042
      9  CE1      -11.1060  -35.1160   16.9170 C.ar  103  PHE103     -0.0003
     10  CE2       -8.8750  -34.2210   16.8270 C.ar  103  PHE103     -0.0003
     11  CZ        -9.8020  -35.0840   17.3980 C.ar  103  PHE103     -0.0000
     12  N        -11.0940  -32.7250   10.4160 N.am  104  ARG104     -0.1980
     13  CA       -10.7110  -31.8690    9.2800 C.3   104  ARG104      0.1597
     14  C        -11.9240  -31.2350    8.5570 C.2   104  ARG104      0.2287
     15  O        -13.0600  -31.3130    9.0490 O.2   104  ARG104     -0.2864
     16  CB        -9.8480  -32.6800    8.2980 C.3   104  ARG104      0.0334
     17  CG       -10.4020  -34.0590    7.9800 C.3   104  ARG104      0.0492
     18  CD       -11.3160  -34.1140    6.7560 C.3   104  ARG104      0.2205
     19  NE       -11.9620  -35.4270    6.6660 N.pl3 104  ARG104     -0.0865
     20  CZ       -13.1150  -35.7460    7.2600 C.cat 104  ARG104      0.5346
     21  NH1      -13.7650  -34.8380    7.9870 N.pl3 104  ARG104      0.1354
     22  NH2      -13.6170  -36.9770    7.1500 N.pl3 104  ARG104      0.1354
     23  N        -12.3770  -25.3710   17.9290 N.3   139  THR139     -0.1218
     24  CA       -13.0330  -26.6650   18.0970 C.3   139  THR139      0.1862
     25  C        -13.5420  -26.7220   19.5530 C.2   139  THR139      0.2287
     26  O        -14.7510  -26.7790   19.7740 O.2   139  THR139     -0.2866
     27  CB       -12.1610  -27.9150   17.7220 C.3   139  THR139      0.1770
     28  OG1      -11.4830  -28.4340   18.8780 O.3   139  THR139     -0.2211
     29  CG2      -11.1230  -27.6530   16.6200 C.3   139  THR139      0.0375
     30  N        -16.4860  -24.5350   20.2070 N.3   142  PHE142     -0.1227
     31  CA       -17.6320  -25.1110   19.4800 C.3   142  PHE142      0.1736
     32  C        -18.2000  -26.3430   20.2010 C.2   142  PHE142      0.2595
     33  O        -19.4210  -26.4470   20.3750 O.2   142  PHE142     -0.2718
     34  CB       -17.2060  -25.4580   18.0430 C.3   142  PHE142      0.0547
     35  CG       -18.3300  -25.8920   17.1380 C.ar  142  PHE142     -0.0202
     36  CD1      -19.0830  -24.9540   16.4360 C.ar  142  PHE142     -0.0042
     37  CD2      -18.6040  -27.2450   16.9440 C.ar  142  PHE142     -0.0042
     38  CE1      -20.1010  -25.3560   15.5800 C.ar  142  PHE142     -0.0003
     39  CE2      -19.6180  -27.6490   16.0920 C.ar  142  PHE142     -0.0003
     40  CZ       -20.3650  -26.7050   15.4050 C.ar  142  PHE142     -0.0000
     41  N        -17.2980  -27.2390   20.6300 N.am  143  ARG143     -0.1980
     42  CA       -17.6180  -28.3820   21.5110 C.3   143  ARG143      0.1597
     43  C        -18.5920  -27.9840   22.6100 C.2   143  ARG143      0.2287
     44  O        -19.6820  -28.5410   22.7130 O.2   143  ARG143     -0.2864
     45  CB       -16.3510  -28.9650   22.1810 C.3   143  ARG143      0.0334
     46  CG       -15.3570  -29.6560   21.2520 C.3   143  ARG143      0.0492
     47  CD       -14.7480  -30.9390   21.8270 C.3   143  ARG143      0.2205
     48  NE       -14.1160  -31.7870   20.8020 N.pl3 143  ARG143     -0.0865
     49  CZ       -12.8420  -31.7300   20.3870 C.cat 143  ARG143      0.5346
     50  NH1      -11.9660  -30.8690   20.9030 N.pl3 143  ARG143      0.1354
     51  NH2      -12.4290  -32.5670   19.4330 N.pl3 143  ARG143      0.1354
     52  N        -21.9080  -26.7760   21.6170 N.3   146  ASP146     -0.1239
     53  CA       -22.5860  -27.9740   21.1130 C.3   146  ASP146      0.1674
     54  C        -22.8080  -29.0310   22.2140 C.2   146  ASP146      0.2266
     55  O        -22.2060  -30.1110   22.1890 O.2   146  ASP146     -0.2867
     56  CB       -21.7760  -28.5590   19.9450 C.3   146  ASP146      0.1410
     57  CG       -22.5530  -29.5740   19.1300 C.2   146  ASP146      0.3668
     58  OD1      -23.8080  -29.5530   19.1340 O.co2 146  ASP146     -0.2456
     59  OD2      -21.8920  -30.4090   18.4740 O.co2 146  ASP146     -0.2456
     60  N        -24.2750  -32.4350   20.8290 N.3   149  GLN149     -0.1231
     61  CA       -23.3670  -33.4250   20.2060 C.3   149  GLN149      0.1698
     62  C        -23.6900  -33.6650   18.7180 C.2   149  GLN149      0.2592
     63  O        -23.5740  -34.7870   18.2190 O.2   149  GLN149     -0.2718
     64  CB       -23.3420  -34.7560   20.9890 C.3   149  GLN149      0.0381
     65  CG       -23.1230  -34.6150   22.4940 C.3   149  GLN149      0.0905
     66  CD       -23.6620  -35.7960   23.2870 C.2   149  GLN149      0.2608
     67  OE1      -24.5260  -35.6350   24.1520 O.2   149  GLN149     -0.2717
     68  NE2      -23.1540  -36.9890   22.9950 N.am  149  GLN149     -0.0878
     69  N        -24.0710  -32.5870   18.0270 N.am  150  GLN150     -0.1966
     70  CA       -24.6210  -32.6270   16.6630 C.3   150  GLN150      0.1733
     71  C        -23.5800  -32.3190   15.5790 C.2   150  GLN150      0.2617
     72  O        -23.5400  -33.0020   14.5580 O.2   150  GLN150     -0.2715
     73  CB       -25.7700  -31.6180   16.5190 C.3   150  GLN150      0.0408
     74  CG       -26.8550  -31.7090   17.5790 C.3   150  GLN150      0.0908
     75  CD       -27.8680  -32.8100   17.3140 C.2   150  GLN150      0.2608
     76  OE1      -27.5190  -33.9920   17.2890 O.2   150  GLN150     -0.2717
     77  NE2      -29.1330  -32.4320   17.1300 N.am  150  GLN150     -0.0878
     78  N        -22.7600  -31.2900   15.7990 N.am  151  GLY151     -0.1940
     79  CA       -22.0070  -30.6150   14.7310 C.3   151  GLY151      0.2014
     80  C        -22.7560  -29.4930   14.0460 C.2   151  GLY151      0.2638
     81  O        -22.5520  -29.2540   12.8530 O.2   151  GLY151     -0.2714
     82  N        -23.6130  -28.8110   14.8090 N.am  152  VAL152     -0.1977
     83  CA       -24.3480  -27.6280   14.3510 C.3   152  VAL152      0.1596
     84  C        -24.8130  -26.8420   15.5750 C.2   152  VAL152      0.2287
     85  O        -25.5280  -27.3950   16.4170 O.2   152  VAL152     -0.2864
     86  CB       -25.5980  -27.9850   13.5000 C.3   152  VAL152      0.0276
     87  CG1      -25.2920  -27.9430   12.0060 C.3   152  VAL152      0.0022
     88  CG2      -26.1820  -29.3380   13.9000 C.3   152  VAL152      0.0022
@<TRIPOS>BOND
     1    19    18    1
     2    19    20    2
     3    18    17    1
     4    22    20    1
     5    20    21    1
     6    17    16    1
     7    16    13    1
     8    14    15    2
     9    14    13    1
    10    13    12    1
    11    12     3   am
    12     3     4    2
    13     3     2    1
    14    87    86    1
    15     1     2    1
    16     2     5    1
    17    81    80    2
    18    86    88    1
    19    86    83    1
    20    80    79    1
    21    80    82   am
    22     5     6    1
    23    83    82    1
    24    83    84    1
    25    72    71    2
    26    79    78    1
    27     6     8   ar
    28     6     7   ar
    29    40    38   ar
    30    40    39   ar
    31    84    85    2
    32    71    78   am
    33    71    70    1
    34    38    36   ar
    35     8    10   ar
    36     7     9   ar
    37    39    37   ar
    38    36    35   ar
    39    73    70    1
    40    73    74    1
    41    29    27    1
    42    70    69    1
    43    10    11   ar
    44     9    11   ar
    45    37    35   ar
    46    77    75   am
    47    35    34    1
    48    76    75    2
    49    75    74    1
    50    27    24    1
    51    27    28    1
    52    23    24    1
    53    69    62   am
    54    34    31    1
    55    24    25    1
    56    63    62    2
    57    59    57   ar
    58    62    61    1
    59    57    58   ar
    60    57    56    1
    61    51    49    1
    62    31    32    1
    63    31    30    1
    64    25    26    2
    65    56    53    1
    66    32    33    2
    67    32    41   am
    68    61    60    1
    69    61    64    1
    70    49    48    2
    71    49    50    1
    72    41    42    1
    73    48    47    1
    74    64    65    1
    75    53    52    1
    76    53    54    1
    77    46    47    1
    78    46    45    1
    79    42    45    1
    80    42    43    1
    81    55    54    2
    82    65    66    1
    83    43    44    2
    84    68    66   am
    85    66    67    2
