@<TRIPOS>MOLECULE
tmp/5mrdA00.pdb
 122 118 0 0 0
SMALL
GASTEIGER

@<TRIPOS>ATOM
      1  N        -15.5630   35.6280  -17.9130 N.3    40  LYS40      -0.1245
      2  CA       -15.9050   36.9570  -17.4160 C.3    40  LYS40       0.1561
      3  C        -17.1890   37.4910  -18.0440 C.2    40  LYS40       0.2260
      4  O        -18.0030   38.1150  -17.3590 O.2    40  LYS40      -0.2867
      5  CB       -14.7360   37.9060  -17.6610 C.3    40  LYS40       0.0271
      6  CG       -13.5180   37.6230  -16.7970 C.3    40  LYS40       0.0035
      7  CD       -12.3380   38.4290  -17.2810 C.3    40  LYS40       0.0206
      8  CE       -11.3040   38.5900  -16.1950 C.3    40  LYS40       0.1093
      9  NZ       -10.1180   39.3050  -16.7070 N.3    40  LYS40      -0.1314
     10  N        -20.4180   35.9360  -16.1920 N.3    43  VAL43      -0.1231
     11  CA       -20.6000   36.4240  -14.8260 C.3    43  VAL43       0.1692
     12  C        -20.9500   37.9020  -14.8230 C.2    43  VAL43       0.2592
     13  O        -21.6900   38.3700  -13.9520 O.2    43  VAL43      -0.2718
     14  CB       -19.3710   36.1310  -13.9470 C.3    43  VAL43       0.0266
     15  CG1      -19.2060   34.6760  -13.7990 C.3    43  VAL43       0.0020
     16  CG2      -18.1300   36.7550  -14.5370 C.3    43  VAL43       0.0020
     17  N        -20.3980   38.6650  -15.7680 N.am   44  ASN44      -0.1974
     18  CA       -20.7780   40.0630  -15.9110 C.3    44  ASN44       0.1688
     19  C        -22.2120   40.1800  -16.3950 C.2    44  ASN44       0.2292
     20  O        -23.0120   40.9140  -15.8090 O.2    44  ASN44      -0.2864
     21  CB       -19.8210   40.7710  -16.8700 C.3    44  ASN44       0.1181
     22  CG       -18.5030   41.1370  -16.2080 C.2    44  ASN44       0.2629
     23  OD1      -18.4700   41.5200  -15.0380 O.2    44  ASN44      -0.2716
     24  ND2      -17.4080   41.0290  -16.9590 N.am   44  ASN44      -0.0877
     25  N        -20.6880   38.4580  -10.2640 N.3    49  ILE49      -0.1245
     26  CA       -19.3340   38.7300   -9.7860 C.3    49  ILE49       0.1561
     27  C        -19.2510   38.4940   -8.2830 C.2    49  ILE49       0.2260
     28  O        -18.2670   37.9020   -7.8070 O.2    49  ILE49      -0.2867
     29  CB       -18.8750   40.1460  -10.1770 C.3    49  ILE49       0.0252
     30  CG1      -18.6470   40.1840  -11.7020 C.3    49  ILE49       0.0019
     31  CG2      -17.6450   40.5590   -9.4050 C.3    49  ILE49       0.0019
     32  CD1      -18.4560   41.5690  -12.2570 C.3    49  ILE49       0.0001
     33  N        -18.4610   34.8920   -7.3330 N.3    52  VAL52      -0.1231
     34  CA       -17.0710   34.5400   -7.6050 C.3    52  VAL52       0.1692
     35  C        -16.1550   35.1350   -6.5520 C.2    52  VAL52       0.2591
     36  O        -15.2490   34.4690   -6.0520 O.2    52  VAL52      -0.2718
     37  CB       -16.6640   35.0020   -9.0120 C.3    52  VAL52       0.0266
     38  CG1      -15.1880   34.7040   -9.2520 C.3    52  VAL52       0.0020
     39  CG2      -17.5410   34.3250  -10.0660 C.3    52  VAL52       0.0020
     40  N        -16.3390   36.4140   -6.2370 N.am   53  GLN53      -0.1979
     41  CA       -15.5190   37.0330   -5.2050 C.3    53  GLN53       0.1601
     42  C        -15.6750   36.3250   -3.8700 C.2    53  GLN53       0.2287
     43  O        -14.6980   36.1590   -3.1350 O.2    53  GLN53      -0.2864
     44  CB       -15.8760   38.5170   -5.0720 C.3    53  GLN53       0.0394
     45  CG       -15.6770   39.3210   -6.3330 C.3    53  GLN53       0.0908
     46  CD       -16.1080   40.7690   -6.1700 C.2    53  GLN53       0.2608
     47  OE1      -17.2550   41.0630   -5.7870 O.2    53  GLN53      -0.2717
     48  NE2      -15.1850   41.6840   -6.4360 N.am   53  GLN53      -0.0878
     49  N        -13.7280   33.0350   -3.7130 N.3    56  LYS56      -0.1231
     50  CA       -12.2950   33.2700   -3.5840 C.3    56  LYS56       0.1693
     51  C        -11.9410   33.6920   -2.1730 C.2    56  LYS56       0.2592
     52  O        -10.9860   33.1720   -1.5780 O.2    56  LYS56      -0.2718
     53  CB       -11.8390   34.3240   -4.5930 C.3    56  LYS56       0.0285
     54  CG       -10.3330   34.6230   -4.5010 C.3    56  LYS56       0.0035
     55  CD        -9.9310   35.6440   -5.5530 C.3    56  LYS56       0.0206
     56  CE        -8.4990   36.1070   -5.3290 C.3    56  LYS56       0.1093
     57  NZ        -8.3330   36.9310   -4.1030 N.3    56  LYS56      -0.1314
     58  N        -12.6600   34.6820   -1.6420 N.am   57  ASP57      -0.1974
     59  CA       -12.3200   35.1900   -0.3220 C.3    57  ASP57       0.1709
     60  C        -12.4690   34.1140    0.7460 C.2    57  ASP57       0.2293
     61  O        -11.6010   33.9550    1.6130 O.2    57  ASP57      -0.2864
     62  CB       -13.1770   36.3950    0.0270 C.3    57  ASP57       0.1436
     63  CG       -12.7700   37.0070    1.3660 C.2    57  ASP57       0.3671
     64  OD1      -11.7440   37.7100    1.3970 O.co2  57  ASP57      -0.2456
     65  OD2      -13.4330   36.7390    2.3900 O.co2  57  ASP57      -0.2456
     66  N         -4.5930   31.6710   -8.2310 N.3    73  CYS73      -0.1221
     67  CA        -5.5860   32.3430   -9.0650 C.3    73  CYS73       0.1808
     68  C         -4.8480   33.1300  -10.1310 C.2    73  CYS73       0.2601
     69  O         -3.8040   33.7150   -9.8380 O.2    73  CYS73      -0.2717
     70  CB        -6.3880   33.4000   -8.2940 C.3    73  CYS73       0.0970
     71  SG        -7.1840   32.8770   -6.8190 S.3    73  CYS73      -0.0800
     72  N         -5.4070   33.1910  -11.3300 N.am   74  PHE74      -0.1962
     73  CA        -4.8750   34.0580  -12.3690 C.3    74  PHE74       0.1771
     74  C         -6.0070   34.3680  -13.3360 C.2    74  PHE74       0.2619
     75  O         -7.1050   33.8280  -13.2330 O.2    74  PHE74      -0.2715
     76  CB        -3.6170   33.4760  -13.0370 C.3    74  PHE74       0.0574
     77  CG        -3.8110   32.1250  -13.6810 C.ar   74  PHE74      -0.0200
     78  CD1       -4.2560   32.0090  -14.9870 C.ar   74  PHE74      -0.0042
     79  CD2       -3.5170   30.9710  -12.9800 C.ar   74  PHE74      -0.0042
     80  CE1       -4.4010   30.7810  -15.5700 C.ar   74  PHE74      -0.0003
     81  CE2       -3.6670   29.7220  -13.5590 C.ar   74  PHE74      -0.0003
     82  CZ        -4.1240   29.6310  -14.8520 C.ar   74  PHE74      -0.0000
     83  N         -5.7520   35.2900  -14.2510 N.am   75  GLN75      -0.1977
     84  CA        -6.7970   35.6330  -15.1870 C.3    75  GLN75       0.1601
     85  C         -6.1690   35.9710  -16.5260 C.2    75  GLN75       0.2287
     86  O         -4.9560   36.2020  -16.6360 O.2    75  GLN75      -0.2864
     87  CB        -7.6140   36.8080  -14.6620 C.3    75  GLN75       0.0394
     88  CG        -6.8330   38.1160  -14.6370 C.3    75  GLN75       0.0908
     89  CD        -7.6540   39.2630  -14.1040 C.2    75  GLN75       0.2608
     90  OE1       -8.7130   39.5860  -14.6450 O.2    75  GLN75      -0.2717
     91  NE2       -7.1690   39.8900  -13.0330 N.am   75  GLN75      -0.0878
     92  N        -11.3040   33.9740  -15.6260 N.3    80  LEU80      -0.1231
     93  CA       -10.6730   33.7970  -14.3270 C.3    80  LEU80       0.1693
     94  C        -10.3920   32.3110  -14.1210 C.2    80  LEU80       0.2592
     95  O        -11.2100   31.4560  -14.4910 O.2    80  LEU80      -0.2718
     96  CB       -11.6060   34.2760  -13.2150 C.3    80  LEU80       0.0284
     97  CG       -12.1400   35.6900  -13.3850 C.3    80  LEU80       0.0019
     98  CD1      -13.2420   35.9170  -12.3740 C.3    80  LEU80       0.0001
     99  CD2      -11.0190   36.7140  -13.2390 C.3    80  LEU80       0.0001
    100  N         -9.2400   32.0070  -13.5150 N.am   81  TYR81      -0.1962
    101  CA        -8.8170   30.6300  -13.2810 C.3    81  TYR81       0.1771
    102  C         -8.4910   30.4590  -11.8070 C.2    81  TYR81       0.2619
    103  O         -7.7660   31.2730  -11.2320 O.2    81  TYR81      -0.2715
    104  CB        -7.5580   30.2870  -14.0760 C.3    81  TYR81       0.0574
    105  CG        -7.6520   30.4630  -15.5610 C.ar   81  TYR81      -0.0198
    106  CD1       -7.5300   31.7240  -16.1290 C.ar   81  TYR81      -0.0009
    107  CD2       -7.7820   29.3760  -16.3990 C.ar   81  TYR81      -0.0009
    108  CE1       -7.5820   31.9020  -17.4910 C.ar   81  TYR81       0.0417
    109  CE2       -7.8320   29.5320  -17.7630 C.ar   81  TYR81       0.0417
    110  CZ        -7.7310   30.7980  -18.3120 C.ar   81  TYR81       0.1957
    111  OH        -7.7690   30.9520  -19.6760 O.3    81  TYR81      -0.2866
    112  N         -9.0310   29.4160  -11.1990 N.am   82  PHE82      -0.1974
    113  CA        -8.7840   29.0970   -9.7910 C.3    82  PHE82       0.1639
    114  C         -8.2430   27.6880   -9.6790 C.2    82  PHE82       0.2290
    115  O         -8.9120   26.7370  -10.0950 O.2    82  PHE82      -0.2864
    116  CB       -10.0890   29.2120   -9.0220 C.3    82  PHE82       0.0560
    117  CG       -10.7070   30.5830   -9.1270 C.ar   82  PHE82      -0.0200
    118  CD1      -10.3600   31.5750   -8.2310 C.ar   82  PHE82      -0.0042
    119  CD2      -11.5990   30.8900  -10.1510 C.ar   82  PHE82      -0.0042
    120  CE1      -10.9040   32.8310   -8.3390 C.ar   82  PHE82      -0.0003
    121  CE2      -12.1390   32.1340  -10.2650 C.ar   82  PHE82      -0.0003
    122  CZ       -11.8100   33.1100   -9.3650 C.ar   82  PHE82      -0.0000
@<TRIPOS>BOND
     1   111   110    1
     2   110   109   ar
     3   110   108   ar
     4     3     2    1
     5     3     4    2
     6     1     2    1
     7   109   107   ar
     8     5     2    1
     9     5     6    1
    10   108   106   ar
    11     7     6    1
    12     7     8    1
    13    24    22   am
    14    21    22    1
    15    21    18    1
    16     9     8    1
    17    86    85    2
    18    85    84    1
    19   107   105   ar
    20    19    18    1
    21    19    20    2
    22    22    23    2
    23    10    11    1
    24   106   105   ar
    25    18    17    1
    26    17    12   am
    27    92    93    1
    28    80    78   ar
    29    80    82   ar
    30   105   104    1
    31    84    87    1
    32    84    83    1
    33    78    77   ar
    34    82    81   ar
    35    11    12    1
    36    11    14    1
    37    12    13    2
    38    87    88    1
    39    90    89    2
    40    88    89    1
    41    16    14    1
    42    95    94    2
    43    93    94    1
    44    93    96    1
    45    83    74   am
    46    94   100   am
    47    89    91   am
    48   104   101    1
    49    14    15    1
    50    77    76    1
    51    77    79   ar
    52    81    79   ar
    53   100   101    1
    54    97    99    1
    55    97    96    1
    56    97    98    1
    57    74    75    2
    58    74    73    1
    59   101   102    1
    60    76    73    1
    61    73    72    1
    62    32    30    1
    63   102   103    2
    64   102   112   am
    65    30    29    1
    66    72    68   am
    67   112   113    1
    68   121   119   ar
    69   121   122   ar
    70    25    26    1
    71    29    26    1
    72    29    31    1
    73   119   117   ar
    74    68    69    2
    75    68    67    1
    76   115   114    2
    77    39    37    1
    78   113   114    1
    79   113   116    1
    80    26    27    1
    81   122   120   ar
    82    38    37    1
    83   117   116    1
    84   117   118   ar
    85    67    70    1
    86    67    66    1
    87    37    34    1
    88   120   118   ar
    89    70    71    1
    90    27    28    2
    91    34    33    1
    92    34    35    1
    93    35    40   am
    94    35    36    2
    95    48    46   am
    96    45    46    1
    97    45    44    1
    98    40    41    1
    99    46    47    2
   100    55    56    1
   101    55    54    1
   102    56    57    1
   103    41    44    1
   104    41    42    1
   105    53    54    1
   106    53    50    1
   107    42    43    2
   108    49    50    1
   109    50    51    1
   110    51    58   am
   111    51    52    2
   112    58    59    1
   113    59    62    1
   114    59    60    1
   115    62    63    1
   116    60    61    2
   117    63    64   ar
   118    63    65   ar
