@<TRIPOS>MOLECULE
tmp/5mrhA03.pdb
 126 124 0 0 0
SMALL
GASTEIGER

@<TRIPOS>ATOM
      1  N        -33.9830   47.7990   13.5140 N.3   207  TYR207     -0.1227
      2  CA       -34.7140   46.8400   14.3300 C.3   207  TYR207      0.1736
      3  C        -33.7900   46.1810   15.3520 C.2   207  TYR207      0.2596
      4  O        -34.0870   46.1710   16.5490 O.2   207  TYR207     -0.2718
      5  CB       -35.3720   45.7930   13.4230 C.3   207  TYR207      0.0548
      6  CG       -36.1820   44.7290   14.1290 C.ar  207  TYR207     -0.0200
      7  CD1      -35.5870   43.5530   14.5710 C.ar  207  TYR207     -0.0009
      8  CD2      -37.5510   44.8830   14.3190 C.ar  207  TYR207     -0.0009
      9  CE1      -36.3280   42.5690   15.1980 C.ar  207  TYR207      0.0417
     10  CE2      -38.3000   43.9050   14.9470 C.ar  207  TYR207      0.0417
     11  CZ       -37.6830   42.7500   15.3850 C.ar  207  TYR207      0.1957
     12  OH       -38.4200   41.7720   16.0120 O.3   207  TYR207     -0.2866
     13  N        -32.6550   45.6560   14.8980 N.am  208  SER208     -0.1938
     14  CA       -31.6260   45.0910   15.7640 C.3   208  SER208      0.2055
     15  C        -30.3560   44.9310   14.9420 C.2   208  SER208      0.2643
     16  O        -30.3400   45.1700   13.7310 O.2   208  SER208     -0.2714
     17  CB       -32.0360   43.7500   16.3720 C.3   208  SER208      0.2130
     18  OG       -31.1580   43.4050   17.4350 O.3   208  SER208     -0.2179
     19  N        -29.2830   44.5400   15.6230 N.am  209  PHE209     -0.1959
     20  CA       -28.0080   44.3320   14.9620 C.3   209  PHE209      0.1771
     21  C        -27.2930   43.1440   15.5860 C.2   209  PHE209      0.2620
     22  O        -27.6380   42.6830   16.6760 O.2   209  PHE209     -0.2715
     23  CB       -27.1450   45.5950   15.0290 C.3   209  PHE209      0.0574
     24  CG       -26.4710   45.7970   16.3450 C.ar  209  PHE209     -0.0200
     25  CD1      -27.1630   46.3350   17.4150 C.ar  209  PHE209     -0.0042
     26  CD2      -25.1380   45.4670   16.5090 C.ar  209  PHE209     -0.0042
     27  CE1      -26.5400   46.5280   18.6330 C.ar  209  PHE209     -0.0003
     28  CE2      -24.5090   45.6560   17.7210 C.ar  209  PHE209     -0.0003
     29  CZ       -25.2090   46.1860   18.7850 C.ar  209  PHE209     -0.0000
     30  N        -26.3020   42.6370   14.8560 N.am  210  GLY210     -0.1954
     31  CA       -25.5160   41.5050   15.3090 C.3   210  GLY210      0.1869
     32  C        -24.1200   41.5520   14.7250 C.2   210  GLY210      0.2309
     33  O        -23.8580   42.2430   13.7330 O.2   210  GLY210     -0.2863
     34  N        -23.9190   43.0680   11.0760 N.3   217  PHE217     -0.1227
     35  CA       -25.2340   42.9940   10.4580 C.3   217  PHE217      0.1736
     36  C        -26.2150   43.9250   11.1560 C.2   217  PHE217      0.2595
     37  O        -26.1730   44.0890   12.3800 O.2   217  PHE217     -0.2718
     38  CB       -25.7880   41.5660   10.5050 C.3   217  PHE217      0.0547
     39  CG       -24.9580   40.5570    9.7620 C.ar  217  PHE217     -0.0202
     40  CD1      -25.1740   40.3120    8.4160 C.ar  217  PHE217     -0.0042
     41  CD2      -24.0060   39.8000   10.4300 C.ar  217  PHE217     -0.0042
     42  CE1      -24.4190   39.3700    7.7380 C.ar  217  PHE217     -0.0003
     43  CE2      -23.2590   38.8470    9.7620 C.ar  217  PHE217     -0.0003
     44  CZ       -23.4620   38.6350    8.4120 C.ar  217  PHE217     -0.0000
     45  N        -27.1030   44.5260   10.3680 N.am  218  ALA218     -0.1966
     46  CA       -28.1700   45.3670   10.8860 C.3   218  ALA218      0.1728
     47  C        -29.4460   45.0540   10.1220 C.2   218  ALA218      0.2616
     48  O        -29.4230   44.9150    8.8950 O.2   218  ALA218     -0.2715
     49  CB       -27.8370   46.8600   10.7590 C.3   218  ALA218      0.0334
     50  N        -30.5590   44.9730   10.8440 N.am  219  SER219     -0.1950
     51  CA       -31.8620   44.7540   10.2310 C.3   219  SER219      0.1924
     52  C        -32.5820   46.0920   10.1740 C.2   219  SER219      0.2314
     53  O        -32.7050   46.7820   11.1910 O.2   219  SER219     -0.2863
     54  CB       -32.6840   43.7230   11.0070 C.3   219  SER219      0.2116
     55  OG       -32.8710   44.1170   12.3520 O.3   219  SER219     -0.2180
     56  N        -38.7330   43.7380    7.4420 N.3   228  ARG228     -0.1245
     57  CA       -37.3590   44.1730    7.6320 C.3   228  ARG228      0.1563
     58  C        -36.4380   43.2700    6.8230 C.2   228  ARG228      0.2260
     59  O        -36.7850   42.1330    6.4850 O.2   228  ARG228     -0.2867
     60  CB       -36.9360   44.1600    9.1070 C.3   228  ARG228      0.0307
     61  CG       -37.0540   42.8120    9.7990 C.3   228  ARG228      0.0489
     62  CD       -36.8470   42.9740   11.3000 C.3   228  ARG228      0.2205
     63  NE       -36.5580   41.7130   11.9760 N.pl3 228  ARG228     -0.0865
     64  CZ       -37.4690   40.7860   12.2560 C.cat 228  ARG228      0.5346
     65  NH1      -38.7390   40.9750   11.9180 N.pl3 228  ARG228      0.1354
     66  NH2      -37.1080   39.6680   12.8780 N.pl3 228  ARG228      0.1354
     67  N        -31.9250   42.5100    5.9780 N.3   230  ILE230     -0.1245
     68  CA       -30.5570   42.5980    6.4890 C.3   230  ILE230      0.1561
     69  C        -29.6520   43.4350    5.5910 C.2   230  ILE230      0.2260
     70  O        -29.6760   43.3220    4.3600 O.2   230  ILE230     -0.2867
     71  CB       -29.9650   41.1880    6.6820 C.3   230  ILE230      0.0252
     72  CG1      -30.8600   40.3590    7.6050 C.3   230  ILE230      0.0019
     73  CG2      -28.5170   41.2580    7.1500 C.3   230  ILE230      0.0019
     74  CD1      -30.2360   39.0680    8.0630 C.3   230  ILE230      0.0001
     75  N        -37.8830   35.7320   12.2130 N.3   253  PHE253     -0.1227
     76  CA       -36.6310   36.1410   12.8390 C.3   253  PHE253      0.1736
     77  C        -35.4310   35.7210   11.9930 C.2   253  PHE253      0.2595
     78  O        -35.5110   34.8140   11.1600 O.2   253  PHE253     -0.2718
     79  CB       -36.5060   35.5600   14.2590 C.3   253  PHE253      0.0547
     80  CG       -36.3410   34.0620   14.2940 C.ar  253  PHE253     -0.0202
     81  CD1      -37.4550   33.2310   14.3090 C.ar  253  PHE253     -0.0042
     82  CD2      -35.0800   33.4840   14.3010 C.ar  253  PHE253     -0.0042
     83  CE1      -37.3130   31.8480   14.3310 C.ar  253  PHE253     -0.0003
     84  CE2      -34.9300   32.1090   14.3270 C.ar  253  PHE253     -0.0003
     85  CZ       -36.0450   31.2900   14.3360 C.ar  253  PHE253     -0.0000
     86  N        -34.3010   36.3840   12.2490 N.am  254  TYR254     -0.1962
     87  CA       -33.0090   36.0690   11.6460 C.3   254  TYR254      0.1771
     88  C        -32.0920   35.5410   12.7380 C.2   254  TYR254      0.2620
     89  O        -32.1390   36.0110   13.8800 O.2   254  TYR254     -0.2715
     90  CB       -32.3380   37.3020   11.0230 C.3   254  TYR254      0.0574
     91  CG       -32.9680   37.8540    9.7710 C.ar  254  TYR254     -0.0198
     92  CD1      -33.1040   37.0810    8.6250 C.ar  254  TYR254     -0.0009
     93  CD2      -33.4480   39.1560    9.7460 C.ar  254  TYR254     -0.0009
     94  CE1      -33.6900   37.6020    7.4830 C.ar  254  TYR254      0.0417
     95  CE2      -34.0360   39.6810    8.6190 C.ar  254  TYR254      0.0417
     96  CZ       -34.1600   38.9050    7.4930 C.ar  254  TYR254      0.1957
     97  OH       -34.7500   39.4490    6.3760 O.3   254  TYR254     -0.2866
     98  N        -31.2660   34.5600   12.4060 N.am  255  SER255     -0.1936
     99  CA       -30.3190   34.0650   13.3890 C.3   255  SER255      0.2055
    100  C        -29.0130   33.6990   12.7010 C.2   255  SER255      0.2642
    101  O        -29.0120   33.0720   11.6370 O.2   255  SER255     -0.2714
    102  CB       -30.8810   32.8630   14.1520 C.3   255  SER255      0.2130
    103  OG       -29.9940   32.4780   15.1850 O.3   255  SER255     -0.2179
    104  N        -27.9060   34.0450   13.3480 N.am  256  ILE256     -0.1977
    105  CA       -26.5750   33.7490   12.8380 C.3   256  ILE256      0.1596
    106  C        -26.1950   32.4080   13.4470 C.2   256  ILE256      0.2287
    107  O        -25.8930   32.3220   14.6400 O.2   256  ILE256     -0.2864
    108  CB       -25.5720   34.8390   13.2260 C.3   256  ILE256      0.0276
    109  CG1      -25.8800   36.1410   12.4990 C.3   256  ILE256      0.0022
    110  CG2      -24.1580   34.4120   12.8680 C.3   256  ILE256      0.0022
    111  CD1      -25.0920   37.3170   13.0590 C.3   256  ILE256      0.0001
    112  N        -26.4440   31.6800    7.8890 N.3   266  MET266     -0.1245
    113  CA       -27.5910   32.4780    8.2980 C.3   266  MET266      0.1570
    114  C        -28.8780   31.6700    8.2040 C.2   266  MET266      0.2261
    115  O        -29.1100   30.9520    7.2260 O.2   266  MET266     -0.2867
    116  CB       -27.6960   33.7610    7.4630 C.3   266  MET266      0.0387
    117  CG       -28.8000   34.7150    7.9270 C.3   266  MET266      0.0595
    118  SD       -28.3140   35.6920    9.3740 S.3   266  MET266     -0.1393
    119  CE       -27.2000   36.8940    8.6480 C.3   266  MET266      0.0692
    120  N        -37.0730   32.7410   17.8980 N.3   301  THR301     -0.1218
    121  CA       -35.9120   33.6340   17.8900 C.3   301  THR301      0.1862
    122  C        -34.8660   33.2290   18.9200 C.2   301  THR301      0.2287
    123  O        -33.6620   33.2490   18.6350 O.2   301  THR301     -0.2866
    124  CB       -36.3540   35.0780   18.1490 C.3   301  THR301      0.1770
    125  OG1      -37.5370   35.3720   17.3950 O.3   301  THR301     -0.2211
    126  CG2      -35.2490   36.0520   17.7540 C.3   301  THR301      0.0375
@<TRIPOS>BOND
     1    70    69    2
     2    69    68    1
     3    67    68    1
     4    97    96    1
     5    59    58    2
     6    68    71    1
     7    71    73    1
     8    71    72    1
     9    58    57    1
    10   115   114    2
    11    56    57    1
    12   116   117    1
    13   116   113    1
    14    94    96   ar
    15    94    92   ar
    16    96    95   ar
    17    72    74    1
    18    57    60    1
    19    42    44   ar
    20    42    40   ar
    21   112   113    1
    22   117   118    1
    23   114   113    1
    24    44    43   ar
    25    40    39   ar
    26    95    93   ar
    27    92    91   ar
    28   119   118    1
    29    48    47    2
    30    60    61    1
    31    93    91   ar
    32    43    41   ar
    33    39    41   ar
    34    39    38    1
    35    91    90    1
    36    61    62    1
    37    47    50   am
    38    47    46    1
    39    52    51    1
    40    52    53    2
    41    51    50    1
    42    51    54    1
    43    45    46    1
    44    45    36   am
    45    35    38    1
    46    35    34    1
    47    35    36    1
    48    49    46    1
    49    54    55    1
    50    90    87    1
    51    36    37    2
    52    78    77    2
    53    62    63    1
    54   101   100    2
    55    87    86    1
    56    87    88    1
    57    65    64    1
    58    63    64    2
    59    77    86   am
    60    77    76    1
    61    75    76    1
    62    64    66    1
    63    98    88   am
    64    98    99    1
    65   109   111    1
    66   109   108    1
    67   100   104   am
    68   100    99    1
    69    88    89    2
    70   105   108    1
    71   105   104    1
    72   105   106    1
    73    76    79    1
    74   110   108    1
    75    99   102    1
    76     5     6    1
    77     5     2    1
    78   106   107    2
    79     1     2    1
    80    16    15    2
    81    33    32    2
    82     6     8   ar
    83     6     7   ar
    84   102   103    1
    85    79    80    1
    86    80    82   ar
    87    80    81   ar
    88    82    84   ar
    89    81    83   ar
    90     8    10   ar
    91    84    85   ar
    92     2     3    1
    93    83    85   ar
    94     7     9   ar
    95    32    31    1
    96    30    31    1
    97    30    21   am
    98    13     3   am
    99    13    14    1
   100    15    19   am
   101    15    14    1
   102    10    11   ar
   103    20    23    1
   104    20    21    1
   105    20    19    1
   106    23    24    1
   107     9    11   ar
   108     3     4    2
   109    11    12    1
   110    21    22    2
   111    14    17    1
   112    24    26   ar
   113    24    25   ar
   114    17    18    1
   115    26    28   ar
   116   125   124    1
   117    25    27   ar
   118    28    29   ar
   119   126   124    1
   120   121   120    1
   121   121   124    1
   122   121   122    1
   123    27    29   ar
   124   123   122    2
