@<TRIPOS>MOLECULE
tmp/5mriA02.pdb
 99 93 0 0 0
SMALL
GASTEIGER

@<TRIPOS>ATOM
      1  N        -41.5940  -62.1550   11.9490 N.3    63  ASP63      -0.1225
      2  CA       -41.1890  -60.9250   11.2830 C.3    63  ASP63       0.1805
      3  C        -40.2230  -60.1500   12.1640 C.2    63  ASP63       0.2597
      4  O        -40.3050  -58.9250   12.2890 O.2    63  ASP63      -0.2718
      5  CB       -42.4010  -60.0700   10.9100 C.3    63  ASP63       0.1424
      6  CG       -43.2700  -59.7090   12.1120 C.2    63  ASP63       0.3668
      7  OD1      -42.9330  -60.1000   13.2510 O.co2  63  ASP63      -0.2456
      8  OD2      -44.2930  -59.0190   11.9130 O.co2  63  ASP63      -0.2456
      9  N        -39.2840  -60.8740   12.7760 N.am   64  TYR64      -0.1976
     10  CA       -38.2130  -60.2980   13.5850 C.3    64  TYR64       0.1639
     11  C        -38.7520  -59.5330   14.7940 C.2    64  TYR64       0.2290
     12  O        -38.1640  -58.5350   15.2220 O.2    64  TYR64      -0.2864
     13  CB       -37.2970  -59.4010   12.7530 C.3    64  TYR64       0.0560
     14  CG       -36.3910  -60.1470   11.7930 C.ar   64  TYR64      -0.0198
     15  CD1      -36.8530  -60.5600   10.5470 C.ar   64  TYR64      -0.0009
     16  CD2      -35.0730  -60.4380   12.1340 C.ar   64  TYR64      -0.0009
     17  CE1      -36.0220  -61.2310    9.6640 C.ar   64  TYR64       0.0417
     18  CE2      -34.2370  -61.1070   11.2590 C.ar   64  TYR64       0.0417
     19  CZ       -34.7170  -61.5060   10.0290 C.ar   64  TYR64       0.1957
     20  OH       -33.8840  -62.1740    9.1630 O.3    64  TYR64      -0.2866
     21  N        -41.6970  -57.8630   15.1280 N.3    66  LYS66      -0.1245
     22  CA       -42.6620  -56.7880   14.9130 C.3    66  LYS66       0.1561
     23  C        -44.0440  -57.1820   15.4170 C.2    66  LYS66       0.2260
     24  O        -44.7600  -56.3590   15.9990 O.2    66  LYS66      -0.2867
     25  CB       -42.7130  -56.4070   13.4330 C.3    66  LYS66       0.0271
     26  CG       -41.5000  -55.6170   12.9630 C.3    66  LYS66       0.0035
     27  CD       -41.3580  -55.6640   11.4490 C.3    66  LYS66       0.0206
     28  CE       -40.2360  -54.7520   10.9700 C.3    66  LYS66       0.1093
     29  NZ       -40.1690  -54.6760    9.4820 N.3    66  LYS66      -0.1314
     30  N        -26.4810  -58.9120   10.9530 N.3   493  ARG493     -0.1231
     31  CA       -26.7330  -58.6600    9.5430 C.3   493  ARG493      0.1694
     32  C        -28.1300  -58.1240    9.2710 C.2   493  ARG493      0.2593
     33  O        -28.4140  -57.7320    8.1350 O.2   493  ARG493     -0.2718
     34  CB       -26.5080  -59.9360    8.7190 C.3   493  ARG493      0.0321
     35  CG       -25.0420  -60.2930    8.5590 C.3   493  ARG493      0.0489
     36  CD       -24.8400  -61.6520    7.9130 C.3   493  ARG493      0.2205
     37  NE       -23.4170  -61.9340    7.7420 N.pl3 493  ARG493     -0.0865
     38  CZ       -22.7050  -61.5570    6.6860 C.cat 493  ARG493      0.5346
     39  NH1      -23.2860  -60.8880    5.6980 N.pl3 493  ARG493      0.1354
     40  NH2      -21.4120  -61.8510    6.6160 N.pl3 493  ARG493      0.1354
     41  N        -29.0010  -58.0920   10.2730 N.am  494  SER494     -0.1938
     42  CA       -30.3350  -57.5580   10.0710 C.3   494  SER494      0.2055
     43  C        -30.3290  -56.0380   10.2010 C.2   494  SER494      0.2643
     44  O        -29.3500  -55.4180   10.6220 O.2   494  SER494     -0.2714
     45  CB       -31.3210  -58.1680   11.0650 C.3   494  SER494      0.2130
     46  OG       -31.3520  -57.4140   12.2640 O.3   494  SER494     -0.2179
     47  N        -31.4550  -55.4380    9.8220 N.am  495  MET495     -0.1962
     48  CA       -31.7160  -54.0260   10.0620 C.3   495  MET495      0.1736
     49  C        -32.9090  -53.8510   10.9900 C.2   495  MET495      0.2616
     50  O        -33.5050  -52.7710   11.0460 O.2   495  MET495     -0.2715
     51  CB       -31.9410  -53.2950    8.7410 C.3   495  MET495      0.0427
     52  CG       -30.6420  -52.9590    8.0250 C.3   495  MET495      0.0599
     53  SD       -30.8450  -51.6080    6.8680 S.3   495  MET495     -0.1393
     54  CE       -32.0420  -52.3360    5.7550 C.3   495  MET495      0.0692
     55  N        -33.2450  -54.8960   11.7380 N.am  496  ASN496     -0.1972
     56  CA       -34.3370  -54.8750   12.6930 C.3   496  ASN496      0.1688
     57  C        -33.7510  -54.9460   14.0960 C.2   496  ASN496      0.2292
     58  O        -32.8160  -55.7160   14.3450 O.2   496  ASN496     -0.2864
     59  CB       -35.2760  -56.0850   12.5820 C.3   496  ASN496      0.1181
     60  CG       -35.5360  -56.6070   11.1560 C.2   496  ASN496      0.2629
     61  OD1      -35.3490  -57.7890   10.9390 O.2   496  ASN496     -0.2716
     62  ND2      -36.0190  -55.7910   10.2310 N.am  496  ASN496     -0.0877
     63  N        -37.3860  -50.8820   12.1710 N.3   517  ASP517     -0.1239
     64  CA       -36.7690  -51.3170   10.9270 C.3   517  ASP517      0.1674
     65  C        -36.0770  -50.1040   10.3240 C.2   517  ASP517      0.2266
     66  O        -36.7110  -49.0630   10.1200 O.2   517  ASP517     -0.2867
     67  CB       -37.8190  -51.8780    9.9620 C.3   517  ASP517      0.1410
     68  CG       -37.2080  -52.6210    8.7790 C.2   517  ASP517      0.3668
     69  OD1      -36.1080  -52.2470    8.3190 O.co2 517  ASP517     -0.2456
     70  OD2      -37.8530  -53.5730    8.2880 O.co2 517  ASP517     -0.2456
     71  N        -34.7930  -49.8750    7.2960 N.3   519  LYS519     -0.1245
     72  CA       -34.6890  -50.0130    5.8460 C.3   519  LYS519      0.1561
     73  C        -34.9180  -48.7000    5.1100 C.2   519  LYS519      0.2260
     74  O        -34.3450  -48.4960    4.0340 O.2   519  LYS519     -0.2867
     75  CB       -35.6760  -51.0690    5.3450 C.3   519  LYS519      0.0271
     76  CG       -37.1390  -50.7140    5.5660 C.3   519  LYS519      0.0035
     77  CD       -38.0600  -51.7910    5.0220 C.3   519  LYS519      0.0206
     78  CE       -39.5170  -51.4280    5.2470 C.3   519  LYS519      0.1093
     79  NZ       -40.4370  -52.4720    4.7200 N.3   519  LYS519     -0.1314
     80  N        -26.7050  -49.4560    2.9360 N.3   566  GLN566     -0.1245
     81  CA       -26.8560  -50.7740    3.5360 C.3   566  GLN566      0.1566
     82  C        -25.8840  -51.7670    2.9120 C.2   566  GLN566      0.2260
     83  O        -25.8530  -51.9280    1.6860 O.2   566  GLN566     -0.2867
     84  CB       -28.2850  -51.2900    3.3690 C.3   566  GLN566      0.0367
     85  CG       -28.4850  -52.6970    3.9150 C.3   566  GLN566      0.0905
     86  CD       -29.7990  -53.3170    3.4820 C.2   566  GLN566      0.2608
     87  OE1      -30.5590  -52.7180    2.7220 O.2   566  GLN566     -0.2717
     88  NE2      -30.0840  -54.5150    3.9850 N.am  566  GLN566     -0.0878
     89  N        -27.7810  -58.1740    3.6530 N.3   569  ARG569     -0.1245
     90  CA       -27.7160  -59.4400    4.3790 C.3   569  ARG569      0.1563
     91  C        -26.6560  -60.3750    3.8070 C.2   569  ARG569      0.2260
     92  O        -26.1150  -61.2140    4.5350 O.2   569  ARG569     -0.2867
     93  CB       -29.0830  -60.1270    4.3620 C.3   569  ARG569      0.0307
     94  CG       -30.1770  -59.3900    5.1210 C.3   569  ARG569      0.0489
     95  CD       -31.3360  -60.3290    5.4200 C.3   569  ARG569      0.2205
     96  NE       -30.8620  -61.5120    6.1320 N.pl3 569  ARG569     -0.0865
     97  CZ       -30.7370  -61.5950    7.4520 C.cat 569  ARG569      0.5346
     98  NH1      -31.0630  -60.5640    8.2220 N.pl3 569  ARG569      0.1354
     99  NH2      -30.2830  -62.7150    8.0020 N.pl3 569  ARG569      0.1354
@<TRIPOS>BOND
     1    83    82    2
     2    87    86    2
     3    82    81    1
     4    80    81    1
     5    84    81    1
     6    84    85    1
     7    86    85    1
     8    86    88   am
     9    89    90    1
    10    91    90    1
    11    91    92    2
    12    74    73    2
    13    93    90    1
    14    93    94    1
    15    79    78    1
    16    77    78    1
    17    77    76    1
    18    73    72    1
    19    94    95    1
    20    75    76    1
    21    75    72    1
    22    95    96    1
    23    39    38    1
    24    54    53    1
    25    72    71    1
    26    96    97    2
    27    40    38    1
    28    38    37    2
    29    53    52    1
    30    97    99    1
    31    97    98    1
    32    37    36    1
    33    36    35    1
    34    52    51    1
    35    33    32    2
    36    70    68   ar
    37    69    68   ar
    38    35    34    1
    39    34    31    1
    40    51    48    1
    41    68    67    1
    42    20    19    1
    43    32    31    1
    44    32    41   am
    45    29    28    1
    46    31    30    1
    47    17    19   ar
    48    17    15   ar
    49    47    48    1
    50    47    43   am
    51    67    64    1
    52    19    18   ar
    53    48    49    1
    54    42    43    1
    55    42    41    1
    56    42    45    1
    57    66    65    2
    58    43    44    2
    59    62    60   am
    60    65    64    1
    61    15    14   ar
    62     5     2    1
    63     5     6    1
    64    64    63    1
    65    61    60    2
    66    28    27    1
    67    49    50    2
    68    49    55   am
    69    45    46    1
    70    60    59    1
    71    18    16   ar
    72     2     1    1
    73     2     3    1
    74    27    26    1
    75    55    56    1
    76    14    16   ar
    77    14    13    1
    78     8     6   ar
    79     6     7   ar
    80     3     4    2
    81     3     9   am
    82    59    56    1
    83    56    57    1
    84    13    10    1
    85     9    10    1
    86    26    25    1
    87    25    22    1
    88    10    11    1
    89    57    58    2
    90    11    12    2
    91    22    21    1
    92    22    23    1
    93    23    24    2
