@<TRIPOS>MOLECULE
tmp/5mriA05.pdb
 119 118 0 0 0
SMALL
GASTEIGER

@<TRIPOS>ATOM
      1  N        -10.1120  -87.1430   35.5200 N.3   218  TYR218     -0.1227
      2  CA       -10.7380  -86.1600   36.3940 C.3   218  TYR218      0.1736
      3  C        -11.9110  -85.5110   35.6610 C.2   218  TYR218      0.2596
      4  O        -13.0500  -85.5460   36.1360 O.2   218  TYR218     -0.2718
      5  CB        -9.6920  -85.1260   36.8240 C.3   218  TYR218      0.0548
      6  CG       -10.0880  -84.2170   37.9610 C.ar  218  TYR218     -0.0200
      7  CD1       -9.9270  -84.6140   39.2810 C.ar  218  TYR218     -0.0009
      8  CD2      -10.6010  -82.9510   37.7140 C.ar  218  TYR218     -0.0009
      9  CE1      -10.2730  -83.7770   40.3250 C.ar  218  TYR218      0.0417
     10  CE2      -10.9450  -82.1070   38.7500 C.ar  218  TYR218      0.0417
     11  CZ       -10.7840  -82.5250   40.0530 C.ar  218  TYR218      0.1957
     12  OH       -11.1340  -81.6840   41.0840 O.3   218  TYR218     -0.2866
     13  N        -11.6420  -84.9390   34.4890 N.am  219  SER219     -0.1938
     14  CA       -12.6610  -84.3670   33.6130 C.3   219  SER219      0.2055
     15  C        -12.0540  -84.2210   32.2230 C.2   219  SER219      0.2643
     16  O        -10.9100  -84.6160   31.9810 O.2   219  SER219     -0.2714
     17  CB       -13.1810  -83.0280   34.1380 C.3   219  SER219      0.2130
     18  OG       -14.4310  -82.7160   33.5440 O.3   219  SER219     -0.2179
     19  N        -12.8310  -83.6550   31.3020 N.am  220  PHE220     -0.1959
     20  CA       -12.3470  -83.4400   29.9460 C.3   220  PHE220      0.1771
     21  C        -13.0640  -82.2410   29.3420 C.2   220  PHE220      0.2620
     22  O        -14.0560  -81.7440   29.8800 O.2   220  PHE220     -0.2715
     23  CB       -12.5370  -84.6870   29.0740 C.3   220  PHE220      0.0574
     24  CG       -13.9510  -84.9000   28.6140 C.ar  220  PHE220     -0.0200
     25  CD1      -14.9040  -85.4260   29.4710 C.ar  220  PHE220     -0.0042
     26  CD2      -14.3240  -84.5850   27.3170 C.ar  220  PHE220     -0.0042
     27  CE1      -16.2060  -85.6260   29.0470 C.ar  220  PHE220     -0.0003
     28  CE2      -15.6250  -84.7820   26.8870 C.ar  220  PHE220     -0.0003
     29  CZ       -16.5650  -85.3040   27.7510 C.ar  220  PHE220     -0.0000
     30  N        -12.5520  -81.7890   28.2010 N.am  221  GLY221     -0.1954
     31  CA       -13.1400  -80.6620   27.5020 C.3   221  GLY221      0.1869
     32  C        -12.6890  -80.6290   26.0610 C.2   221  GLY221      0.2309
     33  O        -11.6650  -81.2130   25.6930 O.2   221  GLY221     -0.2863
     34  N         -9.0170  -82.2830   25.3310 N.3   228  PHE228     -0.1227
     35  CA        -8.2230  -82.1980   26.5430 C.3   228  PHE228      0.1736
     36  C         -8.8220  -83.1130   27.5980 C.2   228  PHE228      0.2595
     37  O        -10.0450  -83.2390   27.7050 O.2   228  PHE228     -0.2718
     38  CB        -8.1860  -80.7700   27.0830 C.3   228  PHE228      0.0547
     39  CG        -7.5320  -79.7830   26.1650 C.ar  228  PHE228     -0.0202
     40  CD1       -6.1580  -79.6250   26.1620 C.ar  228  PHE228     -0.0042
     41  CD2       -8.2980  -78.9900   25.3230 C.ar  228  PHE228     -0.0042
     42  CE1       -5.5540  -78.7080   25.3210 C.ar  228  PHE228     -0.0003
     43  CE2       -7.7000  -78.0690   24.4840 C.ar  228  PHE228     -0.0003
     44  CZ        -6.3270  -77.9290   24.4830 C.ar  228  PHE228     -0.0000
     45  N         -7.9530  -83.7420   28.3790 N.am  229  ALA229     -0.1966
     46  CA        -8.3740  -84.5850   29.4820 C.3   229  ALA229      0.1728
     47  C         -7.4330  -84.3640   30.6500 C.2   229  ALA229      0.2616
     48  O         -6.2140  -84.3010   30.4690 O.2   229  ALA229     -0.2715
     49  CB        -8.3850  -86.0680   29.0890 C.3   229  ALA229      0.0334
     50  N         -7.9960  -84.2630   31.8450 N.am  230  SER230     -0.1950
     51  CA        -7.1960  -84.0960   33.0450 C.3   230  SER230      0.1924
     52  C         -7.1080  -85.4580   33.7180 C.2   230  SER230      0.2314
     53  O         -8.1270  -86.1330   33.9000 O.2   230  SER230     -0.2863
     54  CB        -7.8000  -83.0440   33.9790 C.3   230  SER230      0.2116
     55  OG        -9.1460  -83.3490   34.3070 O.3   230  SER230     -0.2180
     56  N         -3.4530  -83.3130   39.4400 N.3   239  ARG239     -0.1245
     57  CA        -3.8410  -83.7060   38.0940 C.3   239  ARG239      0.1563
     58  C         -3.1300  -82.8300   37.0720 C.2   239  ARG239      0.2260
     59  O         -2.6200  -81.7550   37.3950 O.2   239  ARG239     -0.2867
     60  CB        -5.3550  -83.5930   37.8920 C.3   239  ARG239      0.0307
     61  CG        -5.8580  -82.1570   37.9050 C.3   239  ARG239      0.0489
     62  CD        -7.3680  -82.1110   37.8690 C.3   239  ARG239      0.2205
     63  NE        -7.8890  -80.7510   37.7520 N.pl3 239  ARG239     -0.0865
     64  CZ        -8.1030  -79.9470   38.7890 C.cat 239  ARG239      0.5346
     65  NH1       -7.8380  -80.3660   40.0200 N.pl3 239  ARG239      0.1354
     66  NH2       -8.5840  -78.7260   38.5980 N.pl3 239  ARG239      0.1354
     67  N         -2.8710  -82.0510   32.4190 N.3   241  ILE241     -0.1245
     68  CA        -3.5780  -82.0460   31.1400 C.3   241  ILE241      0.1561
     69  C         -2.8840  -82.9740   30.1550 C.2   241  ILE241      0.2260
     70  O         -1.6600  -82.9230   29.9900 O.2   241  ILE241     -0.2867
     71  CB        -3.6620  -80.6220   30.5620 C.3   241  ILE241      0.0252
     72  CG1       -4.3650  -79.6730   31.5290 C.3   241  ILE241      0.0019
     73  CG2       -4.3560  -80.6300   29.2010 C.3   241  ILE241      0.0019
     74  CD1       -5.7620  -80.1120   31.8480 C.3   241  ILE241      0.0001
     75  N         -8.2090  -74.8170   39.1800 N.3   264  PHE264     -0.1227
     76  CA        -8.9710  -75.1940   38.0010 C.3   264  PHE264      0.1736
     77  C         -8.2000  -74.8390   36.7380 C.2   264  PHE264      0.2595
     78  O         -7.3550  -73.9380   36.7310 O.2   264  PHE264     -0.2718
     79  CB       -10.3560  -74.5200   37.9770 C.3   264  PHE264      0.0547
     80  CG       -10.3110  -73.0140   37.9900 C.ar  264  PHE264     -0.0202
     81  CD1      -10.2510  -72.3160   39.1850 C.ar  264  PHE264     -0.0042
     82  CD2      -10.3580  -72.2960   36.8010 C.ar  264  PHE264     -0.0042
     83  CE1      -10.2210  -70.9310   39.1980 C.ar  264  PHE264     -0.0003
     84  CE2      -10.3290  -70.9110   36.8050 C.ar  264  PHE264     -0.0003
     85  CZ       -10.2580  -70.2270   38.0000 C.ar  264  PHE264     -0.0000
     86  N         -8.4890  -75.5810   35.6740 N.am  265  TYR265     -0.1962
     87  CA        -8.1220  -75.2110   34.3170 C.3   265  TYR265      0.1771
     88  C         -9.3380  -74.6160   33.6230 C.2   265  TYR265      0.2620
     89  O        -10.4780  -74.9850   33.9150 O.2   265  TYR265     -0.2715
     90  CB        -7.6300  -76.4200   33.5160 C.3   265  TYR265      0.0574
     91  CG        -6.4020  -77.1090   34.0630 C.ar  265  TYR265     -0.0198
     92  CD1       -5.1460  -76.5310   33.9490 C.ar  265  TYR265     -0.0009
     93  CD2       -6.4990  -78.3490   34.6740 C.ar  265  TYR265     -0.0009
     94  CE1       -4.0200  -77.1660   34.4370 C.ar  265  TYR265      0.0417
     95  CE2       -5.3820  -78.9940   35.1630 C.ar  265  TYR265      0.0417
     96  CZ        -4.1450  -78.3980   35.0450 C.ar  265  TYR265      0.1957
     97  OH        -3.0320  -79.0410   35.5360 O.3   265  TYR265     -0.2866
     98  N         -9.0930  -73.7070   32.6830 N.am  266  SER266     -0.1936
     99  CA       -10.1880  -73.1300   31.9170 C.3   266  SER266      0.2055
    100  C         -9.7120  -72.7980   30.5130 C.2   266  SER266      0.2642
    101  O         -8.7350  -72.0630   30.3400 O.2   266  SER266     -0.2714
    102  CB       -10.7470  -71.8750   32.5940 C.3   266  SER266      0.2130
    103  OG       -11.8350  -71.3560   31.8480 O.3   266  SER266     -0.2179
    104  N        -10.4170  -73.3210   29.5170 N.am  267  ILE267     -0.1977
    105  CA       -10.0990  -73.0150   28.1300 C.3   267  ILE267      0.1596
    106  C        -10.6840  -71.6360   27.8430 C.2   267  ILE267      0.2287
    107  O        -11.9030  -71.4650   27.8000 O.2   267  ILE267     -0.2864
    108  CB       -10.6730  -74.0730   27.1820 C.3   267  ILE267      0.0276
    109  CG1       -9.9930  -75.4210   27.4290 C.3   267  ILE267      0.0022
    110  CG2      -10.4700  -73.6500   25.7330 C.3   267  ILE267      0.0022
    111  CD1      -10.6700  -76.5820   26.7320 C.3   267  ILE267      0.0001
    112  N         -5.0650  -71.2660   27.3380 N.3   277  MET277     -0.1245
    113  CA        -5.3750  -72.0320   28.5370 C.3   277  MET277      0.1570
    114  C         -5.0680  -71.2130   29.7800 C.2   277  MET277      0.2261
    115  O         -3.9560  -70.6950   29.9320 O.2   277  MET277     -0.2867
    116  CB        -4.5960  -73.3520   28.5680 C.3   277  MET277      0.0387
    117  CG        -4.9870  -74.2690   29.7260 C.3   277  MET277      0.0595
    118  SD        -6.5820  -75.0850   29.4720 S.3   277  MET277     -0.1393
    119  CE        -6.1680  -76.2370   28.1640 C.3   277  MET277      0.0692
@<TRIPOS>BOND
     1    44    43   ar
     2    44    42   ar
     3    43    41   ar
     4    42    40   ar
     5    41    39   ar
     6    34    35    1
     7    33    32    2
     8   110   108    1
     9    32    31    1
    10    40    39   ar
    11    39    38    1
    12    35    38    1
    13    35    36    1
    14   111   109    1
    15    28    26   ar
    16    28    29   ar
    17   108   109    1
    18   108   105    1
    19    26    24   ar
    20   112   113    1
    21    31    30    1
    22    36    37    2
    23    36    45   am
    24    29    27   ar
    25   107   106    2
    26   106   105    1
    27   105   104    1
    28   119   118    1
    29    30    21   am
    30    45    46    1
    31   113   116    1
    32   113   114    1
    33   116   117    1
    34    24    23    1
    35    24    25   ar
    36    27    25   ar
    37    23    20    1
    38    49    46    1
    39    73    71    1
    40    21    22    2
    41    21    20    1
    42   118   117    1
    43    46    47    1
    44   104   100   am
    45   114   115    2
    46    20    19    1
    47    70    69    2
    48    69    68    1
    49   101   100    2
    50    48    47    2
    51   100    99    1
    52    71    68    1
    53    71    72    1
    54    47    50   am
    55    68    67    1
    56    19    15   am
    57    72    74    1
    58    50    51    1
    59   103   102    1
    60    99   102    1
    61    99    98    1
    62    16    15    2
    63    15    14    1
    64    98    88   am
    65    51    52    1
    66    51    54    1
    67    90    91    1
    68    90    87    1
    69    18    17    1
    70    14    17    1
    71    14    13    1
    72    88    89    2
    73    88    87    1
    74    52    53    2
    75    92    91   ar
    76    92    94   ar
    77    54    55    1
    78    91    93   ar
    79    87    86    1
    80    94    96   ar
    81    13     3   am
    82    93    95   ar
    83    96    95   ar
    84    96    97    1
    85     1     2    1
    86     3     4    2
    87     3     2    1
    88    86    77   am
    89     2     5    1
    90    78    77    2
    91    77    76    1
    92    82    84   ar
    93    82    80   ar
    94    84    85   ar
    95     5     6    1
    96    58    59    2
    97    58    57    1
    98     8     6   ar
    99     8    10   ar
   100    63    62    1
   101    63    64    2
   102    62    61    1
   103    60    61    1
   104    60    57    1
   105     6     7   ar
   106    79    80    1
   107    79    76    1
   108    80    81   ar
   109    85    83   ar
   110    76    75    1
   111    57    56    1
   112    66    64    1
   113    10    11   ar
   114    64    65    1
   115    81    83   ar
   116     7     9   ar
   117    11     9   ar
   118    11    12    1
