@<TRIPOS>MOLECULE
tmp/5mrkB00.pdb
 162 157 0 0 0
SMALL
GASTEIGER

@<TRIPOS>ATOM
      1  N         35.8960   -3.6580  -36.2830 N.3    37  SER37      -0.1217
      2  CA        36.7330   -2.4940  -36.5490 C.3    37  SER37       0.1889
      3  C         36.9810   -1.7300  -35.2530 C.2    37  SER37       0.2288
      4  O         36.3060   -1.9490  -34.2430 O.2    37  SER37      -0.2866
      5  CB        36.0900   -1.5820  -37.5990 C.3    37  SER37       0.2089
      6  OG        35.1610   -0.6950  -37.0010 O.3    37  SER37      -0.2183
      7  N         36.2630    1.3560  -34.9050 N.3    39  GLY39      -0.1225
      8  CA        35.2470    2.3790  -34.7230 C.3    39  GLY39       0.1811
      9  C         34.2930    2.1010  -33.5780 C.2    39  GLY39       0.2280
     10  O         33.8000    3.0360  -32.9390 O.2    39  GLY39      -0.2866
     11  N         23.8150    5.0810  -40.4610 N.3    60  ASP60      -0.1239
     12  CA        25.2640    5.1220  -40.2850 C.3    60  ASP60       0.1674
     13  C         25.8860    5.4130  -41.6460 C.2    60  ASP60       0.2266
     14  O         26.0980    4.5000  -42.4510 O.2    60  ASP60      -0.2867
     15  CB        25.7640    3.8050  -39.7030 C.3    60  ASP60       0.1410
     16  CG        27.2700    3.7820  -39.4970 C.2    60  ASP60       0.3668
     17  OD1       27.9260    4.8310  -39.6690 O.co2  60  ASP60      -0.2456
     18  OD2       27.7960    2.6990  -39.1730 O.co2  60  ASP60      -0.2456
     19  N         28.7790    6.2040  -44.1750 N.3    62  GLY62      -0.1210
     20  CA        30.1660    5.7870  -44.1930 C.3    62  GLY62       0.1956
     21  C         30.4300    4.7110  -43.1620 C.2    62  GLY62       0.2612
     22  O         31.3530    4.8280  -42.3510 O.2    62  GLY62      -0.2717
     23  N         29.6090    3.6600  -43.1750 N.am   63  CYS63      -0.1956
     24  CA        29.6900    2.6250  -42.1540 C.3    63  CYS63       0.1843
     25  C         30.9190    1.7380  -42.3030 C.2    63  CYS63       0.2626
     26  O         31.2310    0.9900  -41.3690 O.2    63  CYS63      -0.2714
     27  CB        28.4290    1.7630  -42.1860 C.3    63  CYS63       0.0997
     28  SG        28.2350    0.7910  -43.6960 S.3    63  CYS63      -0.0797
     29  N         31.6120    1.7970  -43.4380 N.am   64  GLY64      -0.1940
     30  CA        32.7580    0.9280  -43.6450 C.3    64  GLY64       0.2014
     31  C         32.4250   -0.5070  -43.3060 C.2    64  GLY64       0.2639
     32  O         31.3950   -1.0490  -43.7230 O.2    64  GLY64      -0.2714
     33  N         33.3210   -1.1460  -42.5520 N.am   65  ARG65      -0.1963
     34  CA        33.0810   -2.5090  -42.0910 C.3    65  ARG65       0.1729
     35  C         31.8090   -2.6150  -41.2590 C.2    65  ARG65       0.2617
     36  O         31.1890   -3.6840  -41.2170 O.2    65  ARG65      -0.2715
     37  CB        34.2890   -2.9970  -41.2910 C.3    65  ARG65       0.0348
     38  CG        35.5580   -3.1100  -42.1450 C.3    65  ARG65       0.0492
     39  CD        36.8210   -3.4130  -41.3400 C.3    65  ARG65       0.2205
     40  NE        36.9580   -4.8240  -40.9680 N.pl3  65  ARG65      -0.0865
     41  CZ        37.3120   -5.8050  -41.7990 C.cat  65  ARG65       0.5346
     42  NH1       37.5740   -5.5490  -43.0760 N.pl3  65  ARG65       0.1354
     43  NH2       37.4040   -7.0500  -41.3500 N.pl3  65  ARG65       0.1354
     44  N         31.4290   -1.5480  -40.5690 N.am   66  GLY66      -0.1940
     45  CA        30.1950   -1.5040  -39.8190 C.3    66  GLY66       0.2014
     46  C         30.3320   -1.4740  -38.3010 C.2    66  GLY66       0.2639
     47  O         29.3560   -1.7960  -37.6060 O.2    66  GLY66      -0.2714
     48  N         31.5000   -1.1050  -37.7710 N.am   67  GLY67      -0.1939
     49  CA        31.6990   -1.1510  -36.3320 C.3    67  GLY67       0.2014
     50  C         30.6910   -0.3160  -35.5630 C.2    67  GLY67       0.2638
     51  O         30.2520   -0.7050  -34.4780 O.2    67  GLY67      -0.2714
     52  N         30.3140    0.8450  -36.1060 N.am   68  TRP68      -0.1973
     53  CA        29.3410    1.6900  -35.4190 C.3    68  TRP68       0.1640
     54  C         27.9510    1.0700  -35.4660 C.2    68  TRP68       0.2290
     55  O         27.1970    1.1380  -34.4840 O.2    68  TRP68      -0.2864
     56  CB        29.3150    3.0870  -36.0400 C.3    68  TRP68       0.0576
     57  CG        30.4500    3.9760  -35.6280 C.ar   68  TRP68       0.0006
     58  CD1       31.6290    3.5970  -35.0540 C.ar   68  TRP68       0.0946
     59  CD2       30.5030    5.4010  -35.7480 C.ar   68  TRP68       0.0152
     60  NE1       32.4120    4.7000  -34.8130 N.ar   68  TRP68      -0.2442
     61  CE2       31.7410    5.8190  -35.2280 C.ar   68  TRP68       0.0810
     62  CE3       29.6200    6.3640  -36.2450 C.ar   68  TRP68       0.0012
     63  CZ2       32.1200    7.1560  -35.1950 C.ar   68  TRP68       0.0191
     64  CZ3       29.9980    7.6890  -36.2090 C.ar   68  TRP68       0.0001
     65  CH2       31.2360    8.0740  -35.6860 C.ar   68  TRP68       0.0015
     66  N         27.8780    2.6260  -47.1710 N.3    85  THR85      -0.1203
     67  CA        29.2940    2.8710  -47.4020 C.3    85  THR85       0.1994
     68  C         29.5940    2.7870  -48.8910 C.2    85  THR85       0.2617
     69  O         28.9250    2.0700  -49.6400 O.2    85  THR85      -0.2717
     70  CB        30.1640    1.8700  -46.6230 C.3    85  THR85       0.1784
     71  OG1       31.4590    2.4360  -46.3910 O.3    85  THR85      -0.2211
     72  CG2       30.3190    0.5410  -47.3770 C.3    85  THR85       0.0376
     73  N         30.6390    3.5040  -49.3070 N.am   86  LYS86      -0.1979
     74  CA        30.9770    3.5670  -50.7240 C.3    86  LYS86       0.1596
     75  C         31.4900    2.2200  -51.2110 C.2    86  LYS86       0.2287
     76  O         31.0580    1.7180  -52.2550 O.2    86  LYS86      -0.2864
     77  CB        32.0140    4.6650  -50.9680 C.3    86  LYS86       0.0298
     78  CG        31.5030    6.0030  -50.5610 C.3    86  LYS86       0.0038
     79  CD        32.3540    6.9670  -51.3810 C.3    86  LYS86       0.0206
     80  CE        32.5520    8.2690  -50.6220 C.3    86  LYS86       0.1093
     81  NZ        31.4190    8.6000  -49.7510 N.3    86  LYS86      -0.1314
     82  N         38.6520    0.7260  -50.3140 N.3    91  HIS91      -0.1226
     83  CA        37.6880    1.0980  -49.2930 C.3    91  HIS91       0.1752
     84  C         37.1610   -0.1480  -48.5950 C.2    91  HIS91       0.2595
     85  O         37.2220   -1.2620  -49.1250 O.2    91  HIS91      -0.2718
     86  CB        36.5170    1.8850  -49.8960 C.3    91  HIS91       0.0759
     87  CG        36.8940    3.2390  -50.4110 C.ar   91  HIS91       0.0818
     88  ND1       38.0080    3.4590  -51.1920 N.ar   91  HIS91      -0.2268
     89  CD2       36.2970    4.4450  -50.2600 C.ar   91  HIS91       0.1154
     90  CE1       38.0830    4.7420  -51.4970 C.ar   91  HIS91       0.1986
     91  NE2       37.0560    5.3620  -50.9450 N.ar   91  HIS91      -0.2212
     92  N         36.6410    0.0560  -47.3890 N.am   92  GLU92      -0.1979
     93  CA        36.1600   -1.0480  -46.5740 C.3    92  GLU92       0.1602
     94  C         34.7860   -1.5070  -47.0480 C.2    92  GLU92       0.2287
     95  O         33.9230   -0.6920  -47.3860 O.2    92  GLU92      -0.2864
     96  CB        36.0890   -0.6390  -45.1000 C.3    92  GLU92       0.0415
     97  CG        37.4250   -0.2480  -44.4620 C.3    92  GLU92       0.1163
     98  CD        37.8940    1.1460  -44.8520 C.2    92  GLU92       0.3649
     99  OE1       38.9550    1.5800  -44.3520 O.co2  92  GLU92      -0.2457
    100  OE2       37.1970    1.8170  -45.6420 O.co2  92  GLU92      -0.2457
    101  N         27.3510    2.8060  -52.2020 N.3   111  VAL111     -0.1231
    102  CA        26.5280    4.0010  -52.0400 C.3   111  VAL111      0.1692
    103  C         27.4520    5.1890  -51.8180 C.2   111  VAL111      0.2592
    104  O         28.2080    5.2230  -50.8390 O.2   111  VAL111     -0.2718
    105  CB        25.5370    3.8570  -50.8740 C.3   111  VAL111      0.0266
    106  CG1       24.5840    5.0450  -50.8360 C.3   111  VAL111      0.0020
    107  CG2       24.7560    2.5530  -50.9800 C.3   111  VAL111      0.0020
    108  N         27.3900    6.1640  -52.7230 N.am  112  ASP112     -0.1960
    109  CA        28.0480    7.4560  -52.5310 C.3   112  ASP112      0.1840
    110  C         27.0740    8.3630  -51.7880 C.2   112  ASP112      0.2622
    111  O         26.1280    8.8920  -52.3760 O.2   112  ASP112     -0.2715
    112  CB        28.4540    8.0560  -53.8730 C.3   112  ASP112      0.1450
    113  CG        29.2760    9.3230  -53.7240 C.2   112  ASP112      0.3671
    114  OD1       29.4350    9.8080  -52.5820 O.co2 112  ASP112     -0.2456
    115  OD2       29.7620    9.8370  -54.7530 O.co2 112  ASP112     -0.2456
    116  N         27.3200    8.5640  -50.4900 N.am  113  VAL113     -0.1963
    117  CA        26.3720    9.2960  -49.6580 C.3   113  VAL113      0.1727
    118  C         26.2480   10.7440  -50.0950 C.2   113  VAL113      0.2616
    119  O         25.2250   11.3760  -49.8240 O.2   113  VAL113     -0.2715
    120  CB        26.7710    9.2250  -48.1680 C.3   113  VAL113      0.0290
    121  CG1       26.8370    7.7800  -47.6960 C.3   113  VAL113      0.0023
    122  CG2       28.0990    9.9400  -47.9100 C.3   113  VAL113      0.0023
    123  N         27.2600   11.2930  -50.7690 N.am  114  PHE114     -0.1974
    124  CA        27.1290   12.6430  -51.2990 C.3   114  PHE114      0.1639
    125  C         26.1160   12.7150  -52.4330 C.2   114  PHE114      0.2290
    126  O         25.7100   13.8180  -52.8080 O.2   114  PHE114     -0.2864
    127  CB        28.4890   13.1710  -51.7680 C.3   114  PHE114      0.0560
    128  CG        29.4760   13.3710  -50.6510 C.ar  114  PHE114     -0.0200
    129  CD1       29.2540   14.3340  -49.6800 C.ar  114  PHE114     -0.0042
    130  CD2       30.6210   12.6000  -50.5700 C.ar  114  PHE114     -0.0042
    131  CE1       30.1530   14.5200  -48.6430 C.ar  114  PHE114     -0.0003
    132  CE2       31.5280   12.7840  -49.5350 C.ar  114  PHE114     -0.0003
    133  CZ        31.2910   13.7470  -48.5730 C.ar  114  PHE114     -0.0000
    134  N         30.8480    8.9920  -39.9720 N.3   127  ASP127     -0.1225
    135  CA        32.2510    8.8530  -39.6020 C.3   127  ASP127      0.1805
    136  C         33.1390    9.0810  -40.8230 C.2   127  ASP127      0.2598
    137  O         34.1240    8.3750  -41.0400 O.2   127  ASP127     -0.2718
    138  CB        32.5000    7.4740  -38.9870 C.3   127  ASP127      0.1424
    139  CG        33.8170    7.3920  -38.2090 C.2   127  ASP127      0.3668
    140  OD1       34.3260    8.4430  -37.7820 O.co2 127  ASP127     -0.2456
    141  OD2       34.3320    6.2730  -38.0060 O.co2 127  ASP127     -0.2456
    142  N         32.7870   10.0690  -41.6500 N.am  128  ILE128     -0.1966
    143  CA        33.4690   10.3080  -42.9180 C.3   128  ILE128      0.1727
    144  C         34.4270   11.4810  -42.7820 C.2   128  ILE128      0.2616
    145  O         34.1110   12.5080  -42.1650 O.2   128  ILE128     -0.2715
    146  CB        32.4620   10.5490  -44.0630 C.3   128  ILE128      0.0290
    147  CG1       31.6870    9.2630  -44.3520 C.3   128  ILE128      0.0022
    148  CG2       33.1740   11.0060  -45.3400 C.3   128  ILE128      0.0023
    149  CD1       30.5510    9.4370  -45.3240 C.3   128  ILE128      0.0001
    150  N         35.5960   11.3250  -43.3910 N.am  129  GLY129     -0.1955
    151  CA        36.5710   12.3780  -43.5760 C.3   129  GLY129      0.1869
    152  C         37.9610   11.7830  -43.5710 C.2   129  GLY129      0.2309
    153  O         38.4190   11.2450  -42.5580 O.2   129  GLY129     -0.2863
    154  N         31.5480   12.9080  -37.3330 N.3   163  LYS163     -0.1245
    155  CA        32.9820   13.1710  -37.3460 C.3   163  LYS163      0.1561
    156  C         33.2690   14.5120  -38.0070 C.2   163  LYS163      0.2260
    157  O         32.7420   14.8140  -39.0810 O.2   163  LYS163     -0.2867
    158  CB        33.7170   12.0470  -38.0800 C.3   163  LYS163      0.0271
    159  CG        35.2390   12.1990  -38.1370 C.3   163  LYS163      0.0035
    160  CD        35.8400   11.2840  -39.1940 C.3   163  LYS163      0.0206
    161  CE        37.1670   11.8000  -39.7130 C.3   163  LYS163      0.1093
    162  NZ        38.0110   10.6780  -40.2030 N.3   163  LYS163     -0.1314
@<TRIPOS>BOND
     1   115   113   ar
     2   112   113    1
     3   112   109    1
     4   113   114   ar
     5   126   125    2
     6   108   109    1
     7   108   103   am
     8   109   110    1
     9   125   124    1
    10   111   110    2
    11    76    75    2
    12   101   102    1
    13   102   103    1
    14   102   105    1
    15   103   104    2
    16   110   116   am
    17   127   124    1
    18   127   128    1
    19    90    88   ar
    20    90    91   ar
    21    79    80    1
    22    79    78    1
    23   124   123    1
    24    75    74    1
    25    88    87   ar
    26   107   105    1
    27    77    74    1
    28    77    78    1
    29    91    89   ar
    30   105   106    1
    31   123   118   am
    32    74    73    1
    33   128   130   ar
    34   128   129   ar
    35    80    81    1
    36   130   132   ar
    37   116   117    1
    38    87    89   ar
    39    87    86    1
    40    82    83    1
    41   118   119    2
    42   118   117    1
    43    86    83    1
    44   129   131   ar
    45   117   120    1
    46    69    68    2
    47   132   133   ar
    48    73    68   am
    49    83    84    1
    50    85    84    2
    51    68    67    1
    52   131   133   ar
    53    84    92   am
    54   120   122    1
    55   120   121    1
    56    67    66    1
    57    67    70    1
    58    92    93    1
    59    95    94    2
    60    72    70    1
    61    94    93    1
    62    70    71    1
    63    93    96    1
    64   100    98   ar
    65   148   146    1
    66   149   147    1
    67    96    97    1
    68    98    97    1
    69    98    99   ar
    70   147   146    1
    71    20    19    1
    72    20    21    1
    73   146   143    1
    74    32    31    2
    75    28    27    1
    76    30    29    1
    77    30    31    1
    78   151   152    1
    79   151   150    1
    80   152   153    2
    81    29    25   am
    82   150   144   am
    83    31    33   am
    84    23    21   am
    85    23    24    1
    86    21    22    2
    87    42    41    1
    88   143   144    1
    89   143   142    1
    90   144   145    2
    91    33    34    1
    92    14    13    2
    93    25    24    1
    94    25    26    2
    95    27    24    1
    96    38    39    1
    97    38    37    1
    98    34    37    1
    99    34    35    1
   100    41    43    1
   101    41    40    2
   102   142   136   am
   103    13    12    1
   104    39    40    1
   105    35    36    2
   106    35    44   am
   107   137   136    2
   108   136   135    1
   109    44    45    1
   110    11    12    1
   111    12    15    1
   112   162   161    1
   113   134   135    1
   114    45    46    1
   115   161   160    1
   116    15    16    1
   117    17    16   ar
   118   135   138    1
   119    16    18   ar
   120   160   159    1
   121   157   156    2
   122   138   139    1
   123    46    48   am
   124    46    47    2
   125   139   141   ar
   126   139   140   ar
   127   159   158    1
   128   158   155    1
   129   156   155    1
   130    48    49    1
   131     5     6    1
   132     5     2    1
   133   155   154    1
   134     2     1    1
   135     2     3    1
   136    49    50    1
   137    62    64   ar
   138    62    59   ar
   139    64    65   ar
   140    52    50   am
   141    52    53    1
   142    56    57    1
   143    56    53    1
   144    59    57   ar
   145    59    61   ar
   146    65    63   ar
   147    57    58   ar
   148    50    51    2
   149    54    53    1
   150    54    55    2
   151     3     4    2
   152    61    63   ar
   153    61    60   ar
   154    58    60   ar
   155     7     8    1
   156     8     9    1
   157     9    10    2
