@<TRIPOS>MOLECULE
tmp/5mrlA01.pdb
 132 128 0 0 0
SMALL
GASTEIGER

@<TRIPOS>ATOM
      1  N         57.1190  151.2160   14.8470 N.3    55  GLY55      -0.1210
      2  CA        56.4860  150.3290   15.7830 C.3    55  GLY55       0.1956
      3  C         57.0810  150.4790   17.1610 C.2    55  GLY55       0.2612
      4  O         57.2830  151.5920   17.6330 O.2    55  GLY55      -0.2717
      5  N         57.3470  149.3750   17.8530 N.am   56  GLY56      -0.1942
      6  CA        57.9390  149.4890   19.1820 C.3    56  GLY56       0.2014
      7  C         59.2090  150.3360   19.1690 C.2    56  GLY56       0.2640
      8  O         60.0080  150.2710   18.2070 O.2    56  GLY56      -0.2714
      9  N         59.4060  151.1000   20.2430 N.am   57  SER57      -0.1935
     10  CA        60.4560  152.1080   20.3150 C.3    57  SER57       0.2055
     11  C         61.0460  152.3610   21.7000 C.2    57  SER57       0.2643
     12  O         62.2530  152.3320   21.8740 O.2    57  SER57      -0.2714
     13  CB        59.9000  153.4210   19.7870 C.3    57  SER57       0.2130
     14  OG        60.9510  154.3030   19.4390 O.3    57  SER57      -0.2179
     15  N         60.1970  152.6210   22.6830 N.am   58  TYR58      -0.1973
     16  CA        60.6280  153.0280   23.9960 C.3    58  TYR58       0.1639
     17  C         61.0240  151.9050   24.9280 C.2    58  TYR58       0.2290
     18  O         60.4560  150.8290   24.9030 O.2    58  TYR58      -0.2864
     19  CB        59.5680  153.9130   24.6730 C.3    58  TYR58       0.0560
     20  CG        59.1420  155.0900   23.8010 C.ar   58  TYR58      -0.0198
     21  CD1       59.9770  156.2020   23.6300 C.ar   58  TYR58      -0.0009
     22  CD2       57.9320  155.0660   23.1040 C.ar   58  TYR58      -0.0009
     23  CE1       59.6100  157.2530   22.8120 C.ar   58  TYR58       0.0417
     24  CE2       57.5500  156.1260   22.2710 C.ar   58  TYR58       0.0417
     25  CZ        58.3960  157.2060   22.1230 C.ar   58  TYR58       0.1957
     26  OH        58.0260  158.2550   21.3020 O.3    58  TYR58      -0.2866
     27  N         43.9950  157.3750   29.6280 N.3   166  PHE166     -0.1241
     28  CA        45.0350  156.4340   30.1410 C.3   166  PHE166      0.1605
     29  C         44.8560  154.9860   29.6300 C.2   166  PHE166      0.2264
     30  O         45.7880  154.3970   29.1190 O.2   166  PHE166     -0.2867
     31  CB        45.0660  156.5230   31.6820 C.3   166  PHE166      0.0534
     32  CG        45.8810  155.4540   32.3630 C.ar  166  PHE166     -0.0203
     33  CD1       47.2840  155.4570   32.2800 C.ar  166  PHE166     -0.0042
     34  CD2       45.2530  154.4690   33.1320 C.ar  166  PHE166     -0.0042
     35  CE1       48.0380  154.4610   32.9230 C.ar  166  PHE166     -0.0003
     36  CE2       45.9920  153.4840   33.7700 C.ar  166  PHE166     -0.0003
     37  CZ        47.3930  153.4630   33.6490 C.ar  166  PHE166     -0.0000
     38  N         45.5000  154.8640   25.7080 N.3   169  LEU169     -0.1231
     39  CA        46.8970  155.0190   25.4150 C.3   169  LEU169      0.1693
     40  C         47.7440  153.8030   25.7950 C.2   169  LEU169      0.2592
     41  O         48.6030  153.4200   25.0290 O.2   169  LEU169     -0.2718
     42  CB        47.3950  156.2760   26.1120 C.3   169  LEU169      0.0284
     43  CG        48.8550  156.7030   26.0490 C.3   169  LEU169      0.0019
     44  CD1       49.2050  157.0220   24.6130 C.3   169  LEU169      0.0001
     45  CD2       49.1090  157.9290   26.9040 C.3   169  LEU169      0.0001
     46  N         47.5240  153.2110   26.9690 N.am  170  CYS170     -0.1970
     47  CA        48.2170  151.9820   27.3680 C.3   170  CYS170      0.1712
     48  C         47.9500  150.7450   26.5170 C.2   170  CYS170      0.2296
     49  O         48.8660  149.9760   26.2930 O.2   170  CYS170     -0.2864
     50  CB        47.8780  151.6080   28.7970 C.3   170  CYS170      0.0983
     51  SG        48.5320  152.7480   30.0230 S.3   170  CYS170     -0.0798
     52  N         54.3400  153.0080   34.4450 N.3   196  ILE196     -0.1231
     53  CA        53.8450  152.8090   33.0830 C.3   196  ILE196      0.1692
     54  C         53.6850  154.1300   32.3290 C.2   196  ILE196      0.2591
     55  O         54.0270  154.2090   31.1710 O.2   196  ILE196     -0.2718
     56  CB        52.5680  151.8910   33.0020 C.3   196  ILE196      0.0266
     57  CG1       52.5110  151.1810   31.6530 C.3   196  ILE196      0.0019
     58  CG2       51.2660  152.6720   33.2150 C.3   196  ILE196      0.0020
     59  CD1       51.3090  150.2770   31.4430 C.3   196  ILE196      0.0001
     60  N         53.1920  155.1680   32.9940 N.am  197  ILE197     -0.1980
     61  CA        52.9840  156.4460   32.3290 C.3   197  ILE197      0.1595
     62  C         54.2130  157.3520   32.1760 C.2   197  ILE197      0.2287
     63  O         54.1470  158.3250   31.4290 O.2   197  ILE197     -0.2864
     64  CB        51.8690  157.3020   33.0010 C.3   197  ILE197      0.0276
     65  CG1       52.3200  157.7810   34.3890 C.3   197  ILE197      0.0022
     66  CG2       50.5770  156.5170   33.1100 C.3   197  ILE197      0.0022
     67  CD1       51.7430  159.1090   34.8410 C.3   197  ILE197      0.0001
     68  N         58.8310  155.1630   29.0480 N.3   204  GLN204     -0.1245
     69  CA        59.1710  155.9920   27.8920 C.3   204  GLN204      0.1566
     70  C         60.5030  156.7730   28.0300 C.2   204  GLN204      0.2260
     71  O         60.7320  157.7550   27.2860 O.2   204  GLN204     -0.2867
     72  CB        58.0090  156.9540   27.5850 C.3   204  GLN204      0.0367
     73  CG        56.7950  156.2860   26.9420 C.3   204  GLN204      0.0905
     74  CD        56.0600  155.3710   27.8950 C.2   204  GLN204      0.2608
     75  OE1       55.9980  154.1290   27.7090 O.2   204  GLN204     -0.2717
     76  NE2       55.5150  155.9680   28.9570 N.am  204  GLN204     -0.0878
     77  N         50.7030  155.1070   14.3130 N.3   294  LYS294     -0.1245
     78  CA        51.8050  155.9070   14.8330 C.3   294  LYS294      0.1561
     79  C         52.2350  156.9080   13.7570 C.2   294  LYS294      0.2260
     80  O         52.5270  156.5130   12.6490 O.2   294  LYS294     -0.2867
     81  CB        52.9490  155.0130   15.2270 C.3   294  LYS294      0.0271
     82  CG        54.1110  155.7820   15.8010 C.3   294  LYS294      0.0035
     83  CD        55.0800  154.8350   16.4560 C.3   294  LYS294      0.0206
     84  CE        56.2920  155.5780   16.9570 C.3   294  LYS294      0.1093
     85  NZ        57.0760  154.7720   17.9430 N.3   294  LYS294     -0.1314
     86  N         48.1810  161.6920   22.5770 N.3   324  TYR324     -0.1241
     87  CA        49.4830  161.7050   23.2340 C.3   324  TYR324      0.1605
     88  C         50.5630  161.9450   22.2020 C.2   324  TYR324      0.2264
     89  O         50.5370  161.3470   21.1120 O.2   324  TYR324     -0.2867
     90  CB        49.7490  160.3970   23.9150 C.3   324  TYR324      0.0534
     91  CG        50.8610  160.4240   24.9240 C.ar  324  TYR324     -0.0201
     92  CD1       50.7530  161.2010   26.0720 C.ar  324  TYR324     -0.0009
     93  CD2       52.0150  159.6500   24.7650 C.ar  324  TYR324     -0.0009
     94  CE1       51.7600  161.2220   27.0350 C.ar  324  TYR324      0.0417
     95  CE2       53.0430  159.6610   25.7200 C.ar  324  TYR324      0.0417
     96  CZ        52.8990  160.4540   26.8500 C.ar  324  TYR324      0.1957
     97  OH        53.8570  160.5010   27.8210 O.3   324  TYR324     -0.2866
     98  N         50.3960  159.2910   18.6880 N.3   341  PHE341     -0.1241
     99  CA        49.5450  158.1070   18.5170 C.3   341  PHE341      0.1605
    100  C         48.0890  158.4420   18.2440 C.2   341  PHE341      0.2264
    101  O         47.4660  159.1790   19.0070 O.2   341  PHE341     -0.2867
    102  CB        49.5560  157.2630   19.7850 C.3   341  PHE341      0.0534
    103  CG        50.8650  156.6360   20.1070 C.ar  341  PHE341     -0.0203
    104  CD1       51.4640  155.7820   19.2350 C.ar  341  PHE341     -0.0042
    105  CD2       51.4750  156.8580   21.3280 C.ar  341  PHE341     -0.0042
    106  CE1       52.6750  155.1590   19.5480 C.ar  341  PHE341     -0.0003
    107  CE2       52.6820  156.2230   21.6650 C.ar  341  PHE341     -0.0003
    108  CZ        53.2690  155.3700   20.7690 C.ar  341  PHE341     -0.0000
    109  N         49.3780  147.9330   20.3250 N.3   396  TYR396     -0.1241
    110  CA        50.7480  147.3870   20.5880 C.3   396  TYR396      0.1605
    111  C         50.6690  145.8940   20.8140 C.2   396  TYR396      0.2264
    112  O         51.5720  145.1500   20.4290 O.2   396  TYR396     -0.2867
    113  CB        51.4250  147.9950   21.8400 C.3   396  TYR396      0.0534
    114  CG        51.0800  149.4320   22.0500 C.ar  396  TYR396     -0.0201
    115  CD1       51.2710  150.3800   21.0180 C.ar  396  TYR396     -0.0009
    116  CD2       50.5040  149.8550   23.2340 C.ar  396  TYR396     -0.0009
    117  CE1       50.9170  151.7120   21.2000 C.ar  396  TYR396      0.0417
    118  CE2       50.1580  151.1790   23.4240 C.ar  396  TYR396      0.0417
    119  CZ        50.3640  152.1030   22.4100 C.ar  396  TYR396      0.1957
    120  OH        49.9920  153.3970   22.5990 O.3   396  TYR396     -0.2866
    121  N         55.3330  144.5740   25.7010 N.3   433  TYR433     -0.1241
    122  CA        56.5440  145.3190   25.3380 C.3   433  TYR433      0.1605
    123  C         57.6380  144.4340   24.7360 C.2   433  TYR433      0.2264
    124  O         57.5640  143.2130   24.7630 O.2   433  TYR433     -0.2867
    125  CB        57.0880  146.0310   26.5870 C.3   433  TYR433      0.0534
    126  CG        56.1460  147.1120   27.1310 C.ar  433  TYR433     -0.0201
    127  CD1       54.8750  146.8030   27.6270 C.ar  433  TYR433     -0.0009
    128  CD2       56.4970  148.4890   27.0650 C.ar  433  TYR433     -0.0009
    129  CE1       54.0270  147.8070   28.0900 C.ar  433  TYR433      0.0417
    130  CE2       55.6440  149.4690   27.5270 C.ar  433  TYR433      0.0417
    131  CZ        54.4270  149.1090   28.0450 C.ar  433  TYR433      0.1957
    132  OH        53.5890  150.0700   28.4890 O.3   433  TYR433     -0.2866
@<TRIPOS>BOND
     1    80    79    2
     2    79    78    1
     3    77    78    1
     4    78    81    1
     5     1     2    1
     6    81    82    1
     7     2     3    1
     8    82    83    1
     9    83    84    1
    10    84    85    1
    11     3     4    2
    12     3     5   am
    13     5     6    1
    14     8     7    2
    15   100    99    1
    16   100   101    2
    17    99    98    1
    18    99   102    1
    19     7     6    1
    20     7     9   am
    21   104   106   ar
    22   104   103   ar
    23    14    13    1
    24   106   108   ar
    25   102   103    1
    26    13    10    1
    27   103   105   ar
    28     9    10    1
    29    10    11    1
    30   109   110    1
    31   112   111    2
    32   110   111    1
    33   110   113    1
    34   108   107   ar
    35   115   117   ar
    36   115   114   ar
    37    89    88    2
    38   117   119   ar
    39    26    25    1
    40   105   107   ar
    41    11    12    2
    42    11    15   am
    43   113   114    1
    44   114   116   ar
    45    25    24   ar
    46    25    23   ar
    47    88    87    1
    48    24    22   ar
    49   119   120    1
    50   119   118   ar
    51    86    87    1
    52    15    16    1
    53    23    21   ar
    54    22    20   ar
    55    87    90    1
    56   116   118   ar
    57    21    20   ar
    58    20    19    1
    59    90    91    1
    60    16    19    1
    61    16    17    1
    62    44    43    1
    63   123   124    2
    64   123   122    1
    65    93    91   ar
    66    93    95   ar
    67    18    17    2
    68    91    92   ar
    69    41    40    2
    70   122   121    1
    71   122   125    1
    72    39    38    1
    73    39    40    1
    74    39    42    1
    75    95    96   ar
    76    40    46   am
    77    43    42    1
    78    43    45    1
    79    92    94   ar
    80    49    48    2
    81    48    47    1
    82   125   126    1
    83    96    94   ar
    84    96    97    1
    85    73    72    1
    86    73    74    1
    87    46    47    1
    88   128   126   ar
    89   128   130   ar
    90   126   127   ar
    91    71    70    2
    92    47    50    1
    93   130   131   ar
    94    72    69    1
    95   127   129   ar
    96    75    74    2
    97    69    70    1
    98    69    68    1
    99    74    76   am
   100   131   129   ar
   101   131   132    1
   102    50    51    1
   103    30    29    2
   104    27    28    1
   105    29    28    1
   106    28    31    1
   107    55    54    2
   108    63    62    2
   109    59    57    1
   110    57    56    1
   111    31    32    1
   112    62    61    1
   113    33    32   ar
   114    33    35   ar
   115    61    60    1
   116    61    64    1
   117    54    60   am
   118    54    53    1
   119    32    34   ar
   120    35    37   ar
   121    64    66    1
   122    64    65    1
   123    56    53    1
   124    56    58    1
   125    53    52    1
   126    34    36   ar
   127    37    36   ar
   128    65    67    1
