@<TRIPOS>MOLECULE
tmp/5mrmA00.pdb
 139 130 0 0 0
SMALL
GASTEIGER

@<TRIPOS>ATOM
      1  N         20.6230   19.8980  -19.0920 N.3    72  ARG72      -0.1231
      2  CA        19.2690   20.4390  -19.3000 C.3    72  ARG72       0.1694
      3  C         19.2190   21.5410  -20.3590 C.2    72  ARG72       0.2591
      4  O         18.3600   21.5130  -21.2380 O.2    72  ARG72      -0.2718
      5  CB        18.6850   20.9610  -17.9800 C.3    72  ARG72       0.0321
      6  CG        17.2400   21.4380  -18.0730 C.3    72  ARG72       0.0489
      7  CD        16.6480   21.7060  -16.7010 C.3    72  ARG72       0.2205
      8  NE        15.2130   21.9750  -16.7810 N.pl3  72  ARG72      -0.0865
      9  CZ        14.6560   23.1310  -17.1540 C.cat  72  ARG72       0.5346
     10  NH1       13.3280   23.2310  -17.1870 N.pl3  72  ARG72       0.1354
     11  NH2       15.3970   24.1880  -17.4980 N.pl3  72  ARG72       0.1354
     12  N         20.1390   22.5010  -20.2740 N.am   73  GLN73      -0.1979
     13  CA        20.1790   23.6260  -21.2310 C.3    73  GLN73       0.1601
     14  C         20.4060   23.2200  -22.6980 C.2    73  GLN73       0.2287
     15  O         19.9110   23.8980  -23.5990 O.2    73  GLN73      -0.2864
     16  CB        21.1900   24.7120  -20.8100 C.3    73  GLN73       0.0394
     17  CG        22.6670   24.3170  -20.8240 C.3    73  GLN73       0.0908
     18  CD        23.1440   23.6660  -19.5330 C.2    73  GLN73       0.2608
     19  OE1       22.3410   23.1780  -18.7290 O.2    73  GLN73      -0.2717
     20  NE2       24.4600   23.6440  -19.3330 N.am   73  GLN73      -0.0878
     21  N         17.0750   22.1440  -24.0240 N.3    76  VAL76      -0.1245
     22  CA        16.2480   23.3320  -24.2710 C.3    76  VAL76       0.1561
     23  C         16.6070   23.9620  -25.6180 C.2    76  VAL76       0.2260
     24  O         15.7160   24.2460  -26.4230 O.2    76  VAL76      -0.2867
     25  CB        16.3590   24.3660  -23.1220 C.3    76  VAL76       0.0252
     26  CG1       15.7090   25.6970  -23.4960 C.3    76  VAL76       0.0019
     27  CG2       15.7210   23.8030  -21.8620 C.3    76  VAL76       0.0019
     28  N          8.6710   26.0230  -21.4060 N.3    92  ILE92      -0.1245
     29  CA         9.5630   24.9070  -21.1210 C.3    92  ILE92       0.1561
     30  C          9.0340   24.1570  -19.9060 C.2    92  ILE92       0.2260
     31  O          8.8530   24.7620  -18.8530 O.2    92  ILE92      -0.2867
     32  CB        10.9920   25.3970  -20.8220 C.3    92  ILE92       0.0252
     33  CG1       11.5230   26.2550  -21.9800 C.3    92  ILE92       0.0019
     34  CG2       11.9190   24.2060  -20.5640 C.3    92  ILE92       0.0019
     35  CD1       12.6300   27.1990  -21.5730 C.3    92  ILE92       0.0001
     36  N          9.3290   36.8240  -19.0270 N.3   117  ALA117     -0.1231
     37  CA         9.8720   35.6150  -18.4370 C.3   117  ALA117      0.1694
     38  C          9.1490   35.3910  -17.1180 C.2   117  ALA117      0.2592
     39  O          9.0360   36.3160  -16.2900 O.2   117  ALA117     -0.2718
     40  CB        11.3770   35.7580  -18.2130 C.3   117  ALA117      0.0304
     41  N          8.6200   34.1870  -16.9430 N.am  118  ALA118     -0.1966
     42  CA         7.9900   33.7910  -15.6850 C.3   118  ALA118      0.1728
     43  C          8.1510   32.3020  -15.4140 C.2   118  ALA118      0.2616
     44  O          8.1830   31.4750  -16.3410 O.2   118  ALA118     -0.2715
     45  CB         6.5140   34.1800  -15.6820 C.3   118  ALA118      0.0334
     46  N          8.2460   31.9560  -14.1310 N.am  119  VAL119     -0.1977
     47  CA         8.4050   30.5550  -13.7290 C.3   119  VAL119      0.1596
     48  C          7.4060   30.2620  -12.6070 C.2   119  VAL119      0.2287
     49  O          7.1490   31.1310  -11.7730 O.2   119  VAL119     -0.2864
     50  CB         9.8700   30.2720  -13.3190 C.3   119  VAL119      0.0276
     51  CG1       10.3190   31.1980  -12.1970 C.3   119  VAL119      0.0022
     52  CG2       10.0560   28.8160  -12.9140 C.3   119  VAL119      0.0022
     53  N          8.7240   26.9550  -17.1050 N.3   150  GLN150     -0.1231
     54  CA         9.4380   28.2120  -17.2700 C.3   150  GLN150      0.1698
     55  C          8.9610   28.7960  -18.6010 C.2   150  GLN150      0.2592
     56  O          9.1470   28.1810  -19.6560 O.2   150  GLN150     -0.2718
     57  CB        10.9440   27.9660  -17.3070 C.3   150  GLN150      0.0381
     58  CG        11.5150   27.3630  -16.0240 C.3   150  GLN150      0.0905
     59  CD        12.9200   26.8080  -16.2060 C.2   150  GLN150      0.2608
     60  OE1       13.1830   26.0550  -17.1440 O.2   150  GLN150     -0.2717
     61  NE2       13.8310   27.1730  -15.3020 N.am  150  GLN150     -0.0878
     62  N          8.3480   29.9760  -18.5470 N.am  151  VAL151     -0.1966
     63  CA         7.7420   30.6140  -19.7140 C.3   151  VAL151      0.1727
     64  C          8.5890   31.8210  -20.0880 C.2   151  VAL151      0.2616
     65  O          8.8760   32.6580  -19.2410 O.2   151  VAL151     -0.2715
     66  CB         6.2990   31.0790  -19.4140 C.3   151  VAL151      0.0290
     67  CG1        5.6650   31.7650  -20.6300 C.3   151  VAL151      0.0023
     68  CG2        5.4510   29.9100  -18.9490 C.3   151  VAL151      0.0023
     69  N          8.9820   31.9150  -21.3540 N.am  152  ILE152     -0.1977
     70  CA         9.8790   32.9820  -21.7880 C.3   152  ILE152      0.1596
     71  C          9.6710   33.3030  -23.2690 C.2   152  ILE152      0.2287
     72  O          9.3760   32.4110  -24.0780 O.2   152  ILE152     -0.2864
     73  CB        11.3560   32.6150  -21.4550 C.3   152  ILE152      0.0276
     74  CG1       12.3030   33.7850  -21.7370 C.3   152  ILE152      0.0022
     75  CG2       11.8010   31.3400  -22.1760 C.3   152  ILE152      0.0022
     76  CD1       13.6710   33.6230  -21.1100 C.3   152  ILE152      0.0001
     77  N         15.2050   34.2050  -24.6630 N.3   157  LEU157     -0.1245
     78  CA        15.9170   32.9400  -24.4740 C.3   157  LEU157      0.1561
     79  C         17.1350   32.8470  -25.4070 C.2   157  LEU157      0.2260
     80  O         18.2270   32.4820  -24.9630 O.2   157  LEU157     -0.2867
     81  CB        14.9700   31.7500  -24.6890 C.3   157  LEU157      0.0270
     82  CG        15.4420   30.3450  -24.3020 C.3   157  LEU157      0.0019
     83  CD1       15.7900   30.2510  -22.8220 C.3   157  LEU157      0.0001
     84  CD2       14.3700   29.3220  -24.6370 C.3   157  LEU157      0.0001
     85  N         21.2510   32.5430  -24.5920 N.3   161  PHE161     -0.1241
     86  CA        22.1810   31.5680  -25.1930 C.3   161  PHE161      0.1605
     87  C         23.3690   32.2300  -25.9100 C.2   161  PHE161      0.2264
     88  O         24.5000   31.7390  -25.8180 O.2   161  PHE161     -0.2867
     89  CB        21.4480   30.6220  -26.1610 C.3   161  PHE161      0.0534
     90  CG        20.7040   29.5040  -25.4790 C.ar  161  PHE161     -0.0203
     91  CD1       21.3970   28.5030  -24.8050 C.ar  161  PHE161     -0.0042
     92  CD2       19.3130   29.4360  -25.5230 C.ar  161  PHE161     -0.0042
     93  CE1       20.7200   27.4680  -24.1730 C.ar  161  PHE161     -0.0003
     94  CE2       18.6320   28.3980  -24.8980 C.ar  161  PHE161     -0.0003
     95  CZ        19.3330   27.4160  -24.2210 C.ar  161  PHE161     -0.0000
     96  N         27.8220   28.0600  -16.5080 N.3   171  VAL171     -0.1245
     97  CA        26.4060   27.7650  -16.2910 C.3   171  VAL171      0.1561
     98  C         26.2850   26.5970  -15.3060 C.2   171  VAL171      0.2260
     99  O         26.9520   25.5720  -15.4760 O.2   171  VAL171     -0.2867
    100  CB        25.7180   27.4650  -17.6500 C.3   171  VAL171      0.0252
    101  CG1       24.5080   26.5460  -17.5090 C.3   171  VAL171      0.0019
    102  CG2       25.3270   28.7670  -18.3390 C.3   171  VAL171      0.0019
    103  N         21.5530   29.9680  -14.7010 N.3   176  SER176     -0.1202
    104  CA        21.3180   29.6500  -16.1110 C.3   176  SER176      0.2020
    105  C         21.6390   30.8170  -17.0380 C.2   176  SER176      0.2619
    106  O         21.9440   31.9230  -16.5890 O.2   176  SER176     -0.2717
    107  CB        19.8590   29.2470  -16.3240 C.3   176  SER176      0.2103
    108  OG        19.0240   30.3890  -16.4250 O.3   176  SER176     -0.2182
    109  N         21.5430   30.5450  -18.3400 N.am  177  ILE177     -0.1965
    110  CA        21.5880   31.5770  -19.3920 C.3   177  ILE177      0.1727
    111  C         20.7170   32.8150  -19.1170 C.2   177  ILE177      0.2616
    112  O         21.1200   33.9340  -19.4440 O.2   177  ILE177     -0.2715
    113  CB        21.2010   31.0140  -20.7880 C.3   177  ILE177      0.0290
    114  CG1       19.9170   30.1710  -20.7330 C.3   177  ILE177      0.0022
    115  CG2       22.3450   30.1900  -21.3730 C.3   177  ILE177      0.0023
    116  CD1       19.1750   30.1370  -22.0430 C.3   177  ILE177      0.0001
    117  N         19.5480   32.6180  -18.5040 N.am  178  VAL178     -0.1963
    118  CA        18.6130   33.7330  -18.2620 C.3   178  VAL178      0.1727
    119  C         18.9500   34.4840  -16.9620 C.2   178  VAL178      0.2616
    120  O         18.6670   35.6760  -16.8710 O.2   178  VAL178     -0.2715
    121  CB        17.0880   33.3680  -18.4360 C.3   178  VAL178      0.0290
    122  CG1       16.8650   31.9480  -18.9490 C.3   178  VAL178      0.0023
    123  CG2       16.2430   33.6540  -17.1950 C.3   178  VAL178      0.0023
    124  N         19.5830   33.8220  -15.9890 N.am  179  GLU179     -0.1977
    125  CA        20.1060   34.5190  -14.7960 C.3   179  GLU179      0.1602
    126  C         21.1090   35.6240  -15.1420 C.2   179  GLU179      0.2287
    127  O         21.2090   36.6130  -14.4130 O.2   179  GLU179     -0.2864
    128  CB        20.7630   33.5430  -13.8090 C.3   179  GLU179      0.0415
    129  CG        19.7750   32.6910  -13.0230 C.3   179  GLU179      0.1163
    130  CD        19.0810   33.4420  -11.9040 C.2   179  GLU179      0.3649
    131  OE1       19.7730   34.0950  -11.0890 O.co2 179  GLU179     -0.2457
    132  OE2       17.8370   33.3560  -11.8260 O.co2 179  GLU179     -0.2457
    133  N         12.5280   38.2820  -14.1750 N.3   185  VAL185     -0.1245
    134  CA        11.8670   36.9860  -14.1360 C.3   185  VAL185      0.1561
    135  C         10.8170   37.0380  -13.0400 C.2   185  VAL185      0.2260
    136  O         11.1400   37.2660  -11.8690 O.2   185  VAL185     -0.2867
    137  CB        12.8700   35.8510  -13.8310 C.3   185  VAL185      0.0252
    138  CG1       12.1760   34.4930  -13.7930 C.3   185  VAL185      0.0019
    139  CG2       13.9690   35.8320  -14.8860 C.3   185  VAL185      0.0019
@<TRIPOS>BOND
     1    24    23    2
     2    89    90    1
     3    89    86    1
     4    87    88    2
     5    87    86    1
     6    23    22    1
     7    92    90   ar
     8    92    94   ar
     9    90    91   ar
    10    79    80    2
    11    79    78    1
    12    86    85    1
    13    94    95   ar
    14    91    93   ar
    15    81    78    1
    16    81    82    1
    17    77    78    1
    18    84    82    1
    19    82    83    1
    20    22    21    1
    21    22    25    1
    22    95    93   ar
    23    72    71    2
    24    15    14    2
    25    26    25    1
    26    71    70    1
    27    25    27    1
    28    14    13    1
    29    75    73    1
    30   116   114    1
    31    33    35    1
    32    33    32    1
    33    70    73    1
    34    70    69    1
    35    74    73    1
    36    74    76    1
    37    28    29    1
    38   115   113    1
    39    69    64   am
    40     4     3    2
    41    13    16    1
    42    13    12    1
    43    29    32    1
    44    29    30    1
    45    17    16    1
    46    17    18    1
    47    32    34    1
    48   113   114    1
    49   113   110    1
    50    67    66    1
    51     3    12   am
    52     3     2    1
    53    64    63    1
    54    64    65    2
    55    30    31    2
    56    63    66    1
    57    63    62    1
    58    56    55    2
    59    18    20   am
    60    18    19    2
    61   112   111    2
    62    66    68    1
    63   110   111    1
    64   110   109    1
    65     2     1    1
    66     2     5    1
    67   111   117   am
    68    36    37    1
    69   122   121    1
    70    55    62   am
    71    55    54    1
    72   117   118    1
    73    37    40    1
    74    37    38    1
    75   121   118    1
    76   121   123    1
    77   109   105   am
    78   102   100    1
    79   118   119    1
    80     6     5    1
    81     6     7    1
    82   100   101    1
    83   100    97    1
    84    11     9    1
    85    57    54    1
    86    57    58    1
    87    54    53    1
    88    10     9    1
    89     9     8    2
    90    60    59    2
    91    38    41   am
    92    38    39    2
    93   105   106    2
    94   105   104    1
    95   119   120    2
    96   119   124   am
    97    41    42    1
    98     8     7    1
    99    96    97    1
   100   108   107    1
   101    44    43    2
   102   107   104    1
   103    97    98    1
   104    59    58    1
   105    59    61   am
   106   104   103    1
   107   124   125    1
   108    42    45    1
   109    42    43    1
   110    99    98    2
   111    43    46   am
   112   126   125    1
   113   126   127    2
   114   139   137    1
   115   125   128    1
   116   133   134    1
   117   134   137    1
   118   134   135    1
   119    46    47    1
   120   137   138    1
   121   128   129    1
   122    47    50    1
   123    47    48    1
   124    50    52    1
   125    50    51    1
   126   135   136    2
   127   129   130    1
   128    48    49    2
   129   130   132   ar
   130   130   131   ar
