@<TRIPOS>MOLECULE
tmp/5mrsB00.pdb
 106 103 0 0 0
SMALL
GASTEIGER

@<TRIPOS>ATOM
      1  N        -14.7890   -4.4830   -4.0510 N.3    36  HIS36      -0.1241
      2  CA       -15.8650   -4.7060   -5.0050 C.3    36  HIS36       0.1621
      3  C        -15.4670   -4.3160   -6.4240 C.2    36  HIS36       0.2264
      4  O        -16.2060   -4.6370   -7.3620 O.2    36  HIS36      -0.2867
      5  CB       -17.1330   -3.9600   -4.5470 C.3    36  HIS36       0.0745
      6  CG       -17.1620   -2.4920   -4.8890 C.ar   36  HIS36       0.0817
      7  ND1      -17.1230   -1.5020   -3.9260 N.ar   36  HIS36      -0.2268
      8  CD2      -17.2790   -1.8490   -6.0790 C.ar   36  HIS36       0.1154
      9  CE1      -17.1870   -0.3140   -4.5080 C.ar   36  HIS36       0.1986
     10  NE2      -17.2820   -0.4970   -5.8140 N.ar   36  HIS36      -0.2212
     11  N        -25.2050   -3.9440    1.3380 N.3   124  TYR124     -0.1227
     12  CA       -25.1240   -3.8300   -0.1060 C.3   124  TYR124      0.1736
     13  C        -25.9190   -4.9560   -0.7740 C.2   124  TYR124      0.2595
     14  O        -26.3270   -5.9320   -0.1420 O.2   124  TYR124     -0.2718
     15  CB       -23.6700   -3.8880   -0.5660 C.3   124  TYR124      0.0548
     16  CG       -22.7840   -2.7260   -0.1430 C.ar  124  TYR124     -0.0200
     17  CD1      -23.2790   -1.4260   -0.0430 C.ar  124  TYR124     -0.0009
     18  CD2      -21.4350   -2.9370    0.1100 C.ar  124  TYR124     -0.0009
     19  CE1      -22.4590   -0.3720    0.3150 C.ar  124  TYR124      0.0417
     20  CE2      -20.6060   -1.9040    0.4620 C.ar  124  TYR124      0.0417
     21  CZ       -21.1120   -0.6200    0.5610 C.ar  124  TYR124      0.1957
     22  OH       -20.2540    0.3960    0.9140 O.3   124  TYR124     -0.2866
     23  N        -26.1120   -4.8220   -2.0860 N.am  125  ALA125     -0.1966
     24  CA       -26.8610   -5.8310   -2.8310 C.3   125  ALA125      0.1728
     25  C        -26.1910   -7.2020   -2.7700 C.2   125  ALA125      0.2616
     26  O        -26.8790   -8.2280   -2.7520 O.2   125  ALA125     -0.2715
     27  CB       -27.0330   -5.3810   -4.2850 C.3   125  ALA125      0.0334
     28  N        -24.8620   -7.2520   -2.7340 N.am  126  GLU126     -0.1977
     29  CA       -24.1740   -8.5310   -2.7380 C.3   126  GLU126      0.1602
     30  C        -23.8080   -9.0180   -1.3420 C.2   126  GLU126      0.2287
     31  O        -23.1930  -10.0860   -1.2160 O.2   126  GLU126     -0.2864
     32  CB       -22.9290   -8.4730   -3.6330 C.3   126  GLU126      0.0415
     33  CG       -22.2250   -7.1470   -3.7220 C.3   126  GLU126      0.1163
     34  CD       -22.9320   -6.0840   -4.5570 C.2   126  GLU126      0.3649
     35  OE1      -23.4290   -5.1190   -3.9520 O.co2 126  GLU126     -0.2457
     36  OE2      -22.9810   -6.1940   -5.8020 O.co2 126  GLU126     -0.2457
     37  N        -20.0540   11.9000   -3.9280 N.3   139  MET139     -0.1230
     38  CA       -19.3760   10.9140   -4.7600 C.3   139  MET139      0.1702
     39  C        -20.3870   10.3380   -5.7410 C.2   139  MET139      0.2593
     40  O        -21.5970   10.5370   -5.6020 O.2   139  MET139     -0.2718
     41  CB       -18.7610    9.8030   -3.9110 C.3   139  MET139      0.0401
     42  CG       -19.7050    9.2460   -2.8470 C.3   139  MET139      0.0596
     43  SD       -20.2320    7.5810   -3.2720 S.3   139  MET139     -0.1393
     44  CE       -21.9480    7.6370   -2.7880 C.3   139  MET139      0.0692
     45  N        -19.8760    9.6050   -6.7270 N.am  140  GLY140     -0.1942
     46  CA       -20.7380    8.9550   -7.6990 C.3   140  GLY140      0.2014
     47  C        -20.1180    7.6890   -8.2540 C.2   140  GLY140      0.2639
     48  O        -18.9040    7.4740   -8.1580 O.2   140  GLY140     -0.2714
     49  N        -20.9710    6.8480   -8.8500 N.am  141  ARG141     -0.1963
     50  CA       -20.5120    5.5960   -9.4570 C.3   141  ARG141      0.1729
     51  C        -19.2990    5.8400  -10.3410 C.2   141  ARG141      0.2617
     52  O        -19.3300    6.6890  -11.2410 O.2   141  ARG141     -0.2715
     53  CB       -21.6270    4.9570  -10.2910 C.3   141  ARG141      0.0348
     54  CG       -22.8740    4.5800   -9.5260 C.3   141  ARG141      0.0492
     55  CD       -23.9020    3.9720  -10.4850 C.3   141  ARG141      0.2205
     56  NE       -25.2360    3.8660   -9.8950 N.pl3 141  ARG141     -0.0865
     57  CZ       -25.6500    2.8390   -9.1550 C.cat 141  ARG141      0.5346
     58  NH1      -26.8880    2.8320   -8.6730 N.pl3 141  ARG141      0.1354
     59  NH2      -24.8320    1.8190   -8.8990 N.pl3 141  ARG141      0.1354
     60  N        -18.2290    5.0970  -10.0750 N.am  142  GLY142     -0.1940
     61  CA       -16.9500    5.2830  -10.7250 C.3   142  GLY142      0.2014
     62  C        -15.8950    5.8610   -9.8020 C.2   142  GLY142      0.2639
     63  O        -14.6910    5.6670  -10.0430 O.2   142  GLY142     -0.2714
     64  N        -16.3200    6.6080   -8.7780 N.am  143  ASP143     -0.1957
     65  CA       -15.4140    7.0370   -7.7270 C.3   143  ASP143      0.1840
     66  C        -14.9340    5.8530   -6.8820 C.2   143  ASP143      0.2622
     67  O        -13.9330    5.9850   -6.1720 O.2   143  ASP143     -0.2715
     68  CB       -16.1040    8.0840   -6.8450 C.3   143  ASP143      0.1450
     69  CG       -16.3350    9.4210   -7.5680 C.2   143  ASP143      0.3671
     70  OD1      -15.6140    9.7270   -8.5520 O.co2 143  ASP143     -0.2456
     71  OD2      -17.2470   10.1730   -7.1320 O.co2 143  ASP143     -0.2456
     72  N        -15.6050    4.6990   -6.9900 N.am  144  SER144     -0.1950
     73  CA       -15.3320    3.4940   -6.2030 C.3   144  SER144      0.1924
     74  C        -13.8500    3.1710   -6.0920 C.2   144  SER144      0.2314
     75  O        -13.1290    3.1500   -7.0930 O.2   144  SER144     -0.2863
     76  CB       -16.0450    2.3000   -6.8350 C.3   144  SER144      0.2116
     77  OG       -17.4330    2.3360   -6.5720 O.3   144  SER144     -0.2180
     78  N        -13.0390    4.5540   -1.2520 N.3   159  MET159     -0.1230
     79  CA       -14.4700    4.6810   -1.5340 C.3   159  MET159      0.1702
     80  C        -15.1350    3.3120   -1.6990 C.2   159  MET159      0.2593
     81  O        -14.6590    2.4650   -2.4550 O.2   159  MET159     -0.2718
     82  CB       -14.6410    5.5260   -2.8070 C.3   159  MET159      0.0401
     83  CG       -16.0690    5.9150   -3.1840 C.3   159  MET159      0.0596
     84  SD       -16.7060    7.2950   -2.1930 S.3   159  MET159     -0.1393
     85  CE       -17.8020    6.4480   -1.0710 C.3   159  MET159      0.0692
     86  N        -16.2540    3.1080   -1.0010 N.am  160  SER160     -0.1938
     87  CA       -16.9280    1.8140   -0.9590 C.3   160  SER160      0.2055
     88  C        -18.3660    1.8670   -1.4490 C.2   160  SER160      0.2644
     89  O        -18.7850    0.9920   -2.2190 O.2   160  SER160     -0.2714
     90  CB       -16.8990    1.2520    0.4730 C.3   160  SER160      0.2130
     91  OG       -17.7370    0.1160    0.5840 O.3   160  SER160     -0.2179
     92  N        -19.1460    2.8430   -1.0040 N.am  161  GLY161     -0.1939
     93  CA       -20.5470    2.9040   -1.3820 C.3   161  GLY161      0.2014
     94  C        -21.2260    4.1010   -0.7560 C.2   161  GLY161      0.2639
     95  O        -20.5760    4.9650   -0.1620 O.2   161  GLY161     -0.2714
     96  N        -22.5420    4.1490   -0.9100 N.am  162  GLY162     -0.1954
     97  CA       -23.3420    5.2100   -0.3260 C.3   162  GLY162      0.1869
     98  C        -24.5790    5.4940   -1.1570 C.2   162  GLY162      0.2309
     99  O        -24.8490    4.8300   -2.1560 O.2   162  GLY162     -0.2863
    100  N        -26.1980    7.0430   -3.5670 N.3   164  VAL164     -0.1245
    101  CA       -26.2400    7.7420   -4.8430 C.3   164  VAL164      0.1561
    102  C        -27.6910    7.9070   -5.2580 C.2   164  VAL164      0.2260
    103  O        -28.5560    7.1020   -4.8980 O.2   164  VAL164     -0.2867
    104  CB       -25.4440    6.9940   -5.9210 C.3   164  VAL164      0.0252
    105  CG1      -23.9600    7.0110   -5.5820 C.3   164  VAL164      0.0019
    106  CG2      -25.9760    5.5650   -6.0530 C.3   164  VAL164      0.0019
@<TRIPOS>BOND
     1    52    51    2
     2    61    60    1
     3    61    62    1
     4    55    56    1
     5    55    54    1
     6    51    60   am
     7    51    50    1
     8    53    54    1
     9    53    50    1
    10    63    62    2
    11    56    57    2
    12    62    64   am
    13    50    49    1
    14    57    59    1
    15    57    58    1
    16    49    47   am
    17    64    65    1
    18    70    69   ar
    19    47    48    2
    20    47    46    1
    21    65    66    1
    22    65    68    1
    23    46    45    1
    24    69    71   ar
    25    69    68    1
    26     4     3    2
    27    75    74    2
    28    72    66   am
    29    72    73    1
    30    66    67    2
    31    76    77    1
    32    76    73    1
    33    45    39   am
    34     3     2    1
    35    73    74    1
    36     8    10   ar
    37     8     6   ar
    38   106   104    1
    39   104   105    1
    40   104   101    1
    41    10     9   ar
    42    36    34   ar
    43    39    40    2
    44    39    38    1
    45   102   103    2
    46   102   101    1
    47     2     5    1
    48     2     1    1
    49     6     5    1
    50     6     7   ar
    51   101   100    1
    52    38    37    1
    53    38    41    1
    54    34    35   ar
    55    34    33    1
    56     9     7   ar
    57    27    24    1
    58    41    42    1
    59    33    32    1
    60    32    29    1
    61    43    42    1
    62    43    44    1
    63    83    82    1
    64    83    84    1
    65    24    25    1
    66    24    23    1
    67    82    79    1
    68    25    26    2
    69    25    28   am
    70    29    28    1
    71    29    30    1
    72    81    80    2
    73    89    88    2
    74    84    85    1
    75    99    98    2
    76    23    13   am
    77    80    79    1
    78    80    86   am
    79    79    78    1
    80    88    92   am
    81    88    87    1
    82    93    92    1
    83    93    94    1
    84    30    31    2
    85    98    97    1
    86    86    87    1
    87    87    90    1
    88    96    94   am
    89    96    97    1
    90    13    14    2
    91    13    12    1
    92    94    95    2
    93    15    16    1
    94    15    12    1
    95    16    17   ar
    96    16    18   ar
    97    12    11    1
    98    17    19   ar
    99    18    20   ar
   100    19    21   ar
   101    20    21   ar
   102    90    91    1
   103    21    22    1
