@<TRIPOS>MOLECULE
tmp/5mruA00.pdb
 165 157 0 0 0
SMALL
GASTEIGER

@<TRIPOS>ATOM
      1  N         -1.7430   20.2280    5.6430 N.3    53  LEU53      -0.1245
      2  CA        -2.9460   19.4950    6.0440 C.3    53  LEU53       0.1561
      3  C         -4.0490   20.3960    6.5490 C.2    53  LEU53       0.2260
      4  O         -5.2000   20.1950    6.2560 O.2    53  LEU53      -0.2867
      5  CB        -2.6060   18.4620    7.1320 C.3    53  LEU53       0.0270
      6  CG        -1.5180   17.4010    6.8200 C.3    53  LEU53       0.0019
      7  CD1       -1.4520   16.3110    7.9000 C.3    53  LEU53       0.0001
      8  CD2       -1.7020   16.7830    5.4310 C.3    53  LEU53       0.0001
      9  N         -6.3840   18.9950    3.7570 N.3    57  HIS57      -0.1241
     10  CA        -6.7930   17.6500    4.1680 C.3    57  HIS57       0.1621
     11  C         -8.2250   17.7000    4.6380 C.2    57  HIS57       0.2264
     12  O         -8.5020   17.9320    5.8080 O.2    57  HIS57      -0.2867
     13  CB        -5.8670   17.1160    5.2770 C.3    57  HIS57       0.0745
     14  CG        -6.0770   15.6720    5.6050 C.ar   57  HIS57       0.0817
     15  ND1       -6.7380   14.7980    4.7660 N.ar   57  HIS57      -0.2268
     16  CD2       -5.6920   14.9440    6.6800 C.ar   57  HIS57       0.1154
     17  CE1       -6.7610   13.5990    5.3210 C.ar   57  HIS57       0.1986
     18  NE2       -6.1280   13.6600    6.4800 N.ar   57  HIS57      -0.2212
     19  N        -10.0800   14.3580    6.3270 N.3    60  SER60      -0.1217
     20  CA        -9.3720   13.9860    7.5710 C.3    60  SER60       0.1889
     21  C        -10.2940   13.4760    8.6870 C.2    60  SER60       0.2288
     22  O        -10.1510   12.3590    9.1570 O.2    60  SER60      -0.2866
     23  CB        -8.6110   15.2260    8.1030 C.3    60  SER60       0.2089
     24  OG        -8.3980   15.2160    9.5120 O.3    60  SER60      -0.2183
     25  N        -10.3610    9.8660    2.8520 N.3    75  ASN75      -0.1240
     26  CA        -9.2180   10.2100    3.7120 C.3    75  ASN75       0.1653
     27  C         -7.8880   10.1610    3.0290 C.2    75  ASN75       0.2266
     28  O         -7.0880   11.0440    3.2070 O.2    75  ASN75      -0.2867
     29  CB        -9.1450    9.2360    4.8520 C.3    75  ASN75       0.1155
     30  CG        -7.9610    9.4700    5.7130 C.2    75  ASN75       0.2627
     31  OD1       -7.0670    8.6280    5.7830 O.2    75  ASN75      -0.2716
     32  ND2       -7.9490   10.6100    6.3960 N.am   75  ASN75      -0.0877
     33  N         -5.7000   13.3150    1.9690 N.3    79  PHE79      -0.1241
     34  CA        -4.3180   13.3890    2.4110 C.3    79  PHE79       0.1605
     35  C         -3.4460   13.6920    1.1940 C.2    79  PHE79       0.2264
     36  O         -2.8020   14.7320    1.1300 O.2    79  PHE79      -0.2867
     37  CB        -3.9250   12.0650    3.0730 C.3    79  PHE79       0.0534
     38  CG        -2.4950   12.0130    3.6050 C.ar   79  PHE79      -0.0203
     39  CD1       -1.9490   13.0610    4.3020 C.ar   79  PHE79      -0.0042
     40  CD2       -1.7380   10.8660    3.4540 C.ar   79  PHE79      -0.0042
     41  CE1       -0.6730   13.0040    4.8140 C.ar   79  PHE79      -0.0003
     42  CE2       -0.4450   10.7930    3.9570 C.ar   79  PHE79      -0.0003
     43  CZ         0.0910   11.8750    4.6440 C.ar   79  PHE79      -0.0000
     44  N          6.7040   15.6310    4.7150 N.3    93  HIS93      -0.1241
     45  CA         5.8300   14.9360    5.6720 C.3    93  HIS93       0.1621
     46  C          6.4800   13.7450    6.2990 C.2    93  HIS93       0.2264
     47  O          6.1280   13.3340    7.4000 O.2    93  HIS93      -0.2867
     48  CB         4.5920   14.4360    4.9650 C.3    93  HIS93       0.0745
     49  CG         3.6870   13.6940    5.8570 C.ar   93  HIS93       0.0817
     50  ND1        2.7010   14.3160    6.5810 N.ar   93  HIS93      -0.2268
     51  CD2        3.6530   12.3920    6.2130 C.ar   93  HIS93       0.1154
     52  CE1        2.0710   13.4270    7.3270 C.ar   93  HIS93       0.1986
     53  NE2        2.6510   12.2530    7.1460 N.ar   93  HIS93      -0.2212
     54  N          7.3290   12.8400   10.0610 N.3    96  THR96      -0.1203
     55  CA         6.6160   13.6830   11.0040 C.3    96  THR96       0.1994
     56  C          5.6800   12.7800   11.7690 C.2    96  THR96       0.2618
     57  O          5.3480   11.6920   11.3150 O.2    96  THR96      -0.2717
     58  CB         5.8110   14.8490   10.3660 C.3    96  THR96       0.1784
     59  OG1        4.7890   14.3470    9.4960 O.3    96  THR96      -0.2211
     60  CG2        6.7170   15.8220    9.6100 C.3    96  THR96       0.0376
     61  N          5.3140   13.2110   12.9630 N.am   97  ARG97      -0.1965
     62  CA         4.3780   12.4740   13.7970 C.3    97  ARG97       0.1714
     63  C          3.2950   13.4520   14.1660 C.2    97  ARG97       0.2458
     64  O          3.5870   14.5720   14.5970 O.2    97  ARG97      -0.2730
     65  CB         5.0630   11.8840   15.0410 C.3    97  ARG97       0.0347
     66  CG         5.5350   10.4350   14.8780 C.3    97  ARG97       0.0492
     67  CD         6.1760   10.2040   13.5040 C.3    97  ARG97       0.2205
     68  NE         6.9080    8.9640   13.2080 N.pl3  97  ARG97      -0.0865
     69  CZ         6.8740    7.8100   13.8770 C.cat  97  ARG97       0.5346
     70  NH1        6.1440    7.6210   14.9800 N.pl3  97  ARG97       0.1354
     71  NH2        7.6300    6.8130   13.4270 N.pl3  97  ARG97       0.1354
     72  N          2.0350   13.0430   13.9860 N.am   98  PRO98      -0.2727
     73  CA         0.9180   13.9630   14.1690 C.3    98  PRO98       0.1402
     74  C          0.9360   14.6310   15.5710 C.2    98  PRO98       0.2269
     75  O          1.1950   13.9520   16.5660 O.2    98  PRO98      -0.2865
     76  CB        -0.2950   13.0560   13.9600 C.3    98  PRO98       0.0296
     77  CG         0.1820   11.6850   14.3260 C.3    98  PRO98       0.0237
     78  CD         1.5970   11.6390   13.8670 C.3    98  PRO98       0.0939
     79  N         -3.4070   17.3620   16.2700 N.3   102  GLN102     -0.1245
     80  CA        -3.5640   16.2860   15.3020 C.3   102  GLN102      0.1566
     81  C         -3.8200   14.9380   16.0060 C.2   102  GLN102      0.2260
     82  O         -4.3450   14.0200   15.3950 O.2   102  GLN102     -0.2867
     83  CB        -2.3250   16.2070   14.4030 C.3   102  GLN102      0.0367
     84  CG        -1.8160   17.5070   13.8820 C.3   102  GLN102      0.0905
     85  CD        -2.4110   17.8570   12.5670 C.2   102  GLN102      0.2608
     86  OE1       -3.0610   17.0520   11.8910 O.2   102  GLN102     -0.2717
     87  NE2       -2.1580   19.0460   12.0710 N.am  102  GLN102     -0.0878
     88  N         -7.8500   14.7400   17.0320 N.3   105  THR105     -0.1203
     89  CA        -8.5150   14.3140   15.7710 C.3   105  THR105      0.1994
     90  C         -8.0600   12.9310   15.2130 C.2   105  THR105      0.2617
     91  O         -8.8660   12.2120   14.6250 O.2   105  THR105     -0.2717
     92  CB        -8.4580   15.3840   14.6320 C.3   105  THR105      0.1784
     93  OG1       -8.7110   14.7500   13.3690 O.3   105  THR105     -0.2211
     94  CG2       -7.1090   16.0950   14.5620 C.3   105  THR105      0.0376
     95  N         -6.7950   12.5580   15.3860 N.am  106  ALA106     -0.1979
     96  CA        -6.3410   11.2190   14.9820 C.3   106  ALA106      0.1597
     97  C         -6.9180   10.0910   15.8550 C.2   106  ALA106      0.2287
     98  O         -7.0140    8.9490   15.4050 O.2   106  ALA106     -0.2864
     99  CB        -4.8310   11.1530   14.9960 C.3   106  ALA106      0.0319
    100  N        -10.3970    9.1710   14.3540 N.3   109  GLN109     -0.1231
    101  CA       -10.2790    8.2870   13.1900 C.3   109  GLN109      0.1698
    102  C        -10.4260    6.8430   13.6360 C.2   109  GLN109      0.2592
    103  O        -11.3070    6.1140   13.1640 O.2   109  GLN109     -0.2718
    104  CB        -8.9310    8.4790   12.4640 C.3   109  GLN109      0.0381
    105  CG        -8.6880    9.8850   11.9310 C.3   109  GLN109      0.0905
    106  CD        -7.6230    9.9460   10.8380 C.2   109  GLN109      0.2608
    107  OE1       -7.5130    9.0360   10.0160 O.2   109  GLN109     -0.2717
    108  NE2       -6.8480   11.0320   10.8090 N.am  109  GLN109     -0.0878
    109  N         -9.5710    6.4500   14.5690 N.am  110  LEU110     -0.1980
    110  CA        -9.6590    5.1330   15.2180 C.3   110  LEU110      0.1596
    111  C        -11.0430    4.7360   15.7820 C.2   110  LEU110      0.2287
    112  O        -11.6580    3.7690   15.3090 O.2   110  LEU110     -0.2864
    113  CB        -8.6230    5.0680   16.3400 C.3   110  LEU110      0.0297
    114  CG        -7.3480    4.2880   16.0250 C.3   110  LEU110      0.0022
    115  CD1       -6.1060    5.1320   16.2870 C.3   110  LEU110      0.0001
    116  CD2       -7.3590    2.9830   16.8330 C.3   110  LEU110      0.0001
    117  N         -4.8090    0.6020   13.3860 N.3   124  VAL124     -0.1245
    118  CA        -3.5290    1.2910   13.2670 C.3   124  VAL124      0.1561
    119  C         -2.9380    0.9470   11.9210 C.2   124  VAL124      0.2260
    120  O         -2.4900    1.8440   11.1950 O.2   124  VAL124     -0.2867
    121  CB        -2.4940    0.8770   14.3380 C.3   124  VAL124      0.0252
    122  CG1       -1.2840    1.8030   14.2580 C.3   124  VAL124      0.0019
    123  CG2       -3.0940    0.8720   15.7370 C.3   124  VAL124      0.0019
    124  N         -4.3640    2.6900    8.8480 N.3   127  LEU127     -0.1231
    125  CA        -4.0740    4.0960    8.7040 C.3   127  LEU127      0.1693
    126  C         -2.6370    4.2020    8.2720 C.2   127  LEU127      0.2591
    127  O         -2.3150    4.8840    7.3090 O.2   127  LEU127     -0.2718
    128  CB        -4.3540    4.8500   10.0020 C.3   127  LEU127      0.0284
    129  CG        -5.8550    4.8390   10.4150 C.3   127  LEU127      0.0019
    130  CD1       -6.1360    5.7280   11.6160 C.3   127  LEU127      0.0001
    131  CD2       -6.7920    5.2400    9.2790 C.3   127  LEU127      0.0001
    132  N         -1.7710    3.4750    8.9480 N.am  128  MET128     -0.1979
    133  CA        -0.3730    3.5380    8.5920 C.3   128  MET128      0.1605
    134  C         -0.1790    3.1290    7.1290 C.2   128  MET128      0.2287
    135  O          0.4220    3.8440    6.3450 O.2   128  MET128     -0.2864
    136  CB         0.4770    2.6670    9.5400 C.3   128  MET128      0.0413
    137  CG         1.6270    3.4490   10.1730 C.3   128  MET128      0.0598
    138  SD         1.1010    4.7570   11.3300 S.3   128  MET128     -0.1393
    139  CE         1.0440    3.7620   12.8340 C.3   128  MET128      0.0692
    140  N         -2.0960    2.9310    4.4820 N.3   130  ILE130     -0.1231
    141  CA        -2.6250    3.9170    3.5600 C.3   130  ILE130      0.1692
    142  C         -1.6770    5.0890    3.5480 C.2   130  ILE130      0.2593
    143  O         -1.2900    5.5820    2.4870 O.2   130  ILE130     -0.2718
    144  CB        -4.0540    4.3640    3.9680 C.3   130  ILE130      0.0266
    145  CG1       -5.0560    3.2590    3.6480 C.3   130  ILE130      0.0019
    146  CG2       -4.4930    5.6440    3.2500 C.3   130  ILE130      0.0020
    147  CD1       -6.4320    3.5390    4.1590 C.3   130  ILE130      0.0001
    148  N         -1.2870    5.5170    4.7370 N.am  131  SER131     -0.1938
    149  CA        -0.3110    6.5750    4.9030 C.3   131  SER131      0.2055
    150  C          1.0420    6.3040    4.1700 C.2   131  SER131      0.2643
    151  O          1.5490    7.1290    3.3830 O.2   131  SER131     -0.2714
    152  CB        -0.1270    6.7910    6.3900 C.3   131  SER131      0.2130
    153  OG         0.8690    7.7310    6.6230 O.3   131  SER131     -0.2179
    154  N          1.6020    5.1290    4.3920 N.am  132  TYR132     -0.1973
    155  CA         2.8540    4.7450    3.7450 C.3   132  TYR132      0.1639
    156  C          2.7390    4.6570    2.2420 C.2   132  TYR132      0.2290
    157  O          3.6440    5.1090    1.5270 O.2   132  TYR132     -0.2864
    158  CB         3.3580    3.4570    4.3360 C.3   132  TYR132      0.0560
    159  CG         3.8460    3.6610    5.7350 C.ar  132  TYR132     -0.0198
    160  CD1        4.0650    4.9490    6.2490 C.ar  132  TYR132     -0.0009
    161  CD2        4.1350    2.5860    6.5340 C.ar  132  TYR132     -0.0009
    162  CE1        4.5490    5.1440    7.5230 C.ar  132  TYR132      0.0417
    163  CE2        4.6210    2.7630    7.8160 C.ar  132  TYR132      0.0417
    164  CZ         4.8150    4.0400    8.3100 C.ar  132  TYR132      0.1957
    165  OH         5.3090    4.2030    9.5940 O.3   132  TYR132     -0.2866
@<TRIPOS>BOND
     1    36    35    2
     2    35    34    1
     3   157   156    2
     4    33    34    1
     5   156   155    1
     6    34    37    1
     7   143   142    2
     8    25    26    1
     9    27    28    2
    10    27    26    1
    11    37    38    1
    12   146   144    1
    13   151   150    2
    14    40    38   ar
    15    40    42   ar
    16   142   141    1
    17   142   148   am
    18   141   144    1
    19   141   140    1
    20    38    39   ar
    21   145   144    1
    22   145   147    1
    23    26    29    1
    24   155   158    1
    25   155   154    1
    26     9    10    1
    27    42    43   ar
    28    10    11    1
    29    10    13    1
    30   150   154   am
    31   150   149    1
    32    39    41   ar
    33   158   159    1
    34    11    12    2
    35    43    41   ar
    36    44    45    1
    37   148   149    1
    38    15    17   ar
    39    15    14   ar
    40    29    30    1
    41   149   152    1
    42    48    45    1
    43    48    49    1
    44    13    14    1
    45    17    18   ar
    46     8     6    1
    47    14    16   ar
    48     1     2    1
    49    45    46    1
    50    30    31    2
    51    30    32   am
    52   159   160   ar
    53   159   161   ar
    54    49    51   ar
    55    49    50   ar
    56     2     3    1
    57     2     5    1
    58    51    53   ar
    59   160   162   ar
    60     4     3    2
    61    46    47    2
    62    19    20    1
    63   135   134    2
    64   152   153    1
    65    18    16   ar
    66   161   163   ar
    67    50    52   ar
    68     6     5    1
    69     6     7    1
    70   134   133    1
    71    53    52   ar
    72   127   126    2
    73   162   164   ar
    74    20    23    1
    75    20    21    1
    76   163   164   ar
    77    23    24    1
    78   126   125    1
    79   126   132   am
    80   164   165    1
    81   133   132    1
    82   133   136    1
    83    21    22    2
    84   125   124    1
    85   125   128    1
    86   131   129    1
    87    59    58    1
    88   136   137    1
    89    60    58    1
    90   128   129    1
    91   107   106    2
    92    54    55    1
    93   137   138    1
    94    58    55    1
    95   129   130    1
    96   108   106   am
    97   106   105    1
    98    55    56    1
    99   120   119    2
   100    57    56    2
   101   138   139    1
   102    56    61   am
   103    86    85    2
   104   119   118    1
   105   105   104    1
   106    87    85   am
   107   104   101    1
   108    85    84    1
   109    61    62    1
   110   103   102    2
   111   101   102    1
   112   101   100    1
   113    68    67    1
   114    68    69    2
   115   118   117    1
   116   118   121    1
   117    93    92    1
   118    71    69    1
   119    67    66    1
   120   102   109   am
   121    62    63    1
   122    62    65    1
   123    78    72    1
   124    78    77    1
   125    69    70    1
   126    84    83    1
   127    76    73    1
   128    76    77    1
   129    72    63   am
   130    72    73    1
   131    63    64    2
   132    73    74    1
   133   122   121    1
   134   121   123    1
   135    83    80    1
   136    94    92    1
   137   109   110    1
   138    91    90    2
   139    92    89    1
   140    66    65    1
   141    96    99    1
   142    96    95    1
   143    96    97    1
   144    90    95   am
   145    90    89    1
   146   110   111    1
   147   110   113    1
   148    80    81    1
   149    80    79    1
   150   112   111    2
   151    82    81    2
   152    98    97    2
   153    74    75    2
   154    89    88    1
   155   114   115    1
   156   114   113    1
   157   114   116    1
