@<TRIPOS>MOLECULE
tmp/5mrwI02.pdb
 92 86 0 0 0
SMALL
GASTEIGER

@<TRIPOS>ATOM
      1  N        128.4600  -28.0910 -108.3580 N.3    59  TRP59      -0.1227
      2  CA       128.9790  -28.1090 -106.9950 C.3    59  TRP59       0.1737
      3  C        130.2830  -27.3300 -106.8790 C.2    59  TRP59       0.2595
      4  O        130.5390  -26.7080 -105.8410 O.2    59  TRP59      -0.2718
      5  CB       129.1700  -29.5480 -106.5100 C.3    59  TRP59       0.0564
      6  CG       130.4540  -30.1910 -106.9400 C.ar   59  TRP59       0.0003
      7  CD1      130.6590  -30.9490 -108.0530 C.ar   59  TRP59       0.0946
      8  CD2      131.7100  -30.1410 -106.2510 C.ar   59  TRP59       0.0152
      9  NE1      131.9660  -31.3700 -108.1050 N.ar   59  TRP59      -0.2442
     10  CE2      132.6320  -30.8880 -107.0090 C.ar   59  TRP59       0.0810
     11  CE3      132.1450  -29.5330 -105.0680 C.ar   59  TRP59       0.0012
     12  CZ2      133.9630  -31.0420 -106.6250 C.ar   59  TRP59       0.0191
     13  CZ3      133.4660  -29.6900 -104.6880 C.ar   59  TRP59       0.0001
     14  CH2      134.3590  -30.4380 -105.4640 C.ar   59  TRP59       0.0015
     15  N        131.1150  -27.3470 -107.9230 N.am   60  LYS60      -0.1980
     16  CA       132.3380  -26.5530 -107.8940 C.3    60  LYS60       0.1596
     17  C        132.0220  -25.0630 -107.9170 C.2    60  LYS60       0.2287
     18  O        132.6910  -24.2690 -107.2450 O.2    60  LYS60      -0.2864
     19  CB       133.2430  -26.9340 -109.0650 C.3    60  LYS60       0.0298
     20  CG       133.6630  -28.3940 -109.0730 C.3    60  LYS60       0.0038
     21  CD       134.3860  -28.7630 -110.3590 C.3    60  LYS60       0.0206
     22  CE       135.7300  -28.0620 -110.4680 C.3    60  LYS60       0.1093
     23  NZ       136.4600  -28.4620 -111.7040 N.3    60  LYS60      -0.1314
     24  N        123.3550  -32.1990 -112.7180 N.3   161  SER161     -0.1217
     25  CA       124.6810  -31.7100 -112.3630 C.3   161  SER161      0.1889
     26  C        124.6400  -30.3270 -111.7240 C.2   161  SER161      0.2288
     27  O        125.7050  -29.7450 -111.4790 O.2   161  SER161     -0.2866
     28  CB       125.5980  -31.6820 -113.5930 C.3   161  SER161      0.2089
     29  OG       125.1130  -30.7800 -114.5730 O.3   161  SER161     -0.2183
     30  N        134.0550  -43.3330 -103.5500 N.3   412  ARG412     -0.1245
     31  CA       134.5600  -41.9630 -103.5920 C.3   412  ARG412      0.1563
     32  C        133.7870  -41.0560 -102.6430 C.2   412  ARG412      0.2260
     33  O        134.3710  -40.1720 -102.0040 O.2   412  ARG412     -0.2867
     34  CB       134.4970  -41.4220 -105.0200 C.3   412  ARG412      0.0307
     35  CG       135.0890  -40.0310 -105.1770 C.3   412  ARG412      0.0489
     36  CD       135.0590  -39.5670 -106.6230 C.3   412  ARG412      0.2205
     37  NE       135.7030  -38.2670 -106.7870 N.pl3 412  ARG412     -0.0865
     38  CZ       135.9380  -37.6920 -107.9620 C.cat 412  ARG412      0.5346
     39  NH1      135.5810  -38.3010 -109.0840 N.pl3 412  ARG412      0.1354
     40  NH2      136.5320  -36.5070 -108.0140 N.pl3 412  ARG412      0.1354
     41  N        135.0560  -38.9160  -98.7820 N.3   416  LEU416     -0.1245
     42  CA       134.7750  -37.5390  -98.4010 C.3   416  LEU416      0.1561
     43  C        134.0570  -37.4750  -97.0590 C.2   416  LEU416      0.2260
     44  O        134.3480  -36.5960  -96.2400 O.2   416  LEU416     -0.2867
     45  CB       133.9480  -36.8580  -99.4900 C.3   416  LEU416      0.0270
     46  CG       134.4670  -37.0770 -100.9120 C.3   416  LEU416      0.0019
     47  CD1      133.5890  -36.3630 -101.9260 C.3   416  LEU416      0.0001
     48  CD2      135.9170  -36.6290 -101.0310 C.3   416  LEU416      0.0001
     49  N        136.7680  -38.3940  -94.3300 N.3   419  LEU419     -0.1245
     50  CA       137.6410  -37.2580  -94.0550 C.3   419  LEU419      0.1561
     51  C        136.8960  -36.1520  -93.3200 C.2   419  LEU419      0.2260
     52  O        137.4340  -35.5490  -92.3850 O.2   419  LEU419     -0.2867
     53  CB       138.2420  -36.7260  -95.3560 C.3   419  LEU419      0.0270
     54  CG       139.3280  -37.5750  -96.0210 C.3   419  LEU419      0.0019
     55  CD1      139.8550  -36.8800  -97.2670 C.3   419  LEU419      0.0001
     56  CD2      140.4620  -37.8730  -95.0530 C.3   419  LEU419      0.0001
     57  N        133.6710  -27.9430  -97.6140 N.3   498  ILE498     -0.1231
     58  CA       134.2320  -28.3150  -98.9150 C.3   498  ILE498      0.1678
     59  C        133.9420  -29.7680  -99.2780 C.2   498  ILE498      0.2434
     60  O        133.4280  -30.0130 -100.3820 O.2   498  ILE498     -0.2733
     61  CB       135.7320  -27.9760  -98.9600 C.3   498  ILE498      0.0265
     62  CG1      135.9230  -26.4590  -99.0060 C.3   498  ILE498      0.0019
     63  CG2      136.3990  -28.6640 -100.1490 C.3   498  ILE498      0.0020
     64  CD1      137.3530  -26.0230  -98.8320 C.3   498  ILE498      0.0001
     65  N        134.2350  -30.7630  -98.4320 N.am  499  PRO499     -0.2729
     66  CA       133.8980  -32.1410  -98.8170 C.3   499  PRO499      0.1401
     67  C        132.4060  -32.4080  -98.8360 C.2   499  PRO499      0.2269
     68  O        131.9600  -33.2830  -99.5880 O.2   499  PRO499     -0.2865
     69  CB       134.6080  -32.9850  -97.7510 C.3   499  PRO499      0.0296
     70  CG       134.6700  -32.0970  -96.5670 C.3   499  PRO499      0.0237
     71  CD       134.8990  -30.7200  -97.1180 C.3   499  PRO499      0.0939
     72  N        131.3000  -31.5120 -102.2630 N.3   502  ALA502     -0.1245
     73  CA       131.7160  -32.5630 -103.1850 C.3   502  ALA502      0.1562
     74  C        130.8510  -33.8080 -103.0380 C.2   502  ALA502      0.2260
     75  O        130.5960  -34.5060 -104.0260 O.2   502  ALA502     -0.2867
     76  CB       133.1890  -32.9040 -102.9640 C.3   502  ALA502      0.0290
     77  N        127.6260  -32.7280 -104.9700 N.3   505  GLY505     -0.1210
     78  CA       127.8190  -32.8130 -106.4070 C.3   505  GLY505      0.1956
     79  C        127.9840  -34.2270 -106.9190 C.2   505  GLY505      0.2612
     80  O        127.7230  -34.4870 -108.0980 O.2   505  GLY505     -0.2717
     81  N        128.4100  -35.1510 -106.0580 N.am  506  SER506     -0.1952
     82  CA       128.5480  -36.5440 -106.4550 C.3   506  SER506      0.1924
     83  C        127.2220  -37.2900 -106.4200 C.2   506  SER506      0.2314
     84  O        127.0670  -38.2900 -107.1300 O.2   506  SER506     -0.2863
     85  CB       129.5650  -37.2420 -105.5460 C.3   506  SER506      0.2116
     86  OG       129.7670  -38.5900 -105.9280 O.3   506  SER506     -0.2180
     87  N        124.4270  -36.6100 -109.7980 N.3   509  SER509     -0.1217
     88  CA       124.6360  -37.3960 -111.0100 C.3   509  SER509      0.1889
     89  C        124.1160  -38.8220 -110.8940 C.2   509  SER509      0.2288
     90  O        124.1730  -39.5620 -111.8830 O.2   509  SER509     -0.2866
     91  CB       126.1220  -37.4180 -111.3730 C.3   509  SER509      0.2089
     92  OG       126.8750  -38.1210 -110.4020 O.3   509  SER509     -0.2183
@<TRIPOS>BOND
     1    29    28    1
     2    28    25    1
     3    24    25    1
     4    25    26    1
     5    90    89    2
     6    26    27    2
     7    23    22    1
     8    91    88    1
     9    91    92    1
    10    88    89    1
    11    88    87    1
    12    22    21    1
    13    21    20    1
    14    39    38    1
    15    20    19    1
    16    19    16    1
    17     1     2    1
    18     9     7   ar
    19     9    10   ar
    20    80    79    2
    21     7     6   ar
    22    40    38    1
    23    38    37    2
    24    15    16    1
    25    15     3   am
    26    17    16    1
    27    17    18    2
    28    84    83    2
    29    10    12   ar
    30    10     8   ar
    31     2     3    1
    32     2     5    1
    33     6     5    1
    34     6     8   ar
    35    79    78    1
    36    79    81   am
    37     3     4    2
    38    37    36    1
    39    12    14   ar
    40    36    35    1
    41    82    83    1
    42    82    81    1
    43    82    85    1
    44    78    77    1
    45     8    11   ar
    46    86    85    1
    47    14    13   ar
    48    35    34    1
    49    11    13   ar
    50    34    31    1
    51    75    74    2
    52    31    30    1
    53    31    32    1
    54    73    74    1
    55    73    76    1
    56    73    72    1
    57    32    33    2
    58    47    46    1
    59    48    46    1
    60    46    45    1
    61    60    59    2
    62    63    61    1
    63    68    67    2
    64    45    42    1
    65    59    58    1
    66    59    65   am
    67    62    61    1
    68    62    64    1
    69    61    58    1
    70    58    57    1
    71    67    66    1
    72    66    65    1
    73    66    69    1
    74    41    42    1
    75    65    71    1
    76    42    43    1
    77    69    70    1
    78    55    54    1
    79    71    70    1
    80    43    44    2
    81    54    53    1
    82    54    56    1
    83    53    50    1
    84    49    50    1
    85    50    51    1
    86    51    52    2
