@<TRIPOS>MOLECULE
tmp/5mrwI00.pdb
 105 101 0 0 0
SMALL
GASTEIGER

@<TRIPOS>ATOM
      1  N        136.7680  -38.3940  -94.3300 N.3   419  LEU419     -0.1245
      2  CA       137.6410  -37.2580  -94.0550 C.3   419  LEU419      0.1561
      3  C        136.8960  -36.1520  -93.3200 C.2   419  LEU419      0.2260
      4  O        137.4340  -35.5490  -92.3850 O.2   419  LEU419     -0.2867
      5  CB       138.2420  -36.7260  -95.3560 C.3   419  LEU419      0.0270
      6  CG       139.3280  -37.5750  -96.0210 C.3   419  LEU419      0.0019
      7  CD1      139.8550  -36.8800  -97.2670 C.3   419  LEU419      0.0001
      8  CD2      140.4620  -37.8730  -95.0530 C.3   419  LEU419      0.0001
      9  N        136.5540  -36.9130  -89.6990 N.3   422  LEU422     -0.1231
     10  CA       137.8250  -36.8030  -88.9940 C.3   422  LEU422      0.1693
     11  C        138.3230  -35.3680  -88.8550 C.2   422  LEU422      0.2591
     12  O        139.3430  -35.1550  -88.1930 O.2   422  LEU422     -0.2718
     13  CB       138.8940  -37.6360  -89.7070 C.3   422  LEU422      0.0284
     14  CG       138.6520  -39.1420  -89.8150 C.3   422  LEU422      0.0019
     15  CD1      139.7990  -39.8200  -90.5500 C.3   422  LEU422      0.0001
     16  CD2      138.4590  -39.7520  -88.4390 C.3   422  LEU422      0.0001
     17  N        137.6410  -34.3870  -89.4510 N.am  423  VAL423     -0.1980
     18  CA       138.1500  -33.0150  -89.4480 C.3   423  VAL423      0.1595
     19  C        138.1790  -32.4530  -88.0300 C.2   423  VAL423      0.2287
     20  O        139.2400  -32.0920  -87.5090 O.2   423  VAL423     -0.2864
     21  CB       137.3170  -32.1220  -90.3850 C.3   423  VAL423      0.0276
     22  CG1      137.6590  -30.6580  -90.1580 C.3   423  VAL423      0.0022
     23  CG2      137.5690  -32.4930  -91.8330 C.3   423  VAL423      0.0022
     24  N        140.3220  -34.2070  -85.2790 N.3   426  THR426     -0.1203
     25  CA       141.7480  -33.9960  -85.5000 C.3   426  THR426      0.1994
     26  C        142.1900  -32.6320  -84.9830 C.2   426  THR426      0.2617
     27  O        143.2820  -32.4990  -84.4180 O.2   426  THR426     -0.2717
     28  CB       142.0750  -34.1400  -86.9880 C.3   426  THR426      0.1784
     29  OG1      141.7440  -35.4650  -87.4230 O.3   426  THR426     -0.2211
     30  CG2      143.5510  -33.8780  -87.2500 C.3   426  THR426      0.0376
     31  N        141.3480  -31.6110  -85.1520 N.am  427  LEU427     -0.1979
     32  CA       141.7340  -30.2610  -84.7550 C.3   427  LEU427      0.1596
     33  C        141.7200  -30.0810  -83.2430 C.2   427  LEU427      0.2287
     34  O        142.5220  -29.3070  -82.7070 O.2   427  LEU427     -0.2864
     35  CB       140.8110  -29.2400  -85.4190 C.3   427  LEU427      0.0297
     36  CG       141.0100  -29.0530  -86.9230 C.3   427  LEU427      0.0022
     37  CD1      140.0280  -28.0300  -87.4660 C.3   427  LEU427      0.0001
     38  CD2      142.4420  -28.6370  -87.2230 C.3   427  LEU427      0.0001
     39  N        144.8930  -32.3050  -81.7410 N.3   430  MET430     -0.1245
     40  CA       146.1300  -31.6090  -82.0730 C.3   430  MET430      0.1570
     41  C        146.1700  -30.2280  -81.4300 C.2   430  MET430      0.2261
     42  O        147.2200  -29.7940  -80.9430 O.2   430  MET430     -0.2867
     43  CB       146.2800  -31.4950  -83.5910 C.3   430  MET430      0.0387
     44  CG       146.4760  -32.8220  -84.3070 C.3   430  MET430      0.0595
     45  SD       148.0020  -33.6510  -83.8290 S.3   430  MET430     -0.1393
     46  CE       149.1910  -32.3420  -84.1070 C.3   430  MET430      0.0692
     47  N        142.6990  -20.9140  -86.2890 N.3   487  PHE487     -0.1241
     48  CA       143.0010  -21.9790  -87.2390 C.3   487  PHE487      0.1605
     49  C        141.9980  -23.1200  -87.1250 C.2   487  PHE487      0.2264
     50  O        141.5490  -23.6660  -88.1400 O.2   487  PHE487     -0.2867
     51  CB       144.4250  -22.4900  -87.0160 C.3   487  PHE487      0.0534
     52  CG       144.7950  -23.6580  -87.8840 C.ar  487  PHE487     -0.0203
     53  CD1      145.2520  -23.4620  -89.1750 C.ar  487  PHE487     -0.0042
     54  CD2      144.6910  -24.9550  -87.4040 C.ar  487  PHE487     -0.0042
     55  CE1      145.5940  -24.5360  -89.9740 C.ar  487  PHE487     -0.0003
     56  CE2      145.0300  -26.0320  -88.1980 C.ar  487  PHE487     -0.0003
     57  CZ       145.4830  -25.8230  -89.4850 C.ar  487  PHE487     -0.0000
     58  N        138.5510  -21.8900  -88.6600 N.3   490  PHE490     -0.1227
     59  CA       138.5630  -21.8220  -90.1170 C.3   490  PHE490      0.1736
     60  C        138.5620  -23.2190  -90.7270 C.2   490  PHE490      0.2595
     61  O        137.7090  -23.5460  -91.5610 O.2   490  PHE490     -0.2718
     62  CB       139.7790  -21.0230  -90.5870 C.3   490  PHE490      0.0547
     63  CG       139.7430  -20.6570  -92.0420 C.ar  490  PHE490     -0.0202
     64  CD1      139.1400  -19.4810  -92.4580 C.ar  490  PHE490     -0.0042
     65  CD2      140.3210  -21.4800  -92.9940 C.ar  490  PHE490     -0.0042
     66  CE1      139.1080  -19.1360  -93.7950 C.ar  490  PHE490     -0.0003
     67  CE2      140.2920  -21.1420  -94.3320 C.ar  490  PHE490     -0.0003
     68  CZ       139.6840  -19.9680  -94.7330 C.ar  490  PHE490     -0.0000
     69  N        139.5170  -24.0590  -90.3200 N.am  491  VAL491     -0.1980
     70  CA       139.6020  -25.4100  -90.8660 C.3   491  VAL491      0.1595
     71  C        138.4180  -26.2580  -90.4160 C.2   491  VAL491      0.2287
     72  O        137.9370  -27.1120  -91.1690 O.2   491  VAL491     -0.2864
     73  CB       140.9450  -26.0520  -90.4710 C.3   491  VAL491      0.0276
     74  CG1      141.0630  -27.4550  -91.0490 C.3   491  VAL491      0.0022
     75  CG2      142.1020  -25.1820  -90.9390 C.3   491  VAL491      0.0022
     76  N        135.1570  -24.5300  -92.9560 N.3   494  PHE494     -0.1227
     77  CA       135.2640  -24.6880  -94.4000 C.3   494  PHE494      0.1736
     78  C        135.8830  -26.0260  -94.7740 C.2   494  PHE494      0.2596
     79  O        135.6310  -26.5390  -95.8690 O.2   494  PHE494     -0.2718
     80  CB       136.0670  -23.5280  -94.9810 C.3   494  PHE494      0.0547
     81  CG       135.4930  -22.1870  -94.6480 C.ar  494  PHE494     -0.0202
     82  CD1      134.1250  -21.9790  -94.7100 C.ar  494  PHE494     -0.0042
     83  CD2      136.3080  -21.1470  -94.2420 C.ar  494  PHE494     -0.0042
     84  CE1      133.5810  -20.7520  -94.3940 C.ar  494  PHE494     -0.0003
     85  CE2      135.7710  -19.9160  -93.9230 C.ar  494  PHE494     -0.0003
     86  CZ       134.4050  -19.7180  -94.0000 C.ar  494  PHE494     -0.0000
     87  N        136.6900  -26.6050  -93.8880 N.am  495  GLY495     -0.1957
     88  CA       137.2000  -27.9410  -94.1250 C.3   495  GLY495      0.1869
     89  C        136.1490  -29.0310  -94.0920 C.2   495  GLY495      0.2309
     90  O        136.4550  -30.1690  -94.4600 O.2   495  GLY495     -0.2863
     91  N        133.6710  -27.9430  -97.6140 N.3   498  ILE498     -0.1231
     92  CA       134.2320  -28.3150  -98.9150 C.3   498  ILE498      0.1678
     93  C        133.9420  -29.7680  -99.2780 C.2   498  ILE498      0.2434
     94  O        133.4280  -30.0130 -100.3820 O.2   498  ILE498     -0.2733
     95  CB       135.7320  -27.9760  -98.9600 C.3   498  ILE498      0.0265
     96  CG1      135.9230  -26.4590  -99.0060 C.3   498  ILE498      0.0019
     97  CG2      136.3990  -28.6640 -100.1490 C.3   498  ILE498      0.0020
     98  CD1      137.3530  -26.0230  -98.8320 C.3   498  ILE498      0.0001
     99  N        134.2350  -30.7630  -98.4320 N.am  499  PRO499     -0.2729
    100  CA       133.8980  -32.1410  -98.8170 C.3   499  PRO499      0.1401
    101  C        132.4060  -32.4080  -98.8360 C.2   499  PRO499      0.2269
    102  O        131.9600  -33.2830  -99.5880 O.2   499  PRO499     -0.2865
    103  CB       134.6080  -32.9850  -97.7510 C.3   499  PRO499      0.0296
    104  CG       134.6700  -32.0970  -96.5670 C.3   499  PRO499      0.0237
    105  CD       134.8990  -30.7200  -97.1180 C.3   499  PRO499      0.0939
@<TRIPOS>BOND
     1    94    93    2
     2    97    95    1
     3   102   101    2
     4    93    92    1
     5    93    99   am
     6    96    95    1
     7    96    98    1
     8    95    92    1
     9    92    91    1
    10   101   100    1
    11   100    99    1
    12   100   103    1
    13    99   105    1
    14   103   104    1
    15     7     6    1
    16   105   104    1
    17     6     5    1
    18     6     8    1
    19    79    78    2
    20     5     2    1
    21    80    81    1
    22    80    77    1
    23    78    77    1
    24    78    87   am
    25    68    67   ar
    26    68    66   ar
    27    82    81   ar
    28    82    84   ar
    29    81    83   ar
    30    90    89    2
    31    77    76    1
    32    84    86   ar
    33    67    65   ar
    34     1     2    1
    35    83    85   ar
    36    88    89    1
    37    88    87    1
    38     2     3    1
    39    86    85   ar
    40    66    64   ar
    41     3     4    2
    42    65    63   ar
    43    64    63   ar
    44    63    62    1
    45    23    21    1
    46    61    60    2
    47    72    71    2
    48    74    73    1
    49    75    73    1
    50    70    73    1
    51    70    71    1
    52    70    69    1
    53    60    69   am
    54    60    59    1
    55    62    59    1
    56    15    14    1
    57    21    22    1
    58    21    18    1
    59    59    58    1
    60    55    57   ar
    61    55    53   ar
    62    14    13    1
    63    14    16    1
    64    13    10    1
    65     9    10    1
    66    57    56   ar
    67    17    18    1
    68    17    11   am
    69    18    19    1
    70    53    52   ar
    71    10    11    1
    72    11    12    2
    73    56    54   ar
    74    50    49    2
    75    19    20    2
    76    52    54   ar
    77    52    51    1
    78    37    36    1
    79    29    28    1
    80    30    28    1
    81    48    49    1
    82    48    51    1
    83    48    47    1
    84    38    36    1
    85    28    25    1
    86    36    35    1
    87    25    24    1
    88    25    26    1
    89    35    32    1
    90    31    26   am
    91    31    32    1
    92    26    27    2
    93    32    33    1
    94    44    45    1
    95    44    43    1
    96    46    45    1
    97    43    40    1
    98    33    34    2
    99    40    39    1
   100    40    41    1
   101    41    42    2
