@<TRIPOS>MOLECULE
tmp/5mrwI01.pdb
 114 105 0 0 0
SMALL
GASTEIGER

@<TRIPOS>ATOM
      1  N        118.4180  -38.3150  -77.7210 N.3   290  ILE290     -0.1245
      2  CA       119.6940  -38.0660  -77.0580 C.3   290  ILE290      0.1561
      3  C        119.6740  -36.7130  -76.3550 C.2   290  ILE290      0.2260
      4  O        120.2900  -36.5460  -75.2950 O.2   290  ILE290     -0.2867
      5  CB       120.8570  -38.1840  -78.0640 C.3   290  ILE290      0.0252
      6  CG1      122.1880  -37.8100  -77.4080 C.3   290  ILE290      0.0019
      7  CG2      120.6080  -37.3290  -79.2840 C.3   290  ILE290      0.0019
      8  CD1      123.3710  -37.8880  -78.3480 C.3   290  ILE290      0.0001
      9  N        117.8430  -37.0410  -72.9130 N.3   293  ILE293     -0.1231
     10  CA       118.6380  -37.7550  -71.9210 C.3   293  ILE293      0.1692
     11  C        119.7680  -36.8720  -71.4010 C.2   293  ILE293      0.2592
     12  O        120.0780  -36.8800  -70.2030 O.2   293  ILE293     -0.2718
     13  CB       119.1670  -39.0740  -72.5130 C.3   293  ILE293      0.0266
     14  CG1      118.0100  -40.0410  -72.7640 C.3   293  ILE293      0.0019
     15  CG2      120.1750  -39.7140  -71.5780 C.3   293  ILE293      0.0020
     16  CD1      118.4540  -41.4190  -73.2050 C.3   293  ILE293      0.0001
     17  N        120.3850  -36.0790  -72.2810 N.am  294  CYS294     -0.1970
     18  CA       121.5110  -35.2480  -71.8640 C.3   294  CYS294      0.1712
     19  C        121.0770  -34.1390  -70.9120 C.2   294  CYS294      0.2296
     20  O        121.7990  -33.8190  -69.9600 O.2   294  CYS294     -0.2864
     21  CB       122.2130  -34.6570  -73.0860 C.3   294  CYS294      0.0983
     22  SG       123.3830  -35.7810  -73.8750 S.3   294  CYS294     -0.0798
     23  N        120.5170  -35.4120  -67.4010 N.3   297  VAL297     -0.1245
     24  CA       121.7460  -35.6820  -66.6620 C.3   297  VAL297      0.1561
     25  C        122.2920  -34.3960  -66.0530 C.2   297  VAL297      0.2260
     26  O        122.6510  -34.3530  -64.8700 O.2   297  VAL297     -0.2867
     27  CB       122.7820  -36.3620  -67.5750 C.3   297  VAL297      0.0252
     28  CG1      124.1380  -36.4170  -66.8920 C.3   297  VAL297      0.0019
     29  CG2      122.3170  -37.7580  -67.9590 C.3   297  VAL297      0.0019
     30  N        130.5790  -31.9020  -68.1800 N.3   360  MET360     -0.1230
     31  CA       131.0930  -32.8580  -69.1540 C.3   360  MET360      0.1702
     32  C        130.1160  -33.0670  -70.3050 C.2   360  MET360      0.2592
     33  O        130.5370  -33.2350  -71.4550 O.2   360  MET360     -0.2718
     34  CB       131.3950  -34.1970  -68.4780 C.3   360  MET360      0.0401
     35  CG       131.9280  -35.2550  -69.4360 C.3   360  MET360      0.0596
     36  SD       132.1440  -36.8790  -68.6850 S.3   360  MET360     -0.1393
     37  CE       130.4650  -37.2370  -68.1720 C.3   360  MET360      0.0692
     38  N        128.8140  -33.0600  -70.0160 N.am  361  VAL361     -0.1980
     39  CA       127.8220  -33.2400  -71.0760 C.3   361  VAL361      0.1595
     40  C        127.8710  -32.1090  -72.0980 C.2   361  VAL361      0.2287
     41  O        127.8830  -32.4000  -73.3060 O.2   361  VAL361     -0.2864
     42  CB       126.4240  -33.4360  -70.4620 C.3   361  VAL361      0.0276
     43  CG1      125.3620  -33.4720  -71.5520 C.3   361  VAL361      0.0022
     44  CG2      126.3880  -34.7010  -69.6220 C.3   361  VAL361      0.0022
     45  N        130.9110  -32.8060  -74.0000 N.3   364  TRP364     -0.1241
     46  CA       130.7880  -33.9680  -74.8720 C.3   364  TRP364      0.1605
     47  C        129.8930  -33.7000  -76.0750 C.2   364  TRP364      0.2264
     48  O        130.1570  -34.2230  -77.1630 O.2   364  TRP364     -0.2867
     49  CB       130.2660  -35.1560  -74.0600 C.3   364  TRP364      0.0550
     50  CG       129.6590  -36.2630  -74.8610 C.ar  364  TRP364      0.0003
     51  CD1      128.3360  -36.4390  -75.1450 C.ar  364  TRP364      0.0946
     52  CD2      130.3500  -37.3590  -75.4700 C.ar  364  TRP364      0.0152
     53  NE1      128.1600  -37.5750  -75.8970 N.ar  364  TRP364     -0.2442
     54  CE2      129.3810  -38.1580  -76.1100 C.ar  364  TRP364      0.0810
     55  CE3      131.6930  -37.7410  -75.5400 C.ar  364  TRP364      0.0012
     56  CZ2      129.7130  -39.3150  -76.8110 C.ar  364  TRP364      0.0191
     57  CZ3      132.0200  -38.8900  -76.2350 C.ar  364  TRP364      0.0001
     58  CH2      131.0340  -39.6630  -76.8600 C.ar  364  TRP364      0.0015
     59  N        122.1350  -43.4840  -83.6250 N.3   532  ILE532     -0.1231
     60  CA       122.6090  -42.9890  -82.3340 C.3   532  ILE532      0.1692
     61  C        123.9220  -43.6630  -81.9580 C.2   532  ILE532      0.2592
     62  O        124.8970  -43.0000  -81.5840 O.2   532  ILE532     -0.2718
     63  CB       121.5350  -43.2050  -81.2530 C.3   532  ILE532      0.0266
     64  CG1      120.3090  -42.3390  -81.5370 C.3   532  ILE532      0.0019
     65  CG2      122.0930  -42.8940  -79.8770 C.3   532  ILE532      0.0020
     66  CD1      119.1130  -42.7110  -80.6990 C.3   532  ILE532      0.0001
     67  N        123.9660  -44.9930  -82.0580 N.am  533  GLY533     -0.1957
     68  CA       125.1910  -45.7110  -81.7540 C.3   533  GLY533      0.1869
     69  C        126.3530  -45.3030  -82.6350 C.2   533  GLY533      0.2309
     70  O        127.5030  -45.2990  -82.1890 O.2   533  GLY533     -0.2863
     71  N        127.4750  -41.8460  -81.2730 N.3   536  LEU536     -0.1231
     72  CA       128.0180  -41.9470  -79.9220 C.3   536  LEU536      0.1693
     73  C        129.3430  -42.7000  -79.9040 C.2   536  LEU536      0.2591
     74  O        130.2890  -42.2770  -79.2310 O.2   536  LEU536     -0.2718
     75  CB       127.0070  -42.6220  -78.9950 C.3   536  LEU536      0.0284
     76  CG       125.7250  -41.8480  -78.6790 C.3   536  LEU536      0.0019
     77  CD1      124.9030  -42.5790  -77.6270 C.3   536  LEU536      0.0001
     78  CD2      126.0410  -40.4300  -78.2300 C.3   536  LEU536      0.0001
     79  N        129.4320  -43.8150  -80.6330 N.am  537  LEU537     -0.1980
     80  CA       130.6420  -44.6310  -80.5780 C.3   537  LEU537      0.1596
     81  C        131.8290  -43.9160  -81.2110 C.2   537  LEU537      0.2287
     82  O        132.9640  -44.0500  -80.7380 O.2   537  LEU537     -0.2864
     83  CB       130.4060  -45.9770  -81.2610 C.3   537  LEU537      0.0297
     84  CG       131.5360  -46.9990  -81.1260 C.3   537  LEU537      0.0022
     85  CD1      131.6780  -47.4460  -79.6780 C.3   537  LEU537      0.0001
     86  CD2      131.3040  -48.1910  -82.0420 C.3   537  LEU537      0.0001
     87  N        132.9400  -41.4350  -78.7900 N.3   540  ALA540     -0.1245
     88  CA       133.4930  -42.1220  -77.6280 C.3   540  ALA540      0.1562
     89  C        134.9280  -42.5630  -77.8850 C.2   540  ALA540      0.2260
     90  O        135.8430  -42.2080  -77.1340 O.2   540  ALA540     -0.2867
     91  CB       132.6160  -43.3200  -77.2590 C.3   540  ALA540      0.0290
     92  N        137.1240  -40.6110  -75.2150 N.3   544  ILE544     -0.1245
     93  CA       137.1180  -41.3240  -73.9340 C.3   544  ILE544      0.1561
     94  C        138.4310  -41.1590  -73.1790 C.2   544  ILE544      0.2260
     95  O        138.3900  -41.0270  -71.9470 O.2   544  ILE544     -0.2867
     96  CB       136.6980  -42.7880  -74.1380 C.3   544  ILE544      0.0252
     97  CG1      135.7310  -43.2180  -73.0340 C.3   544  ILE544      0.0019
     98  CG2      137.8770  -43.7440  -74.1160 C.3   544  ILE544      0.0019
     99  CD1      134.5070  -42.3470  -72.9140 C.3   544  ILE544      0.0001
    100  N        138.6680  -37.4090  -71.8850 N.3   547  LEU547     -0.1245
    101  CA       137.6950  -37.1500  -70.8310 C.3   547  LEU547      0.1561
    102  C        138.1130  -37.7800  -69.5080 C.2   547  LEU547      0.2260
    103  O        137.7930  -37.2390  -68.4440 O.2   547  LEU547     -0.2867
    104  CB       136.3120  -37.6550  -71.2470 C.3   547  LEU547      0.0270
    105  CG       135.5670  -36.8200  -72.2930 C.3   547  LEU547      0.0019
    106  CD1      134.1800  -37.3890  -72.5460 C.3   547  LEU547      0.0001
    107  CD2      135.4830  -35.3570  -71.8770 C.3   547  LEU547      0.0001
    108  N        136.2360  -36.5890  -65.8840 N.3   552  VAL552     -0.1245
    109  CA       136.0840  -37.8790  -65.2160 C.3   552  VAL552      0.1561
    110  C        137.0250  -37.9740  -64.0220 C.2   552  VAL552      0.2260
    111  O        136.6480  -38.4740  -62.9550 O.2   552  VAL552     -0.2867
    112  CB       136.3110  -39.0300  -66.2120 C.3   552  VAL552      0.0252
    113  CG1      136.2660  -40.3730  -65.4990 C.3   552  VAL552      0.0019
    114  CG2      135.2750  -38.9800  -67.3220 C.3   552  VAL552      0.0019
@<TRIPOS>BOND
     1    59    60    1
     2    69    70    2
     3    69    68    1
     4    60    61    1
     5    60    63    1
     6    67    61   am
     7    67    68    1
     8    86    84    1
     9    61    62    2
    10    64    63    1
    11    64    66    1
    12    71    72    1
    13    83    84    1
    14    83    80    1
    15    63    65    1
    16    81    82    2
    17    81    80    1
    18    84    85    1
    19    79    80    1
    20    79    73   am
    21    72    73    1
    22    72    75    1
    23    73    74    2
    24     7     5    1
    25    75    76    1
    26    87    88    1
    27    76    78    1
    28    76    77    1
    29     8     6    1
    30     5     6    1
    31     5     2    1
    32    89    88    1
    33    89    90    2
    34     1     2    1
    35    88    91    1
    36    48    47    2
    37     2     3    1
    38    58    56   ar
    39    58    57   ar
    40    56    54   ar
    41     3     4    2
    42    57    55   ar
    43    54    53   ar
    44    54    52   ar
    45    47    46    1
    46    53    51   ar
    47    55    52   ar
    48    52    50   ar
    49    92    93    1
    50    51    50   ar
    51    46    49    1
    52    46    45    1
    53    50    49    1
    54    96    98    1
    55    96    93    1
    56    96    97    1
    57    93    94    1
    58    22    21    1
    59    41    40    2
    60    16    14    1
    61    94    95    2
    62    21    18    1
    63    97    99    1
    64     9    10    1
    65    14    13    1
    66   106   105    1
    67    13    10    1
    68    13    15    1
    69   105   107    1
    70   105   104    1
    71    17    18    1
    72    17    11   am
    73    40    39    1
    74    10    11    1
    75   100   101    1
    76    18    19    1
    77    43    42    1
    78    33    32    2
    79    11    12    2
    80   104   101    1
    81    39    42    1
    82    39    38    1
    83    19    20    2
    84   101   102    1
    85    42    44    1
    86    32    38   am
    87    32    31    1
    88   102   103    2
    89    35    36    1
    90    35    34    1
    91    31    34    1
    92    31    30    1
    93    36    37    1
    94    29    27    1
    95    27    28    1
    96    27    24    1
    97    23    24    1
    98   114   112    1
    99    24    25    1
   100   112   113    1
   101   112   109    1
   102    25    26    2
   103   108   109    1
   104   109   110    1
   105   110   111    2
