@<TRIPOS>MOLECULE
tmp/5ms4D00.pdb
 178 174 0 0 0
SMALL
GASTEIGER

@<TRIPOS>ATOM
      1  N         15.2350   36.9020   31.2150 N.3    41  HIS41      -0.1241
      2  CA        16.4550   37.1540   31.9730 C.3    41  HIS41       0.1621
      3  C         17.0920   35.8740   32.4940 C.2    41  HIS41       0.2264
      4  O         18.1990   35.9300   33.0390 O.2    41  HIS41      -0.2867
      5  CB        16.1820   38.1170   33.1300 C.3    41  HIS41       0.0745
      6  CG        15.1020   37.6660   34.0630 C.ar   41  HIS41       0.0817
      7  ND1       13.7690   37.9460   33.8500 N.ar   41  HIS41      -0.2268
      8  CD2       15.1600   36.9840   35.2310 C.ar   41  HIS41       0.1154
      9  CE1       13.0530   37.4460   34.8400 C.ar   41  HIS41       0.1986
     10  NE2       13.8720   36.8550   35.6900 N.ar   41  HIS41      -0.2212
     11  N         12.7990   42.3130   23.9140 N.3    77  TYR77      -0.1241
     12  CA        13.4220   42.2960   25.2300 C.3    77  TYR77       0.1605
     13  C         14.8830   42.7130   25.1340 C.2    77  TYR77       0.2264
     14  O         15.6060   42.2990   24.2230 O.2    77  TYR77      -0.2867
     15  CB        13.3130   40.9030   25.8510 C.3    77  TYR77       0.0534
     16  CG        13.8920   40.7980   27.2450 C.ar   77  TYR77      -0.0201
     17  CD1       13.1350   41.1370   28.3570 C.ar   77  TYR77      -0.0009
     18  CD2       15.1910   40.3530   27.4490 C.ar   77  TYR77      -0.0009
     19  CE1       13.6540   41.0430   29.6310 C.ar   77  TYR77       0.0417
     20  CE2       15.7200   40.2550   28.7220 C.ar   77  TYR77       0.0417
     21  CZ        14.9460   40.6010   29.8080 C.ar   77  TYR77       0.1957
     22  OH        15.4670   40.5060   31.0760 O.3    77  TYR77      -0.2866
     23  N         18.9360   45.8800   30.6930 N.3    81  ASP81      -0.1225
     24  CA        18.1450   46.8960   31.3820 C.3    81  ASP81       0.1805
     25  C         17.5070   46.2550   32.6080 C.2    81  ASP81       0.2597
     26  O         16.4730   45.5830   32.5190 O.2    81  ASP81      -0.2718
     27  CB        17.1110   47.5220   30.4570 C.3    81  ASP81       0.1424
     28  CG        16.9250   49.0160   30.7150 C.2    81  ASP81       0.3668
     29  OD1       17.0350   49.4690   31.8790 O.co2  81  ASP81      -0.2456
     30  OD2       16.6240   49.7370   29.7400 O.co2  81  ASP81      -0.2456
     31  N         18.1490   46.4690   33.7590 N.am   82  VAL82      -0.1980
     32  CA        17.5890   46.0910   35.0460 C.3    82  VAL82       0.1595
     33  C         16.3570   46.9190   35.3680 C.2    82  VAL82       0.2287
     34  O         15.4880   46.4670   36.1210 O.2    82  VAL82      -0.2864
     35  CB        18.6640   46.2550   36.1420 C.3    82  VAL82       0.0276
     36  CG1       18.8930   47.7370   36.4740 C.3    82  VAL82       0.0022
     37  CG2       18.2830   45.4860   37.3820 C.3    82  VAL82       0.0022
     38  N         11.7250   45.6730   32.5840 N.3    85  HIS85      -0.1241
     39  CA        11.7330   44.2470   32.3000 C.3    85  HIS85       0.1621
     40  C         10.5280   43.8610   31.4540 C.2    85  HIS85       0.2264
     41  O          9.8710   42.8470   31.6980 O.2    85  HIS85      -0.2867
     42  CB        11.7570   43.4620   33.6050 C.3    85  HIS85       0.0745
     43  CG        11.4150   44.2930   34.8020 C.ar   85  HIS85       0.0817
     44  ND1       12.3500   44.6630   35.7440 N.ar   85  HIS85      -0.2268
     45  CD2       10.2460   44.8510   35.1940 C.ar   85  HIS85       0.1154
     46  CE1       11.7680   45.3960   36.6750 C.ar   85  HIS85       0.1986
     47  NE2       10.4910   45.5270   36.3640 N.ar   85  HIS85      -0.2212
     48  N          9.3370   40.2800   29.1570 N.3    88  ASP88      -0.1239
     49  CA        10.1410   39.3260   29.9080 C.3    88  ASP88       0.1674
     50  C          9.6490   37.9150   29.6270 C.2    88  ASP88       0.2266
     51  O          8.8500   37.3600   30.3860 O.2    88  ASP88      -0.2867
     52  CB        10.0920   39.6420   31.4030 C.3    88  ASP88       0.1410
     53  CG        11.0450   38.7900   32.2060 C.2    88  ASP88       0.3668
     54  OD1       12.2030   38.6250   31.7670 O.co2  88  ASP88      -0.2456
     55  OD2       10.6410   38.2930   33.2770 O.co2  88  ASP88      -0.2456
     56  N          3.7250   50.0780   41.7780 N.3   156  TYR156     -0.1241
     57  CA         4.9730   50.3500   41.0680 C.3   156  TYR156      0.1605
     58  C          4.6960   51.4230   40.0210 C.2   156  TYR156      0.2264
     59  O          4.4520   51.1080   38.8460 O.2   156  TYR156     -0.2867
     60  CB         5.5380   49.0880   40.4170 C.3   156  TYR156      0.0534
     61  CG         5.5640   47.8680   41.3140 C.ar  156  TYR156     -0.0201
     62  CD1        4.4460   47.0540   41.4430 C.ar  156  TYR156     -0.0009
     63  CD2        6.7100   47.5210   42.0180 C.ar  156  TYR156     -0.0009
     64  CE1        4.4630   45.9370   42.2550 C.ar  156  TYR156      0.0417
     65  CE2        6.7380   46.4020   42.8330 C.ar  156  TYR156      0.0417
     66  CZ         5.6110   45.6150   42.9470 C.ar  156  TYR156      0.1957
     67  OH         5.6310   44.5010   43.7550 O.3   156  TYR156     -0.2866
     68  N          6.4540   51.7180   36.1530 N.3   159  GLN159     -0.1245
     69  CA         7.1300   50.4910   35.7490 C.3   159  GLN159      0.1566
     70  C          6.2190   49.4960   35.0470 C.2   159  GLN159      0.2260
     71  O          6.6830   48.7660   34.1640 O.2   159  GLN159     -0.2867
     72  CB         7.7590   49.8040   36.9660 C.3   159  GLN159      0.0367
     73  CG         8.8880   50.5840   37.6100 C.3   159  GLN159      0.0905
     74  CD         9.6340   49.7710   38.6480 C.2   159  GLN159      0.2608
     75  OE1        9.0630   49.3470   39.6520 O.2   159  GLN159     -0.2717
     76  NE2       10.9200   49.5490   38.4090 N.am  159  GLN159     -0.0878
     77  N          2.7500   35.0750   48.1110 N.3   174  ASP174     -0.1225
     78  CA         3.4920   35.7580   47.0640 C.3   174  ASP174      0.1805
     79  C          4.6480   34.8670   46.6430 C.2   174  ASP174      0.2598
     80  O          5.1440   34.0620   47.4360 O.2   174  ASP174     -0.2718
     81  CB         4.0090   37.1210   47.5480 C.3   174  ASP174      0.1424
     82  CG         4.3570   38.0540   46.4090 C.2   174  ASP174      0.3668
     83  OD1        3.5240   38.2210   45.4950 O.co2 174  ASP174     -0.2456
     84  OD2        5.4600   38.6360   46.4390 O.co2 174  ASP174     -0.2456
     85  N          5.0610   35.0080   45.3870 N.am  175  THR175     -0.1939
     86  CA         6.2520   34.3260   44.9090 C.3   175  THR175      0.2028
     87  C          7.4940   35.0710   45.3920 C.2   175  THR175      0.2642
     88  O          7.4110   36.0750   46.1030 O.2   175  THR175     -0.2714
     89  CB         6.2310   34.2180   43.3870 C.3   175  THR175      0.1808
     90  OG1        7.4800   33.6880   42.9310 O.3   175  THR175     -0.2208
     91  CG2        6.0090   35.5870   42.7620 C.3   175  THR175      0.0379
     92  N          8.6660   34.5780   45.0070 N.am  176  CYS176     -0.1953
     93  CA         9.9140   35.2450   45.3560 C.3   176  CYS176      0.1843
     94  C         10.9800   34.8230   44.3530 C.2   176  CYS176      0.2625
     95  O         10.6820   34.1820   43.3400 O.2   176  CYS176     -0.2714
     96  CB        10.3240   34.9370   46.7980 C.3   176  CYS176      0.0997
     97  SG        11.1810   36.3040   47.6060 S.3   176  CYS176     -0.0797
     98  N         12.2290   35.1930   44.6330 N.am  177  GLN177     -0.1963
     99  CA        13.3190   34.8660   43.7270 C.3   177  GLN177      0.1733
    100  C         13.5200   33.3560   43.6630 C.2   177  GLN177      0.2616
    101  O         13.3280   32.6380   44.6470 O.2   177  GLN177     -0.2715
    102  CB        14.6140   35.5560   44.1630 C.3   177  GLN177      0.0408
    103  CG        14.5880   37.0800   44.0980 C.3   177  GLN177      0.0908
    104  CD        13.8850   37.7090   45.2860 C.2   177  GLN177      0.2608
    105  OE1       12.6610   37.8150   45.3100 O.2   177  GLN177     -0.2717
    106  NE2       14.6600   38.1310   46.2770 N.am  177  GLN177     -0.0878
    107  N         13.9090   32.8770   42.4810 N.am  178  GLY178     -0.1955
    108  CA        14.0280   31.4690   42.1960 C.3   178  GLY178      0.1869
    109  C         12.8340   30.8900   41.4610 C.2   178  GLY178      0.2309
    110  O         13.0020   29.9780   40.6440 O.2   178  GLY178     -0.2863
    111  N         11.2030   32.5130   39.2880 N.3   180  SER180     -0.1217
    112  CA        11.0630   33.2450   38.0390 C.3   180  SER180      0.1889
    113  C         11.1070   32.2910   36.8570 C.2   180  SER180      0.2288
    114  O         11.8520   31.3090   36.8570 O.2   180  SER180     -0.2866
    115  CB        12.1450   34.3090   37.9220 C.3   180  SER180      0.2089
    116  OG        11.8200   35.3800   38.7800 O.3   180  SER180     -0.2183
    117  N          6.1730   34.1770   36.1620 N.3   194  THR194     -0.1203
    118  CA         6.6270   34.9810   37.2910 C.3   194  THR194      0.1994
    119  C          7.8610   35.7730   36.8710 C.2   194  THR194      0.2619
    120  O          8.9130   35.1960   36.5740 O.2   194  THR194     -0.2717
    121  CB         6.9170   34.0870   38.4920 C.3   194  THR194      0.1784
    122  OG1        8.0310   33.2490   38.1940 O.3   194  THR194     -0.2211
    123  CG2        5.7290   33.1870   38.7990 C.3   194  THR194      0.0376
    124  N          7.7330   37.0980   36.8370 N.am  195  SER195     -0.1937
    125  CA         8.7610   37.9640   36.2820 C.3   195  SER195      0.2055
    126  C          9.5010   38.7470   37.3590 C.2   195  SER195      0.2643
    127  O         10.7300   38.6610   37.4480 O.2   195  SER195     -0.2714
    128  CB         8.1270   38.9140   35.2580 C.3   195  SER195      0.2130
    129  OG         9.1210   39.5720   34.4990 O.3   195  SER195     -0.2179
    130  N          8.7890   39.4950   38.1950 N.am  196  TRP196     -0.1959
    131  CA         9.4390   40.3120   39.2150 C.3   196  TRP196      0.1771
    132  C          8.3910   40.7650   40.2270 C.2   196  TRP196      0.2620
    133  O          7.2220   40.3750   40.1640 O.2   196  TRP196     -0.2715
    134  CB        10.1680   41.4980   38.5880 C.3   196  TRP196      0.0590
    135  CG         9.2620   42.4400   37.9010 C.ar  196  TRP196      0.0006
    136  CD1        8.6570   42.2640   36.6930 C.ar  196  TRP196      0.0946
    137  CD2        8.8480   43.7200   38.3780 C.ar  196  TRP196      0.0152
    138  NE1        7.8880   43.3570   36.3880 N.ar  196  TRP196     -0.2442
    139  CE2        7.9870   44.2660   37.4090 C.ar  196  TRP196      0.0810
    140  CE3        9.1210   44.4590   39.5330 C.ar  196  TRP196      0.0012
    141  CZ2        7.4050   45.5190   37.5540 C.ar  196  TRP196      0.0191
    142  CZ3        8.5370   45.7000   39.6780 C.ar  196  TRP196      0.0001
    143  CH2        7.6870   46.2180   38.6950 C.ar  196  TRP196      0.0015
    144  N          8.8290   41.5890   41.1670 N.am  197  GLY197     -0.1940
    145  CA         7.9500   42.0610   42.2180 C.3   197  GLY197      0.2014
    146  C          8.7190   42.9560   43.1590 C.2   197  GLY197      0.2640
    147  O          9.7910   43.4500   42.8140 O.2   197  GLY197     -0.2714
    148  N          8.1740   43.1570   44.3560 N.am  198  SER198     -0.1935
    149  CA         8.8290   44.0080   45.3360 C.3   198  SER198      0.2055
    150  C          9.9210   43.2360   46.0720 C.2   198  SER198      0.2643
    151  O         10.1130   42.0330   45.8800 O.2   198  SER198     -0.2714
    152  CB         7.8140   44.5660   46.3300 C.3   198  SER198      0.2130
    153  OG         7.4250   43.5780   47.2670 O.3   198  SER198     -0.2179
    154  N         10.6510   43.9460   46.9280 N.am  199  ASP199     -0.1971
    155  CA        11.6320   43.3310   47.8110 C.3   199  ASP199      0.1709
    156  C         11.5880   44.0270   49.1660 C.2   199  ASP199      0.2293
    157  O         11.8080   45.2420   49.2450 O.2   199  ASP199     -0.2864
    158  CB        13.0360   43.4020   47.2120 C.3   199  ASP199      0.1436
    159  CG        14.0640   42.6720   48.0550 C.2   199  ASP199      0.3671
    160  OD1       13.8570   41.4720   48.3350 O.co2 199  ASP199     -0.2456
    161  OD2       15.0770   43.2950   48.4360 O.co2 199  ASP199     -0.2456
    162  N          9.7440   40.0510   49.4290 N.3   201  CYS201     -0.1235
    163  CA         8.5280   39.4490   48.9060 C.3   201  CYS201      0.1677
    164  C          7.4470   39.3810   49.9840 C.2   201  CYS201      0.2270
    165  O          7.7100   39.5180   51.1820 O.2   201  CYS201     -0.2867
    166  CB         8.8110   38.0420   48.3770 C.3   201  CYS201      0.0956
    167  SG        10.0850   37.9420   47.1000 S.3   201  CYS201     -0.0801
    168  N          1.9830   43.7040   45.2840 N.3   207  PRO207     -0.2102
    169  CA         1.8110   42.3370   44.7870 C.3   207  PRO207      0.1504
    170  C          2.9320   41.9530   43.8280 C.2   207  PRO207      0.2576
    171  O          3.7900   42.7590   43.4660 O.2   207  PRO207     -0.2718
    172  CB         0.4630   42.3970   44.0670 C.3   207  PRO207      0.0282
    173  CG         0.3870   43.8060   43.5770 C.3   207  PRO207      0.0208
    174  CD         1.0600   44.6500   44.6320 C.3   207  PRO207      0.0893
    175  N          2.9080   40.6860   43.4180 N.am  208  GLY208     -0.1957
    176  CA         3.8860   40.2000   42.4660 C.3   208  GLY208      0.1869
    177  C          3.4970   40.5140   41.0340 C.2   208  GLY208      0.2309
    178  O          2.3230   40.5550   40.6750 O.2   208  GLY208     -0.2863
@<TRIPOS>BOND
     1    11    12    1
     2    14    13    2
     3    13    12    1
     4    12    15    1
     5    15    16    1
     6    16    18   ar
     7    16    17   ar
     8    18    20   ar
     9    17    19   ar
    10    20    21   ar
    11    48    49    1
    12    50    49    1
    13    50    51    2
    14    19    21   ar
    15    30    28   ar
    16    21    22    1
    17    49    52    1
    18    27    28    1
    19    27    24    1
    20    23    24    1
    21    28    29   ar
    22     1     2    1
    23    24    25    1
    24    52    53    1
    25    40    41    2
    26    40    39    1
    27    54    53   ar
    28     2     3    1
    29     2     5    1
    30    53    55   ar
    31    39    38    1
    32    39    42    1
    33     3     4    2
    34    26    25    2
    35    25    31   am
    36     5     6    1
    37    42    43    1
    38    31    32    1
    39     7     6   ar
    40     7     9   ar
    41     6     8   ar
    42    71    70    2
    43   129   128    1
    44    43    45   ar
    45    43    44   ar
    46     9    10   ar
    47    32    33    1
    48    32    35    1
    49    70    69    1
    50    45    47   ar
    51     8    10   ar
    52   128   125    1
    53    33    34    2
    54    44    46   ar
    55    69    68    1
    56    69    72    1
    57    35    36    1
    58    35    37    1
    59   117   118    1
    60   125   124    1
    61   125   126    1
    62    47    46   ar
    63   138   136   ar
    64   138   139   ar
    65   120   119    2
    66   136   135   ar
    67   124   119   am
    68   113   114    2
    69   113   112    1
    70   119   118    1
    71    72    73    1
    72   118   121    1
    73   126   127    2
    74   126   130   am
    75   139   141   ar
    76   139   137   ar
    77   141   143   ar
    78    73    74    1
    79   135   137   ar
    80   135   134    1
    81   115   112    1
    82   115   116    1
    83   112   111    1
    84   122   121    1
    85   130   131    1
    86   137   140   ar
    87    76    74   am
    88   121   123    1
    89   134   131    1
    90    74    75    2
    91   143   142   ar
    92    59    58    2
    93   131   132    1
    94   140   142   ar
    95    58    57    1
    96   133   132    2
    97   132   144   am
    98    60    57    1
    99    60    61    1
   100   110   109    2
   101   178   177    2
   102   177   176    1
   103    57    56    1
   104   144   145    1
   105    61    62   ar
   106    61    63   ar
   107    62    64   ar
   108   109   108    1
   109    63    65   ar
   110   108   107    1
   111   145   146    1
   112    64    66   ar
   113   176   175    1
   114   107   100   am
   115    91    89    1
   116   147   146    2
   117    65    66   ar
   118    90    89    1
   119    66    67    1
   120   146   148   am
   121    95    94    2
   122    89    86    1
   123   175   170   am
   124   171   170    2
   125   173   172    1
   126   173   174    1
   127   100    99    1
   128   100   101    2
   129    99   102    1
   130    99    98    1
   131   170   169    1
   132   172   169    1
   133   103   102    1
   134   103   104    1
   135    94    98   am
   136    94    93    1
   137   148   149    1
   138   174   168    1
   139   169   168    1
   140    86    85    1
   141    86    87    1
   142    92    93    1
   143    92    87   am
   144   104   105    2
   145   104   106   am
   146   149   150    1
   147   149   152    1
   148    93    96    1
   149    85    79   am
   150    87    88    2
   151    83    82   ar
   152   151   150    2
   153   150   154   am
   154   152   153    1
   155    82    84   ar
   156    82    81    1
   157    79    78    1
   158    79    80    2
   159    96    97    1
   160   154   155    1
   161    78    81    1
   162    78    77    1
   163   167    97    1
   164   167   166    1
   165   158   155    1
   166   158   159    1
   167   155   156    1
   168   159   160   ar
   169   159   161   ar
   170   166   163    1
   171   163   162    1
   172   163   164    1
   173   156   157    2
   174   164   165    2
