@<TRIPOS>MOLECULE
tmp/5msaB01.pdb
 87 81 0 0 0
SMALL
GASTEIGER

@<TRIPOS>ATOM
      1  N        -10.8820   10.2170   -5.0460 N.3    62  ASN62      -0.1240
      2  CA       -10.4580   11.4770   -4.3710 C.3    62  ASN62       0.1653
      3  C         -8.9480   11.7130   -4.4920 C.2    62  ASN62       0.2266
      4  O         -8.4140   12.5760   -3.7700 O.2    62  ASN62      -0.2867
      5  CB       -10.7650   11.4030   -2.8190 C.3    62  ASN62       0.1155
      6  CG        -9.9820   10.2960   -2.0890 C.2    62  ASN62       0.2627
      7  OD1       -9.0230    9.6840   -2.5980 O.2    62  ASN62      -0.2716
      8  ND2      -10.3390   10.0530   -0.8530 N.am   62  ASN62      -0.0877
      9  N         -6.5060    9.6930   -3.8430 N.3    64  HIS64      -0.1241
     10  CA        -5.7520    8.8120   -2.9270 C.3    64  HIS64       0.1621
     11  C         -6.2370    7.4320   -2.7940 C.2    64  HIS64       0.2264
     12  O         -5.4550    6.4550   -2.5110 O.2    64  HIS64      -0.2867
     13  CB        -5.6720    9.4500   -1.5680 C.3    64  HIS64       0.0745
     14  CG        -5.1420   10.8610   -1.5720 C.ar   64  HIS64       0.0817
     15  ND1       -3.8090   11.1790   -1.8620 N.ar   64  HIS64      -0.2268
     16  CD2       -5.7410   11.9970   -1.4090 C.ar   64  HIS64       0.1154
     17  CE1       -3.6630   12.4620   -1.8170 C.ar   64  HIS64       0.1986
     18  NE2       -4.8960   12.9920   -1.5380 N.ar   64  HIS64      -0.2212
     19  N        -13.6190    6.2510   -2.9030 N.3    67  LYS67      -0.1245
     20  CA       -14.5350    6.0640   -1.7520 C.3    67  LYS67       0.1561
     21  C        -15.9650    5.9980   -2.1970 C.2    67  LYS67       0.2260
     22  O        -16.3910    6.6590   -3.1310 O.2    67  LYS67      -0.2867
     23  CB       -14.3390    7.1330   -0.6920 C.3    67  LYS67       0.0271
     24  CG       -14.7770    8.5070   -1.1050 C.3    67  LYS67       0.0035
     25  CD       -14.7130    9.4540    0.0770 C.3    67  LYS67       0.0206
     26  CE       -14.9070   10.7770   -0.6250 C.3    67  LYS67       0.1093
     27  NZ       -14.8270   11.8320    0.3830 N.3    67  LYS67      -0.1314
     28  N        -19.6470    6.8000   -0.7270 N.3    69  ASN69      -0.1240
     29  CA       -20.3820    7.4810    0.3670 C.3    69  ASN69       0.1653
     30  C        -21.4660    6.5260    0.9010 C.2    69  ASN69       0.2266
     31  O        -22.1020    5.8090    0.1500 O.2    69  ASN69      -0.2867
     32  CB       -21.0280    8.7420   -0.1830 C.3    69  ASN69       0.1155
     33  CG       -20.0410    9.8530   -0.3490 C.2    69  ASN69       0.2627
     34  OD1      -18.8560    9.7360   -0.0610 O.2    69  ASN69      -0.2716
     35  ND2      -20.5680   11.0470   -0.7640 N.am   69  ASN69      -0.0877
     36  N        -20.0050    6.8220    7.1650 N.3    86  THR86      -0.1203
     37  CA       -19.8100    7.9400    6.2590 C.3    86  THR86       0.1994
     38  C        -19.2870    7.5200    4.9220 C.2    86  THR86       0.2617
     39  O        -19.6890    8.0690    3.8990 O.2    86  THR86      -0.2717
     40  CB       -18.9690    9.0670    6.9260 C.3    86  THR86       0.1784
     41  OG1      -18.9490   10.1910    6.0230 O.3    86  THR86      -0.2211
     42  CG2      -17.6230    8.6480    7.3200 C.3    86  THR86       0.0376
     43  N        -18.3310    6.5680    4.8500 N.am   87  GLN87      -0.1979
     44  CA       -17.7790    6.1730    3.5630 C.3    87  GLN87       0.1601
     45  C        -17.0190    4.8800    3.7800 C.2    87  GLN87       0.2287
     46  O        -16.6270    4.5350    4.8960 O.2    87  GLN87      -0.2864
     47  CB       -16.8680    7.2610    2.9560 C.3    87  GLN87       0.0394
     48  CG       -15.7640    7.7280    3.8660 C.3    87  GLN87       0.0908
     49  CD       -14.3850    7.2590    3.4230 C.2    87  GLN87       0.2608
     50  OE1      -14.2210    6.1020    3.1110 O.2    87  GLN87      -0.2717
     51  NE2      -13.4140    8.0500    3.4610 N.am   87  GLN87      -0.0878
     52  N        -13.6450    2.7360    1.6250 N.3    89  HIS89      -0.1241
     53  CA       -12.6030    2.8590    0.6200 C.3    89  HIS89       0.1621
     54  C        -11.6440    1.7180    0.8190 C.2    89  HIS89       0.2264
     55  O        -11.7080    0.9580    1.7950 O.2    89  HIS89      -0.2867
     56  CB       -11.9060    4.2450    0.7180 C.3    89  HIS89       0.0745
     57  CG       -11.1830    4.4000    1.9870 C.ar   89  HIS89       0.0817
     58  ND1      -11.7580    4.9280    3.1230 N.ar   89  HIS89      -0.2268
     59  CD2       -9.9450    3.9630    2.4170 C.ar   89  HIS89       0.1154
     60  CE1      -10.9120    4.8530    4.1490 C.ar   89  HIS89       0.1986
     61  NE2       -9.7900    4.2400    3.7230 N.ar   89  HIS89      -0.2212
     62  N        -15.6530    3.5520    7.2830 N.3   117  VAL117     -0.1245
     63  CA       -15.4300    4.6480    8.1690 C.3   117  VAL117      0.1561
     64  C        -16.7600    5.0960    8.7930 C.2   117  VAL117      0.2260
     65  O        -17.7290    5.3410    8.0940 O.2   117  VAL117     -0.2867
     66  CB       -14.7780    5.8310    7.4580 C.3   117  VAL117      0.0252
     67  CG1      -14.4830    6.9730    8.4220 C.3   117  VAL117      0.0019
     68  CG2      -13.5440    5.3900    6.6460 C.3   117  VAL117      0.0019
     69  N        -18.6750   13.5970   10.0060 N.3   127  ALA127     -0.1245
     70  CA       -17.4000   12.9380   10.2010 C.3   127  ALA127      0.1562
     71  C        -16.2140   13.8980   10.2440 C.2   127  ALA127      0.2260
     72  O        -15.2540   13.6540   10.9700 O.2   127  ALA127     -0.2867
     73  CB       -17.1920   11.9320    9.0900 C.3   127  ALA127      0.0290
     74  N         -3.8000    8.1830    6.6820 N.3   197  THR197     -0.1204
     75  CA        -3.3220    9.1100    5.6650 C.3   197  THR197      0.1979
     76  C         -3.3450   10.4790    6.3360 C.2   197  THR197      0.2459
     77  O         -4.0260   10.6690    7.3450 O.2   197  THR197     -0.2732
     78  CB        -4.1670    9.1880    4.3780 C.3   197  THR197      0.1783
     79  OG1       -5.3450    9.9610    4.6270 O.3   197  THR197     -0.2211
     80  CG2       -4.5590    7.8120    3.8780 C.3   197  THR197      0.0376
     81  N         -2.6690   11.4680    5.7570 N.am  198  PRO198     -0.2728
     82  CA        -2.8370   12.8340    6.2620 C.3   198  PRO198      0.1401
     83  C         -4.3050   13.1800    6.3320 C.2   198  PRO198      0.2269
     84  O         -5.0640   12.8160    5.4560 O.2   198  PRO198     -0.2865
     85  CB        -2.1040   13.6540    5.1870 C.3   198  PRO198      0.0296
     86  CG        -1.0020   12.7260    4.6750 C.3   198  PRO198      0.0237
     87  CD        -1.7290   11.3990    4.6230 C.3   198  PRO198      0.0939
@<TRIPOS>BOND
     1     1     2    1
     2     3     2    1
     3     3     4    2
     4     2     5    1
     5     9    10    1
     6    22    21    2
     7    10    11    1
     8    10    13    1
     9    19    20    1
    10     5     6    1
    11    11    12    2
    12     7     6    2
    13    21    20    1
    14     6     8   am
    15    15    17   ar
    16    15    14   ar
    17    17    18   ar
    18    20    23    1
    19    14    13    1
    20    14    16   ar
    21    18    16   ar
    22    24    23    1
    23    24    25    1
    24    35    33   am
    25    28    29    1
    26    26    25    1
    27    26    27    1
    28    33    32    1
    29    33    34    2
    30    32    29    1
    31    31    30    2
    32    29    30    1
    33    53    56    1
    34    53    54    1
    35    53    52    1
    36    56    57    1
    37    54    55    2
    38    57    59   ar
    39    57    58   ar
    40    59    61   ar
    41    47    44    1
    42    47    48    1
    43    50    49    2
    44    58    60   ar
    45    49    51   am
    46    49    48    1
    47    44    45    1
    48    44    43    1
    49    61    60   ar
    50    45    46    2
    51    80    78    1
    52    39    38    2
    53    78    79    1
    54    78    75    1
    55    87    86    1
    56    87    81    1
    57    86    85    1
    58    43    38   am
    59    38    37    1
    60    85    82    1
    61    84    83    2
    62    75    76    1
    63    75    74    1
    64    81    82    1
    65    81    76   am
    66    41    40    1
    67    37    40    1
    68    37    36    1
    69    82    83    1
    70    76    77    2
    71    68    66    1
    72    40    42    1
    73    62    63    1
    74    66    63    1
    75    66    67    1
    76    65    64    2
    77    63    64    1
    78    73    70    1
    79    69    70    1
    80    70    71    1
    81    71    72    2
