@<TRIPOS>MOLECULE
tmp/5msaB00.pdb
 135 131 0 0 0
SMALL
GASTEIGER

@<TRIPOS>ATOM
      1  N        -20.0050    6.8220    7.1650 N.3    86  THR86      -0.1203
      2  CA       -19.8100    7.9400    6.2590 C.3    86  THR86       0.1994
      3  C        -19.2870    7.5200    4.9220 C.2    86  THR86       0.2617
      4  O        -19.6890    8.0690    3.8990 O.2    86  THR86      -0.2717
      5  CB       -18.9690    9.0670    6.9260 C.3    86  THR86       0.1784
      6  OG1      -18.9490   10.1910    6.0230 O.3    86  THR86      -0.2211
      7  CG2      -17.6230    8.6480    7.3200 C.3    86  THR86       0.0376
      8  N        -18.3310    6.5680    4.8500 N.am   87  GLN87      -0.1979
      9  CA       -17.7790    6.1730    3.5630 C.3    87  GLN87       0.1601
     10  C        -17.0190    4.8800    3.7800 C.2    87  GLN87       0.2287
     11  O        -16.6270    4.5350    4.8960 O.2    87  GLN87      -0.2864
     12  CB       -16.8680    7.2610    2.9560 C.3    87  GLN87       0.0394
     13  CG       -15.7640    7.7280    3.8660 C.3    87  GLN87       0.0908
     14  CD       -14.3850    7.2590    3.4230 C.2    87  GLN87       0.2608
     15  OE1      -14.2210    6.1020    3.1110 O.2    87  GLN87      -0.2717
     16  NE2      -13.4140    8.0500    3.4610 N.am   87  GLN87      -0.0878
     17  N        -13.6450    2.7360    1.6250 N.3    89  HIS89      -0.1241
     18  CA       -12.6030    2.8590    0.6200 C.3    89  HIS89       0.1621
     19  C        -11.6440    1.7180    0.8190 C.2    89  HIS89       0.2264
     20  O        -11.7080    0.9580    1.7950 O.2    89  HIS89      -0.2867
     21  CB       -11.9060    4.2450    0.7180 C.3    89  HIS89       0.0745
     22  CG       -11.1830    4.4000    1.9870 C.ar   89  HIS89       0.0817
     23  ND1      -11.7580    4.9280    3.1230 N.ar   89  HIS89      -0.2268
     24  CD2       -9.9450    3.9630    2.4170 C.ar   89  HIS89       0.1154
     25  CE1      -10.9120    4.8530    4.1490 C.ar   89  HIS89       0.1986
     26  NE2       -9.7900    4.2400    3.7230 N.ar   89  HIS89      -0.2212
     27  N         -7.3590    0.1050    0.1330 N.3    91  HIS91      -0.1241
     28  CA        -5.9190    0.2460   -0.0390 C.3    91  HIS91       0.1621
     29  C         -5.4020   -0.9730   -0.7020 C.2    91  HIS91       0.2264
     30  O         -5.8560   -2.0830   -0.3690 O.2    91  HIS91      -0.2867
     31  CB        -5.2340    0.4450    1.3060 C.3    91  HIS91       0.0745
     32  CG        -5.7550    1.6260    2.0960 C.ar   91  HIS91       0.0817
     33  ND1       -5.1760    2.8730    2.0560 N.ar   91  HIS91      -0.2268
     34  CD2       -6.8110    1.7520    2.9680 C.ar   91  HIS91       0.1154
     35  CE1       -5.8980    3.7080    2.8300 C.ar   91  HIS91       0.1986
     36  NE2       -6.8720    3.0560    3.4130 N.ar   91  HIS91      -0.2212
     37  N        -11.6460   -0.3100    4.3510 N.3   115  HIS115     -0.1241
     38  CA       -11.9780    0.4750    5.5220 C.3   115  HIS115      0.1621
     39  C        -13.3750    1.0050    5.4220 C.2   115  HIS115      0.2264
     40  O        -13.7030    1.6750    4.4260 O.2   115  HIS115     -0.2867
     41  CB       -10.9710    1.6530    5.6530 C.3   115  HIS115      0.0745
     42  CG        -9.6120    1.1930    6.0080 C.ar  115  HIS115      0.0817
     43  ND1       -8.4980    1.9430    5.7600 N.ar  115  HIS115     -0.2268
     44  CD2       -9.2050    0.0330    6.6030 C.ar  115  HIS115      0.1154
     45  CE1       -7.4430    1.2290    6.2110 C.ar  115  HIS115      0.1986
     46  NE2       -7.8810    0.0740    6.7100 N.ar  115  HIS115     -0.2212
     47  N        -15.6530    3.5520    7.2830 N.3   117  VAL117     -0.1245
     48  CA       -15.4300    4.6480    8.1690 C.3   117  VAL117      0.1561
     49  C        -16.7600    5.0960    8.7930 C.2   117  VAL117      0.2260
     50  O        -17.7290    5.3410    8.0940 O.2   117  VAL117     -0.2867
     51  CB       -14.7780    5.8310    7.4580 C.3   117  VAL117      0.0252
     52  CG1      -14.4830    6.9730    8.4220 C.3   117  VAL117      0.0019
     53  CG2      -13.5440    5.3900    6.6460 C.3   117  VAL117      0.0019
     54  N        -18.6750   13.5970   10.0060 N.3   127  ALA127     -0.1231
     55  CA       -17.4000   12.9380   10.2010 C.3   127  ALA127      0.1694
     56  C        -16.2140   13.8980   10.2440 C.2   127  ALA127      0.2592
     57  O        -15.2540   13.6540   10.9700 O.2   127  ALA127     -0.2718
     58  CB       -17.1920   11.9320    9.0900 C.3   127  ALA127      0.0304
     59  N        -16.2630   14.9990    9.4940 N.am  128  SER128     -0.1952
     60  CA       -15.1030   15.9270    9.4890 C.3   128  SER128      0.1924
     61  C        -14.9090   16.5830   10.8630 C.2   128  SER128      0.2314
     62  O        -13.7610   16.7090   11.3660 O.2   128  SER128     -0.2863
     63  CB       -15.2930   17.0140    8.4230 C.3   128  SER128      0.2116
     64  OG       -14.2070   17.9280    8.3710 O.3   128  SER128     -0.2180
     65  N        -13.6400   13.9230   13.3040 N.3   131  SER131     -0.1217
     66  CA       -12.2760   13.4270   12.9690 C.3   131  SER131      0.1889
     67  C        -11.1920   14.0800   13.6840 C.2   131  SER131      0.2288
     68  O        -10.0840   13.5610   13.7710 O.2   131  SER131     -0.2866
     69  CB       -11.9770   13.5360   11.5010 C.3   131  SER131      0.2089
     70  OG       -11.7160   14.8630   11.1410 O.3   131  SER131     -0.2183
     71  N        -13.9580    8.7930   15.5790 N.3   137  LEU137     -0.1245
     72  CA       -14.1750    7.9070   14.4480 C.3   137  LEU137      0.1561
     73  C        -14.0100    6.4890   14.8620 C.2   137  LEU137      0.2260
     74  O        -13.2640    6.1570   15.7900 O.2   137  LEU137     -0.2867
     75  CB       -13.0940    8.1910   13.3750 C.3   137  LEU137      0.0270
     76  CG       -13.1670    9.5890   12.7640 C.3   137  LEU137      0.0019
     77  CD1      -11.9580    9.7900   11.8720 C.3   137  LEU137      0.0001
     78  CD2      -14.4580    9.9070   12.0480 C.3   137  LEU137      0.0001
     79  N        -13.3400    2.8810   12.6400 N.3   139  VAL139     -0.1245
     80  CA       -13.1170    2.3030   11.3280 C.3   139  VAL139      0.1561
     81  C        -13.1280    0.8120   11.4700 C.2   139  VAL139      0.2260
     82  O        -12.4830    0.2710   12.3680 O.2   139  VAL139     -0.2867
     83  CB       -11.8430    2.8450   10.6310 C.3   139  VAL139      0.0252
     84  CG1      -11.7110    2.2170    9.2460 C.3   139  VAL139      0.0019
     85  CG2      -11.8720    4.3490   10.5430 C.3   139  VAL139      0.0019
     86  N         -6.0190    8.0410   11.7260 N.3   195  LEU195     -0.1231
     87  CA        -6.1530    7.9740   10.2790 C.3   195  LEU195      0.1693
     88  C         -4.7900    7.4910    9.7010 C.2   195  LEU195      0.2593
     89  O         -3.7330    7.9060   10.1620 O.2   195  LEU195     -0.2718
     90  CB        -6.4130    9.3830    9.7330 C.3   195  LEU195      0.0284
     91  CG        -7.7210   10.0090   10.1480 C.3   195  LEU195      0.0019
     92  CD1       -7.8430   11.3920    9.5680 C.3   195  LEU195      0.0001
     93  CD2       -8.9620    9.2180    9.9510 C.3   195  LEU195      0.0001
     94  N         -4.8470    6.6770    8.6540 N.am  196  THR196     -0.1939
     95  CA        -3.6360    6.1620    8.0500 C.3   196  THR196      0.2028
     96  C         -3.1360    7.0680    6.9270 C.2   196  THR196      0.2643
     97  O         -2.1320    6.7100    6.2830 O.2   196  THR196     -0.2714
     98  CB        -3.8110    4.7690    7.5680 C.3   196  THR196      0.1808
     99  OG1       -4.7410    4.8090    6.4730 O.3   196  THR196     -0.2208
    100  CG2       -4.2220    3.7810    8.6210 C.3   196  THR196      0.0379
    101  N         -3.8000    8.1830    6.6820 N.am  197  THR197     -0.1937
    102  CA        -3.3220    9.1100    5.6650 C.3   197  THR197      0.2013
    103  C         -3.3450   10.4790    6.3360 C.2   197  THR197      0.2484
    104  O         -4.0260   10.6690    7.3450 O.2   197  THR197     -0.2729
    105  CB        -4.1670    9.1880    4.3780 C.3   197  THR197      0.1807
    106  OG1       -5.3450    9.9610    4.6270 O.3   197  THR197     -0.2208
    107  CG2       -4.5590    7.8120    3.8780 C.3   197  THR197      0.0379
    108  N         -2.6690   11.4680    5.7570 N.am  198  PRO198     -0.2715
    109  CA        -2.8370   12.8340    6.2620 C.3   198  PRO198      0.1521
    110  C         -4.3050   13.1800    6.3320 C.2   198  PRO198      0.2440
    111  O         -5.0640   12.8160    5.4560 O.2   198  PRO198     -0.2731
    112  CB        -2.1040   13.6540    5.1870 C.3   198  PRO198      0.0310
    113  CG        -1.0020   12.7260    4.6750 C.3   198  PRO198      0.0237
    114  CD        -1.7290   11.3990    4.6230 C.3   198  PRO198      0.0939
    115  N         -4.7000   13.9170    7.4440 N.am  199  PRO199     -0.2727
    116  CA        -3.7690   14.5240    8.4340 C.3   199  PRO199      0.1402
    117  C         -3.4850   13.6450    9.6610 C.2   199  PRO199      0.2269
    118  O         -3.0200   14.1460   10.7070 O.2   199  PRO199     -0.2865
    119  CB        -4.4910   15.8050    8.8740 C.3   199  PRO199      0.0296
    120  CG        -5.8610   15.7260    8.3120 C.3   199  PRO199      0.0237
    121  CD        -6.0820   14.3730    7.6760 C.3   199  PRO199      0.0939
    122  N        -10.0030    1.5860   16.0770 N.3   206  TRP206     -0.1241
    123  CA        -9.8710    0.5630   15.0330 C.3   206  TRP206      0.1605
    124  C        -10.4550   -0.7430   15.4640 C.2   206  TRP206      0.2264
    125  O        -10.2210   -1.2160   16.5880 O.2   206  TRP206     -0.2867
    126  CB        -8.3860    0.3600   14.6880 C.3   206  TRP206      0.0550
    127  CG        -7.8760    1.4230   13.7950 C.ar  206  TRP206      0.0003
    128  CD1       -7.1650    2.5430   14.1390 C.ar  206  TRP206      0.0946
    129  CD2       -8.0450    1.4780   12.3730 C.ar  206  TRP206      0.0152
    130  NE1       -6.9430    3.3100   13.0230 N.ar  206  TRP206     -0.2442
    131  CE2       -7.4460    2.6860   11.9280 C.ar  206  TRP206      0.0810
    132  CE3       -8.6370    0.6330   11.4400 C.ar  206  TRP206      0.0012
    133  CZ2       -7.4870    3.0760   10.5850 C.ar  206  TRP206      0.0191
    134  CZ3       -8.6360    1.0260   10.0930 C.ar  206  TRP206      0.0001
    135  CH2       -8.0750    2.2320    9.6990 C.ar  206  TRP206      0.0015
@<TRIPOS>BOND
     1    29    30    2
     2    29    28    1
     3    28    27    1
     4    28    31    1
     5    18    21    1
     6    18    19    1
     7    18    17    1
     8    21    22    1
     9    19    20    2
    10    31    32    1
    11    22    24   ar
    12    22    23   ar
    13    33    32   ar
    14    33    35   ar
    15    32    34   ar
    16    24    26   ar
    17    35    36   ar
    18    12     9    1
    19    12    13    1
    20    34    36   ar
    21    15    14    2
    22    23    25   ar
    23    14    16   am
    24    14    13    1
    25     9    10    1
    26     9     8    1
    27    26    25   ar
    28    10    11    2
    29   107   105    1
    30     4     3    2
    31    37    38    1
    32   105   106    1
    33   105   102    1
    34    40    39    2
    35   114   113    1
    36   114   108    1
    37   113   112    1
    38     8     3   am
    39     3     2    1
    40   112   109    1
    41    39    38    1
    42   111   110    2
    43    38    41    1
    44    41    42    1
    45   102   103    1
    46   102   101    1
    47   108   109    1
    48   108   103   am
    49    43    42   ar
    50    43    45   ar
    51    42    44   ar
    52     6     5    1
    53    45    46   ar
    54     2     5    1
    55     2     1    1
    56   109   110    1
    57    97    96    2
    58   110   115   am
    59   103   104    2
    60    99    98    1
    61    44    46   ar
    62    53    51    1
    63   101    96   am
    64     5     7    1
    65    96    95    1
    66    47    48    1
    67   115   121    1
    68   115   116    1
    69    51    48    1
    70    51    52    1
    71    98    95    1
    72    98   100    1
    73   121   120    1
    74    95    94    1
    75    50    49    2
    76    48    49    1
    77   120   119    1
    78    64    63    1
    79    63    60    1
    80   116   119    1
    81   116   117    1
    82    94    88   am
    83    58    55    1
    84    84    83    1
    85    60    59    1
    86    60    61    1
    87    59    56   am
    88    92    91    1
    89   117   118    2
    90   135   134   ar
    91   135   133   ar
    92    88    89    2
    93    88    87    1
    94    90    91    1
    95    90    87    1
    96    93    91    1
    97    54    55    1
    98   134   132   ar
    99    55    56    1
   100    56    57    2
   101    87    86    1
   102    85    83    1
   103   133   131   ar
   104    83    80    1
   105    61    62    2
   106    70    69    1
   107    80    81    1
   108    80    79    1
   109   132   129   ar
   110    81    82    2
   111    69    66    1
   112    77    76    1
   113   131   129   ar
   114   131   130   ar
   115    78    76    1
   116   129   127   ar
   117    76    75    1
   118    66    65    1
   119    66    67    1
   120   130   128   ar
   121    75    72    1
   122    67    68    2
   123   127   128   ar
   124   127   126    1
   125    72    73    1
   126    72    71    1
   127   126   123    1
   128    73    74    2
   129   123   124    1
   130   123   122    1
   131   124   125    2
