@<TRIPOS>MOLECULE
tmp/5msbA00.pdb
 152 143 0 0 0
SMALL
GASTEIGER

@<TRIPOS>ATOM
      1  N         26.1680    6.9710   22.5330 N.3    62  ASN62      -0.1240
      2  CA        25.9590    8.2420   21.8760 C.3    62  ASN62       0.1653
      3  C         24.4950    8.6990   21.9040 C.2    62  ASN62       0.2266
      4  O         24.0810    9.6100   21.1940 O.2    62  ASN62      -0.2867
      5  CB        26.4790    8.1600   20.4430 C.3    62  ASN62       0.1155
      6  CG        25.6210    7.3010   19.5420 C.2    62  ASN62       0.2627
      7  OD1       24.6360    6.7180   19.9540 O.2    62  ASN62      -0.2716
      8  ND2       26.0180    7.1930   18.2860 N.am   62  ASN62      -0.0877
      9  N         28.3100    2.2900   20.4520 N.3    67  LYS67      -0.1245
     10  CA        29.2160    2.1760   19.2920 C.3    67  LYS67       0.1561
     11  C         30.6300    1.9020   19.7530 C.2    67  LYS67       0.2260
     12  O         31.0330    2.3430   20.8170 O.2    67  LYS67      -0.2867
     13  CB        29.2600    3.3480   18.3290 C.3    67  LYS67       0.0271
     14  CG        29.6340    4.6260   18.9120 C.3    67  LYS67       0.0035
     15  CD        29.7790    5.7030   17.8510 C.3    67  LYS67       0.0206
     16  CE        30.4630    6.9210   18.4400 C.3    67  LYS67       0.1093
     17  NZ        30.7060    8.0280   17.4800 N.3    67  LYS67      -0.1314
     18  N         35.0460    1.8850   10.4090 N.3    86  THR86      -0.1203
     19  CA        35.0310    3.0780   11.2400 C.3    86  THR86       0.1994
     20  C         34.3780    2.8050   12.5910 C.2    86  THR86       0.2617
     21  O         34.8280    3.3010   13.6170 O.2    86  THR86      -0.2717
     22  CB        34.3540    4.2920   10.5750 C.3    86  THR86       0.1784
     23  OG1       34.3230    5.4130   11.4300 O.3    86  THR86      -0.2211
     24  CG2       32.9120    4.0440   10.0640 C.3    86  THR86       0.0376
     25  N         33.3240    1.9870   12.6390 N.am   87  GLN87      -0.1979
     26  CA        32.6480    1.6920   13.9400 C.3    87  GLN87       0.1601
     27  C         31.7140    0.5380   13.7990 C.2    87  GLN87       0.2287
     28  O         31.3120    0.2000   12.6900 O.2    87  GLN87      -0.2864
     29  CB        31.8930    2.9030   14.4710 C.3    87  GLN87       0.0394
     30  CG        30.8720    3.5060   13.5030 C.3    87  GLN87       0.0908
     31  CD        29.4970    3.3530   14.0810 C.2    87  GLN87       0.2608
     32  OE1       29.1020    2.2100   14.3070 O.2    87  GLN87      -0.2717
     33  NE2       28.7350    4.3450   14.2020 N.am   87  GLN87      -0.0878
     34  N         27.9660   -0.9490   15.8150 N.3    89  HIS89      -0.1241
     35  CA        26.9510   -0.6410   16.8020 C.3    89  HIS89       0.1621
     36  C         25.7860   -1.5610   16.6060 C.2    89  HIS89       0.2264
     37  O         25.8070   -2.4200   15.7110 O.2    89  HIS89      -0.2867
     38  CB        26.4630    0.8420   16.5950 C.3    89  HIS89       0.0745
     39  CG        25.8550    1.0240   15.2600 C.ar   89  HIS89       0.0817
     40  ND1       26.5520    1.4620   14.1900 N.ar   89  HIS89      -0.2268
     41  CD2       24.5650    0.7770   14.7650 C.ar   89  HIS89       0.1154
     42  CE1       25.7650    1.4700   13.0820 C.ar   89  HIS89       0.1986
     43  NE2       24.5260    1.0290   13.4370 N.ar   89  HIS89      -0.2212
     44  N         21.2950   -2.4870   17.1140 N.3    91  HIS91      -0.1241
     45  CA        19.8550   -2.0250   17.1940 C.3    91  HIS91       0.1621
     46  C         19.1170   -3.1390   17.8420 C.2    91  HIS91       0.2264
     47  O         19.3890   -4.3210   17.5640 O.2    91  HIS91      -0.2867
     48  CB        19.3090   -1.8160   15.7780 C.3    91  HIS91       0.0745
     49  CG        20.0620   -0.7860   15.0010 C.ar   91  HIS91       0.0817
     50  ND1       19.7610    0.5810   15.0110 N.ar   91  HIS91      -0.2268
     51  CD2       21.1620   -0.9490   14.1360 C.ar   91  HIS91       0.1154
     52  CE1       20.6390    1.2460   14.1850 C.ar   91  HIS91       0.1986
     53  NE2       21.5060    0.3560   13.6700 N.ar   91  HIS91      -0.2212
     54  N         25.6650   -3.7280   13.1740 N.3   115  HIS115     -0.1241
     55  CA        26.1530   -3.0910   11.9500 C.3   115  HIS115      0.1621
     56  C         27.6350   -2.7940   12.1260 C.2   115  HIS115      0.2264
     57  O         28.0010   -2.1710   13.1240 O.2   115  HIS115     -0.2867
     58  CB        25.4140   -1.8240   11.7460 C.3   115  HIS115      0.0745
     59  CG        24.0240   -2.0510   11.3220 C.ar  115  HIS115      0.0817
     60  ND1       23.0280   -1.1210   11.4810 N.ar  115  HIS115     -0.2268
     61  CD2       23.4540   -3.2020   10.7630 C.ar  115  HIS115      0.1154
     62  CE1       21.8880   -1.6580   10.9610 C.ar  115  HIS115      0.1986
     63  NE2       22.1390   -2.9350   10.5420 N.ar  115  HIS115     -0.2212
     64  N         30.2120   -0.6150   10.2660 N.3   117  VAL117     -0.1245
     65  CA        30.2050    0.4690    9.2700 C.3   117  VAL117      0.1561
     66  C         31.6220    0.6330    8.7190 C.2   117  VAL117      0.2260
     67  O         32.5980    0.7120    9.4850 O.2   117  VAL117     -0.2867
     68  CB        29.7680    1.7570    9.9360 C.3   117  VAL117      0.0252
     69  CG1       29.7150    2.9380    8.9380 C.3   117  VAL117      0.0019
     70  CG2       28.3650    1.6080   10.6400 C.3   117  VAL117      0.0019
     71  N         35.1470    8.5210    7.5340 N.3   127  ALA127     -0.1231
     72  CA        33.7910    8.1850    7.3660 C.3   127  ALA127      0.1694
     73  C         32.8640    9.3870    7.3730 C.2   127  ALA127      0.2592
     74  O         31.8860    9.3080    6.5990 O.2   127  ALA127     -0.2718
     75  CB        33.3300    7.2080    8.4330 C.3   127  ALA127      0.0304
     76  N         33.1420   10.4580    8.1390 N.am  128  SER128     -0.1952
     77  CA        32.2170   11.5560    8.1220 C.3   128  SER128      0.1924
     78  C         32.2390   12.2310    6.7460 C.2   128  SER128      0.2314
     79  O         31.2000   12.5790    6.2310 O.2   128  SER128     -0.2863
     80  CB        32.3780   12.5510    9.2420 C.3   128  SER128      0.2116
     81  OG        33.6820   13.0440    9.2690 O.3   128  SER128     -0.2180
     82  N         30.3000    9.9620    4.1640 N.3   131  SER131     -0.1217
     83  CA        28.9570    9.4480    4.4530 C.3   131  SER131      0.1889
     84  C         27.9250   10.0790    3.5310 C.2   131  SER131      0.2288
     85  O         26.8920    9.4980    3.2790 O.2   131  SER131     -0.2866
     86  CB        28.6070    9.6060    5.9240 C.3   131  SER131      0.2089
     87  OG        28.5070   11.0060    6.1880 O.3   131  SER131     -0.2183
     88  N         29.8720    4.4430    1.6180 N.3   137  LEU137     -0.1245
     89  CA        29.8500    3.5520    2.7850 C.3   137  LEU137      0.1561
     90  C         29.4870    2.1030    2.4060 C.2   137  LEU137      0.2260
     91  O         28.8120    1.8770    1.4180 O.2   137  LEU137     -0.2867
     92  CB        28.8490    4.0490    3.8160 C.3   137  LEU137      0.0270
     93  CG        28.9900    5.4390    4.3880 C.3   137  LEU137      0.0019
     94  CD1       27.7520    5.8650    5.1920 C.3   137  LEU137      0.0001
     95  CD2       30.2790    5.5940    5.1720 C.3   137  LEU137      0.0001
     96  N         28.0990   -1.2590    4.7610 N.3   139  VAL139     -0.1245
     97  CA        27.7860   -1.7530    6.1290 C.3   139  VAL139      0.1561
     98  C         27.5730   -3.2510    6.0520 C.2   139  VAL139      0.2260
     99  O         26.8990   -3.7530    5.1210 O.2   139  VAL139     -0.2867
    100  CB        26.5570   -1.0230    6.7340 C.3   139  VAL139      0.0252
    101  CG1       26.2550   -1.5180    8.1230 C.3   139  VAL139      0.0019
    102  CG2       26.8160    0.4540    6.7360 C.3   139  VAL139      0.0019
    103  N         21.9530    5.0330    5.0140 N.3   195  LEU195     -0.1231
    104  CA        22.0400    4.9440    6.4470 C.3   195  LEU195      0.1693
    105  C         20.6250    4.7300    6.9760 C.2   195  LEU195      0.2593
    106  O         19.6610    5.3250    6.4600 O.2   195  LEU195     -0.2718
    107  CB        22.5400    6.2370    7.0450 C.3   195  LEU195      0.0284
    108  CG        24.0290    6.5100    6.8930 C.3   195  LEU195      0.0019
    109  CD1       24.3560    6.8940    5.4630 C.3   195  LEU195      0.0001
    110  CD2       24.3980    7.6020    7.9140 C.3   195  LEU195      0.0001
    111  N         20.4570    3.9270    8.0300 N.am  196  THR196     -0.1939
    112  CA        19.1320    3.7790    8.6280 C.3   196  THR196      0.2028
    113  C         18.8920    4.8230    9.7520 C.2   196  THR196      0.2642
    114  O         17.8630    4.8090   10.4080 O.2   196  THR196     -0.2714
    115  CB        18.9580    2.3810    9.2390 C.3   196  THR196      0.1808
    116  OG1       19.9110    2.3020   10.3440 O.3   196  THR196     -0.2208
    117  CG2       19.1990    1.2740    8.2540 C.3   196  THR196      0.0379
    118  N         19.8650    5.7320    9.9850 N.am  197  THR197     -0.1950
    119  CA        19.7750    6.7640   10.9050 C.3   197  THR197      0.1897
    120  C         20.0040    8.0930   10.1700 C.2   197  THR197      0.2313
    121  O         20.7190    8.1110    9.1790 O.2   197  THR197     -0.2863
    122  CB        20.9630    6.6290   11.9390 C.3   197  THR197      0.1794
    123  OG1       22.1850    6.4420   11.1630 O.3   197  THR197     -0.2208
    124  CG2       20.7110    5.4100   12.7680 C.3   197  THR197      0.0378
    125  N         21.8040   11.2350    8.8590 N.3   199  PRO199     -0.2116
    126  CA        20.9920   11.9280    7.8610 C.3   199  PRO199      0.1372
    127  C         20.4300   11.0550    6.7280 C.2   199  PRO199      0.2244
    128  O         19.9130   11.5800    5.7690 O.2   199  PRO199     -0.2868
    129  CB        22.0010   12.9300    7.2150 C.3   199  PRO199      0.0268
    130  CG        23.1380   12.9760    8.1870 C.3   199  PRO199      0.0207
    131  CD        23.2240   11.5530    8.7120 C.3   199  PRO199      0.0892
    132  N         24.9570    3.8130    1.1100 N.3   204  VAL204     -0.1245
    133  CA        25.3720    2.5540    1.6950 C.3   204  VAL204      0.1561
    134  C         25.2180    1.3500    0.8280 C.2   204  VAL204      0.2260
    135  O         24.1110    1.0520    0.3660 O.2   204  VAL204     -0.2867
    136  CB        24.6680    2.2870    3.0690 C.3   204  VAL204      0.0252
    137  CG1       25.0830    0.9410    3.6450 C.3   204  VAL204      0.0019
    138  CG2       24.9080    3.4160    4.0230 C.3   204  VAL204      0.0019
    139  N         24.8050   -2.2810    1.2080 N.3   206  TRP206     -0.1241
    140  CA        24.4680   -3.2430    2.3180 C.3   206  TRP206      0.1605
    141  C         24.8310   -4.6560    2.0320 C.2   206  TRP206      0.2264
    142  O         24.5790   -5.1420    0.9360 O.2   206  TRP206     -0.2867
    143  CB        22.9320   -3.1610    2.5990 C.3   206  TRP206      0.0550
    144  CG        22.5500   -1.9420    3.3920 C.ar  206  TRP206      0.0003
    145  CD1       22.1060   -0.6970    2.9410 C.ar  206  TRP206      0.0946
    146  CD2       22.6820   -1.8120    4.8120 C.ar  206  TRP206      0.0152
    147  NE1       21.9260    0.1440    4.0100 N.ar  206  TRP206     -0.2442
    148  CE2       22.2790   -0.4630    5.1670 C.ar  206  TRP206      0.0810
    149  CE3       23.1010   -2.7030    5.8140 C.ar  206  TRP206      0.0012
    150  CZ2       22.3320    0.0190    6.4610 C.ar  206  TRP206      0.0191
    151  CZ3       23.0930   -2.2250    7.1260 C.ar  206  TRP206      0.0001
    152  CH2       22.7440   -0.8680    7.4600 C.ar  206  TRP206      0.0015
@<TRIPOS>BOND
     1   135   134    2
     2   134   133    1
     3   142   141    2
     4   132   133    1
     5   139   140    1
     6    91    90    2
     7    88    89    1
     8   133   136    1
     9   141   140    1
    10   140   143    1
    11    90    89    1
    12   143   144    1
    13    89    92    1
    14   145   144   ar
    15   145   147   ar
    16   136   137    1
    17   136   138    1
    18    85    84    2
    19   144   146   ar
    20    84    83    1
    21    92    93    1
    22   147   148   ar
    23    82    83    1
    24    93    95    1
    25    93    94    1
    26    83    86    1
    27    96    97    1
    28   146   148   ar
    29   146   149   ar
    30   103   104    1
    31    99    98    2
    32   148   150   ar
    33   109   108    1
    34   128   127    2
    35   149   151   ar
    36    86    87    1
    37    98    97    1
    38    97   100    1
    39    79    78    2
    40   104   105    1
    41   104   107    1
    42   106   105    2
    43   150   152   ar
    44    74    73    2
    45   127   126    1
    46   100   102    1
    47   100   101    1
    48    78    77    1
    49   108   107    1
    50   108   110    1
    51   105   111   am
    52   151   152   ar
    53   129   126    1
    54   129   130    1
    55    72    73    1
    56    72    71    1
    57    72    75    1
    58    73    76   am
    59   126   125    1
    60   111   112    1
    61    77    76    1
    62    77    80    1
    63   130   131    1
    64   117   115    1
    65   112   115    1
    66   112   113    1
    67   131   125    1
    68    66    65    1
    69    66    67    2
    70    69    68    1
    71   121   120    2
    72   115   116    1
    73    80    81    1
    74    65    68    1
    75    65    64    1
    76   113   118   am
    77   113   114    2
    78    68    70    1
    79   118   119    1
    80    24    22    1
    81   120   119    1
    82    18    19    1
    83    63    61   ar
    84    63    62   ar
    85    22    19    1
    86    22    23    1
    87    61    59   ar
    88   119   122    1
    89    62    60   ar
    90   123   122    1
    91    19    20    1
    92    59    60   ar
    93    59    58    1
    94    58    55    1
    95   122   124    1
    96    55    56    1
    97    55    54    1
    98    56    57    2
    99    20    25   am
   100    20    21    2
   101    25    26    1
   102    28    27    2
   103    42    43   ar
   104    42    40   ar
   105    43    41   ar
   106    30    31    1
   107    30    29    1
   108    53    51   ar
   109    53    52   ar
   110    27    26    1
   111    26    29    1
   112    31    33   am
   113    31    32    2
   114    51    49   ar
   115    52    50   ar
   116    40    39   ar
   117    41    39   ar
   118    49    50   ar
   119    49    48    1
   120    39    38    1
   121    37    36    2
   122    48    45    1
   123    34    35    1
   124    38    35    1
   125    36    35    1
   126    44    45    1
   127    45    46    1
   128    17    16    1
   129    47    46    2
   130    15    16    1
   131    15    14    1
   132     8     6   am
   133    13    14    1
   134    13    10    1
   135    10    11    1
   136    10     9    1
   137     6     7    2
   138     6     5    1
   139    11    12    2
   140     5     2    1
   141     4     3    2
   142     2     3    1
   143     2     1    1
