@<TRIPOS>MOLECULE
tmp/5msdA00.pdb
 156 149 0 0 0
SMALL
GASTEIGER

@<TRIPOS>ATOM
      1  N         -6.0320   12.5110   34.6650 N.3   252  THR252     -0.1218
      2  CA        -5.5160   12.5970   36.0220 C.3   252  THR252      0.1862
      3  C         -5.8370   14.0100   36.5080 C.2   252  THR252      0.2287
      4  O         -5.8070   14.9670   35.7240 O.2   252  THR252     -0.2866
      5  CB        -3.9800   12.2800   36.0700 C.3   252  THR252      0.1770
      6  OG1       -3.4920   12.3140   37.4170 O.3   252  THR252     -0.2211
      7  CG2       -3.1880   13.2660   35.2230 C.3   252  THR252      0.0375
      8  N         -4.9380   15.4590   39.9880 N.3   254  GLY254     -0.1225
      9  CA        -4.1190   16.0900   41.0150 C.3   254  GLY254      0.1811
     10  C         -4.9990   16.5330   42.1750 C.2   254  GLY254      0.2280
     11  O         -5.9430   15.8260   42.5440 O.2   254  GLY254     -0.2866
     12  N         -6.4300    3.8970   35.4420 N.3   297  HIS297     -0.1226
     13  CA        -5.2340    4.3040   36.2000 C.3   297  HIS297      0.1752
     14  C         -4.0150    3.5500   35.7120 C.2   297  HIS297      0.2595
     15  O         -4.1310    2.3830   35.3550 O.2   297  HIS297     -0.2718
     16  CB        -5.3900    4.0520   37.7120 C.3   297  HIS297      0.0759
     17  CG        -4.3800    4.7930   38.5420 C.ar  297  HIS297      0.0818
     18  ND1       -3.1070    4.3150   38.7770 N.ar  297  HIS297     -0.2268
     19  CD2       -4.4380    6.0090   39.1380 C.ar  297  HIS297      0.1154
     20  CE1       -2.4380    5.1880   39.5090 C.ar  297  HIS297      0.1986
     21  NE2       -3.2180    6.2330   39.7270 N.ar  297  HIS297     -0.2212
     22  N         -2.8400    4.1790   35.7260 N.am  298  ILE298     -0.1980
     23  CA        -1.6600    3.4770   35.2390 C.3   298  ILE298      0.1595
     24  C         -1.3390    2.2130   36.0430 C.2   298  ILE298      0.2287
     25  O         -0.8550    1.2360   35.4810 O.2   298  ILE298     -0.2864
     26  CB        -0.4020    4.3750   35.2210 C.3   298  ILE298      0.0276
     27  CG1       -0.1500    4.9930   36.5880 C.3   298  ILE298      0.0022
     28  CG2       -0.5450    5.4550   34.1980 C.3   298  ILE298      0.0022
     29  CD1        1.3010    5.4010   36.7490 C.3   298  ILE298      0.0001
     30  N          2.1820    1.3230   46.8680 N.3   391  GLY391     -0.1210
     31  CA         2.3830    2.5690   46.1600 C.3   391  GLY391      0.1956
     32  C          1.0940    3.3640   46.0720 C.2   391  GLY391      0.2613
     33  O          0.0840    2.9670   46.6750 O.2   391  GLY391     -0.2717
     34  N          1.1720    4.4910   45.3540 N.am  392  SER392     -0.1938
     35  CA         0.0870    5.4430   45.0360 C.3   392  SER392      0.2055
     36  C         -0.1300    6.4920   46.1310 C.2   392  SER392      0.2643
     37  O         -0.6510    7.5690   45.8610 O.2   392  SER392     -0.2714
     38  CB        -1.2350    4.7140   44.7270 C.3   392  SER392      0.2130
     39  OG        -1.9960    4.4810   45.9060 O.3   392  SER392     -0.2179
     40  N          0.2990    6.1880   47.3520 N.am  393  ALA393     -0.1963
     41  CA         0.0680    7.0520   48.5100 C.3   393  ALA393      0.1713
     42  C          1.0010    6.6170   49.6370 C.2   393  ALA393      0.2458
     43  O          1.5350    5.5090   49.6040 O.2   393  ALA393     -0.2730
     44  CB        -1.4090    6.9870   48.9560 C.3   393  ALA393      0.0333
     45  N          1.2220    7.4880   50.6360 N.am  394  PRO394     -0.2727
     46  CA         2.1590    7.0790   51.6900 C.3   394  PRO394      0.1402
     47  C          1.6170    5.9970   52.6240 C.2   394  PRO394      0.2269
     48  O          0.4250    5.9620   52.9520 O.2   394  PRO394     -0.2865
     49  CB         2.4050    8.3800   52.4630 C.3   394  PRO394      0.0296
     50  CG         1.1950    9.2020   52.2190 C.3   394  PRO394      0.0237
     51  CD         0.7760    8.8830   50.8020 C.3   394  PRO394      0.0939
     52  N          8.2640   -0.2230   48.8510 N.3   413  ASP413     -0.1225
     53  CA         7.6020    1.0590   48.6670 C.3   413  ASP413      0.1805
     54  C          7.9660    1.6120   47.2960 C.2   413  ASP413      0.2598
     55  O          9.1150    1.9690   47.0350 O.2   413  ASP413     -0.2718
     56  CB         7.9940    2.0340   49.7780 C.3   413  ASP413      0.1424
     57  CG         7.4300    3.4270   49.5660 C.2   413  ASP413      0.3668
     58  OD1        6.3630    3.5690   48.9180 O.co2 413  ASP413     -0.2456
     59  OD2        8.0530    4.3900   50.0650 O.co2 413  ASP413     -0.2456
     60  N          6.9760    1.6500   46.4150 N.am  414  GLY414     -0.1942
     61  CA         7.1680    2.1240   45.0530 C.3   414  GLY414      0.2014
     62  C          6.5360    3.4810   44.8530 C.2   414  GLY414      0.2639
     63  O          5.3260    3.6310   44.9790 O.2   414  GLY414     -0.2714
     64  N          7.3640    4.4730   44.5530 N.am  415  TYR415     -0.1959
     65  CA         6.8930    5.8080   44.2350 C.3   415  TYR415      0.1771
     66  C          6.9480    6.0490   42.7270 C.2   415  TYR415      0.2620
     67  O          7.9530    5.7910   42.0800 O.2   415  TYR415     -0.2715
     68  CB         7.7230    6.8740   44.9740 C.3   415  TYR415      0.0574
     69  CG         7.5640    8.2600   44.3940 C.ar  415  TYR415     -0.0198
     70  CD1        8.4110    8.7130   43.3750 C.ar  415  TYR415     -0.0009
     71  CD2        6.5630    9.1120   44.8410 C.ar  415  TYR415     -0.0009
     72  CE1        8.2650    9.9830   42.8250 C.ar  415  TYR415      0.0417
     73  CE2        6.4140   10.3880   44.3010 C.ar  415  TYR415      0.0417
     74  CZ         7.2630   10.8140   43.2900 C.ar  415  TYR415      0.1957
     75  OH         7.1210   12.0700   42.7500 O.3   415  TYR415     -0.2866
     76  N          5.8530    6.5480   42.1730 N.am  416  GLY416     -0.1940
     77  CA         5.8310    6.9770   40.7920 C.3   416  GLY416      0.2014
     78  C          4.6070    7.8360   40.5540 C.2   416  GLY416      0.2640
     79  O          3.9050    8.2000   41.4980 O.2   416  GLY416     -0.2714
     80  N          4.3420    8.1590   39.2940 N.am  417  SER417     -0.1935
     81  CA         3.1930    8.9770   38.9790 C.3   417  SER417      0.2055
     82  C          2.7610    8.7510   37.5510 C.2   417  SER417      0.2644
     83  O          3.5070    8.1790   36.7530 O.2   417  SER417     -0.2714
     84  CB         3.5010   10.4590   39.2170 C.3   417  SER417      0.2130
     85  OG         4.4200   10.9620   38.2620 O.3   417  SER417     -0.2179
     86  N          1.5460    9.1890   37.2420 N.am  418  THR418     -0.1936
     87  CA         1.0600    9.1460   35.8720 C.3   418  THR418      0.2028
     88  C          2.0110    9.9160   34.9560 C.2   418  THR418      0.2642
     89  O          2.3300    9.4620   33.8430 O.2   418  THR418     -0.2714
     90  CB        -0.3540    9.7180   35.7750 C.3   418  THR418      0.1808
     91  OG1       -1.2150    8.9650   36.6370 O.3   418  THR418     -0.2208
     92  CG2       -0.8720    9.6490   34.3290 C.3   418  THR418      0.0379
     93  N          2.5110   11.0520   35.4380 N.am  419  GLU419     -0.1976
     94  CA         3.3770   11.8950   34.6060 C.3   419  GLU419      0.1602
     95  C          4.7980   11.3700   34.4680 C.2   419  GLU419      0.2287
     96  O          5.4080   11.5140   33.4080 O.2   419  GLU419     -0.2864
     97  CB         3.4270   13.3190   35.1540 C.3   419  GLU419      0.0415
     98  CG         2.1440   14.0700   34.9410 C.3   419  GLU419      0.1163
     99  CD         1.1450   13.8500   36.0590 C.2   419  GLU419      0.3649
    100  OE1        1.3810   12.9540   36.9080 O.co2 419  GLU419     -0.2457
    101  OE2        0.1440   14.5940   36.0910 O.co2 419  GLU419     -0.2457
    102  N          7.6280   17.4530   40.0210 N.3   490  THR490     -0.1218
    103  CA         6.7270   16.4250   40.5450 C.3   490  THR490      0.1862
    104  C          5.6340   16.9680   41.4490 C.2   490  THR490      0.2287
    105  O          4.6170   16.3070   41.6570 O.2   490  THR490     -0.2866
    106  CB         7.4920   15.3670   41.3420 C.3   490  THR490      0.1770
    107  OG1        8.2020   16.0050   42.4190 O.3   490  THR490     -0.2211
    108  CG2        8.4780   14.6380   40.4540 C.3   490  THR490      0.0375
    109  N          6.2080   17.0790   44.4840 N.3   492  ASP492     -0.1239
    110  CA         6.4310   16.2690   45.6720 C.3   492  ASP492      0.1674
    111  C          7.6760   16.7240   46.4190 C.2   492  ASP492      0.2266
    112  O          8.7050   16.9690   45.8090 O.2   492  ASP492     -0.2867
    113  CB         6.5670   14.7880   45.3050 C.3   492  ASP492      0.1410
    114  CG         5.2730   14.2080   44.7330 C.2   492  ASP492      0.3668
    115  OD1        4.2100   14.7060   45.1210 O.co2 492  ASP492     -0.2456
    116  OD2        5.3160   13.2860   43.8910 O.co2 492  ASP492     -0.2456
    117  N         10.3550   10.1370   50.4400 N.3   504  TYR504     -0.1241
    118  CA         9.1690   10.9280   50.1530 C.3   504  TYR504      0.1605
    119  C          8.6130   11.5710   51.4180 C.2   504  TYR504      0.2264
    120  O          8.5160   10.9210   52.4610 O.2   504  TYR504     -0.2867
    121  CB         8.1020   10.0550   49.5010 C.3   504  TYR504      0.0534
    122  CG         6.8130   10.7700   49.1570 C.ar  504  TYR504     -0.0201
    123  CD1        6.6300   11.3680   47.9080 C.ar  504  TYR504     -0.0009
    124  CD2        5.7690   10.8280   50.0690 C.ar  504  TYR504     -0.0009
    125  CE1        5.4240   12.0140   47.5880 C.ar  504  TYR504      0.0417
    126  CE2        4.5840   11.4630   49.7610 C.ar  504  TYR504      0.0417
    127  CZ         4.4150   12.0500   48.5260 C.ar  504  TYR504      0.1957
    128  OH         3.2160   12.6660   48.2490 O.3   504  TYR504     -0.2866
    129  N          3.0320   15.8050   49.2300 N.3   507  ARG507     -0.1245
    130  CA         2.7870   16.7310   48.1380 C.3   507  ARG507      0.1563
    131  C          3.0920   18.1170   48.6570 C.2   507  ARG507      0.2260
    132  O          2.7100   18.4370   49.7860 O.2   507  ARG507     -0.2867
    133  CB         1.3290   16.6880   47.6670 C.3   507  ARG507      0.0307
    134  CG         0.8280   15.3530   47.1800 C.3   507  ARG507      0.0489
    135  CD         1.2310   15.1110   45.7480 C.3   507  ARG507      0.2205
    136  NE         0.8410   16.1810   44.8420 N.pl3 507  ARG507     -0.0865
    137  CZ         1.4630   16.4390   43.6930 C.cat 507  ARG507      0.5346
    138  NH1        2.5100   15.7060   43.3210 N.pl3 507  ARG507      0.1354
    139  NH2        1.0460   17.4340   42.9180 N.pl3 507  ARG507      0.1354
    140  N         -8.6730    4.2960   42.8800 N.3   611  ILE611     -0.1245
    141  CA        -7.6880    3.4190   43.5130 C.3   611  ILE611      0.1561
    142  C         -7.6450    3.6530   45.0340 C.2   611  ILE611      0.2260
    143  O         -6.6400    3.3770   45.6930 O.2   611  ILE611     -0.2867
    144  CB        -6.2890    3.5940   42.8980 C.3   611  ILE611      0.0252
    145  CG1       -5.7810    5.0230   43.0700 C.3   611  ILE611      0.0019
    146  CG2       -6.3060    3.1980   41.4080 C.3   611  ILE611      0.0019
    147  CD1       -4.2960    5.1410   42.8590 C.3   611  ILE611      0.0001
    148  N         -7.7770    6.3080   46.9500 N.3   613  LYS613     -0.1245
    149  CA        -7.0300    7.4240   47.5150 C.3   613  LYS613      0.1561
    150  C         -8.0120    8.5130   47.9440 C.2   613  LYS613      0.2260
    151  O         -8.9950    8.7410   47.2450 O.2   613  LYS613     -0.2867
    152  CB        -6.0400    7.9350   46.4780 C.3   613  LYS613      0.0271
    153  CG        -5.0750    8.9410   46.9810 C.3   613  LYS613      0.0035
    154  CD        -3.9930    9.0980   45.9380 C.3   613  LYS613      0.0206
    155  CE        -2.8870    9.9860   46.4320 C.3   613  LYS613      0.1093
    156  NZ        -1.8170   10.0420   45.3870 N.3   613  LYS613     -0.1314
@<TRIPOS>BOND
     1    96    95    2
     2    89    88    2
     3    28    26    1
     4    92    90    1
     5    95    94    1
     6    94    97    1
     7    94    93    1
     8     1     2    1
     9    98    97    1
    10    98    99    1
    11    88    93   am
    12    88    87    1
    13    26    23    1
    14    26    27    1
    15     7     5    1
    16    23    22    1
    17    23    24    1
    18    15    14    2
    19    12    13    1
    20    25    24    2
    21    14    22   am
    22    14    13    1
    23     4     3    2
    24    90    87    1
    25    90    91    1
    26    87    86    1
    27     2     5    1
    28     2     3    1
    29    99   101   ar
    30    99   100   ar
    31     5     6    1
    32    13    16    1
    33    27    29    1
    34    83    82    2
    35    86    82   am
    36    82    81    1
    37    16    17    1
    38    85    84    1
    39    17    18   ar
    40    17    19   ar
    41    18    20   ar
    42    81    84    1
    43    81    80    1
    44    19    21   ar
    45    80    78   am
    46    20    21   ar
    47     8     9    1
    48   102   103    1
    49   108   106    1
    50   103   106    1
    51   103   104    1
    52    78    77    1
    53    78    79    2
    54    77    76    1
    55     9    10    1
    56   106   107    1
    57   146   144    1
    58   104   105    2
    59    67    66    2
    60    76    66   am
    61    10    11    2
    62    66    65    1
    63    75    74    1
    64    72    74   ar
    65    72    70   ar
    66   147   145    1
    67   140   141    1
    68   144   145    1
    69   144   141    1
    70   139   137    1
    71    74    73   ar
    72   138   137    1
    73    70    69   ar
    74   141   142    1
    75   137   136    2
    76   116   114   ar
    77    65    64    1
    78    65    68    1
    79    73    71   ar
    80    69    71   ar
    81    69    68    1
    82   109   110    1
    83    64    62   am
    84    38    35    1
    85    38    39    1
    86   114   115   ar
    87   114   113    1
    88   136   135    1
    89    62    63    2
    90    62    61    1
    91   142   143    2
    92    35    34    1
    93    35    36    1
    94    61    60    1
    95   113   110    1
    96    34    32   am
    97   156   155    1
    98   110   111    1
    99   135   134    1
   100   112   111    2
   101    37    36    2
   102   154   155    1
   103   154   153    1
   104    32    31    1
   105    32    33    2
   106    36    40   am
   107    31    30    1
   108    60    54   am
   109   152   153    1
   110   152   149    1
   111   148   149    1
   112    55    54    2
   113   134   133    1
   114   151   150    2
   115    54    53    1
   116    40    41    1
   117   149   150    1
   118   125   123   ar
   119   125   127   ar
   120   133   130    1
   121   123   122   ar
   122   130   131    1
   123   130   129    1
   124   128   127    1
   125    41    44    1
   126    41    42    1
   127   127   126   ar
   128   131   132    2
   129    53    52    1
   130    53    56    1
   131    58    57   ar
   132   122   121    1
   133   122   124   ar
   134   121   118    1
   135    57    56    1
   136    57    59   ar
   137    43    42    2
   138    42    45   am
   139   126   124   ar
   140   118   117    1
   141   118   119    1
   142    45    51    1
   143    45    46    1
   144    51    50    1
   145   119   120    2
   146    46    49    1
   147    46    47    1
   148    50    49    1
   149    47    48    2
