@<TRIPOS>MOLECULE
tmp/5msdA01.pdb
 103 98 0 0 0
SMALL
GASTEIGER

@<TRIPOS>ATOM
      1  N         -6.4300    3.8970   35.4420 N.3   297  HIS297     -0.1226
      2  CA        -5.2340    4.3040   36.2000 C.3   297  HIS297      0.1752
      3  C         -4.0150    3.5500   35.7120 C.2   297  HIS297      0.2596
      4  O         -4.1310    2.3830   35.3550 O.2   297  HIS297     -0.2718
      5  CB        -5.3900    4.0520   37.7120 C.3   297  HIS297      0.0759
      6  CG        -4.3800    4.7930   38.5420 C.ar  297  HIS297      0.0818
      7  ND1       -3.1070    4.3150   38.7770 N.ar  297  HIS297     -0.2268
      8  CD2       -4.4380    6.0090   39.1380 C.ar  297  HIS297      0.1154
      9  CE1       -2.4380    5.1880   39.5090 C.ar  297  HIS297      0.1986
     10  NE2       -3.2180    6.2330   39.7270 N.ar  297  HIS297     -0.2212
     11  N         -2.8400    4.1790   35.7260 N.am  298  ILE298     -0.1966
     12  CA        -1.6600    3.4770   35.2390 C.3   298  ILE298      0.1727
     13  C         -1.3390    2.2130   36.0430 C.2   298  ILE298      0.2616
     14  O         -0.8550    1.2360   35.4810 O.2   298  ILE298     -0.2715
     15  CB        -0.4020    4.3750   35.2210 C.3   298  ILE298      0.0290
     16  CG1       -0.1500    4.9930   36.5880 C.3   298  ILE298      0.0022
     17  CG2       -0.5450    5.4550   34.1980 C.3   298  ILE298      0.0023
     18  CD1        1.3010    5.4010   36.7490 C.3   298  ILE298      0.0001
     19  N         -1.6130    2.1890   37.3450 N.am  299  ALA299     -0.1977
     20  CA        -1.3100    0.9740   38.1070 C.3   299  ALA299      0.1597
     21  C         -2.1720   -0.2150   37.6530 C.2   299  ALA299      0.2287
     22  O         -1.7340   -1.3720   37.6850 O.2   299  ALA299     -0.2864
     23  CB        -1.4890    1.2280   39.6110 C.3   299  ALA299      0.0319
     24  N         -0.6280   -1.5060   34.3180 N.3   302  ILE302     -0.1245
     25  CA         0.6060   -2.2280   34.5800 C.3   302  ILE302      0.1561
     26  C          0.3110   -3.6090   35.1550 C.2   302  ILE302      0.2260
     27  O          0.9700   -4.5810   34.7900 O.2   302  ILE302     -0.2867
     28  CB         1.5100   -1.4160   35.5110 C.3   302  ILE302      0.0252
     29  CG1        2.0840   -0.2380   34.7350 C.3   302  ILE302      0.0019
     30  CG2        2.6280   -2.2760   36.0750 C.3   302  ILE302      0.0019
     31  CD1        2.7740    0.7820   35.5930 C.3   302  ILE302      0.0001
     32  N          0.1600   -5.5130   44.0380 N.3   338  PHE338     -0.1241
     33  CA         0.3920   -4.0950   44.2470 C.3   338  PHE338      0.1605
     34  C         -0.6380   -3.6460   45.2720 C.2   338  PHE338      0.2264
     35  O         -1.8310   -3.5670   44.9590 O.2   338  PHE338     -0.2867
     36  CB         0.2570   -3.2990   42.9510 C.3   338  PHE338      0.0534
     37  CG         0.5090   -1.8140   43.1090 C.ar  338  PHE338     -0.0203
     38  CD1        1.7960   -1.3190   43.1460 C.ar  338  PHE338     -0.0042
     39  CD2       -0.5440   -0.9150   43.2060 C.ar  338  PHE338     -0.0042
     40  CE1        2.0460    0.0360   43.2770 C.ar  338  PHE338     -0.0003
     41  CE2       -0.3080    0.4480   43.3340 C.ar  338  PHE338     -0.0003
     42  CZ         0.9890    0.9280   43.3780 C.ar  338  PHE338     -0.0000
     43  N          1.1720    4.4910   45.3540 N.3   392  SER392     -0.1217
     44  CA         0.0870    5.4430   45.0360 C.3   392  SER392      0.1889
     45  C         -0.1300    6.4920   46.1310 C.2   392  SER392      0.2288
     46  O         -0.6510    7.5690   45.8610 O.2   392  SER392     -0.2866
     47  CB        -1.2350    4.7140   44.7270 C.3   392  SER392      0.2089
     48  OG        -1.9960    4.4810   45.9060 O.3   392  SER392     -0.2183
     49  N          6.9760    1.6500   46.4150 N.3   414  GLY414     -0.1210
     50  CA         7.1680    2.1240   45.0530 C.3   414  GLY414      0.1956
     51  C          6.5360    3.4810   44.8530 C.2   414  GLY414      0.2612
     52  O          5.3260    3.6310   44.9790 O.2   414  GLY414     -0.2717
     53  N          7.3640    4.4730   44.5530 N.am  415  TYR415     -0.1962
     54  CA         6.8930    5.8080   44.2350 C.3   415  TYR415      0.1771
     55  C          6.9480    6.0490   42.7270 C.2   415  TYR415      0.2620
     56  O          7.9530    5.7910   42.0800 O.2   415  TYR415     -0.2715
     57  CB         7.7230    6.8740   44.9740 C.3   415  TYR415      0.0574
     58  CG         7.5640    8.2600   44.3940 C.ar  415  TYR415     -0.0198
     59  CD1        8.4110    8.7130   43.3750 C.ar  415  TYR415     -0.0009
     60  CD2        6.5630    9.1120   44.8410 C.ar  415  TYR415     -0.0009
     61  CE1        8.2650    9.9830   42.8250 C.ar  415  TYR415      0.0417
     62  CE2        6.4140   10.3880   44.3010 C.ar  415  TYR415      0.0417
     63  CZ         7.2630   10.8140   43.2900 C.ar  415  TYR415      0.1957
     64  OH         7.1210   12.0700   42.7500 O.3   415  TYR415     -0.2866
     65  N          5.8530    6.5480   42.1730 N.am  416  GLY416     -0.1940
     66  CA         5.8310    6.9770   40.7920 C.3   416  GLY416      0.2014
     67  C          4.6070    7.8360   40.5540 C.2   416  GLY416      0.2640
     68  O          3.9050    8.2000   41.4980 O.2   416  GLY416     -0.2714
     69  N          4.3420    8.1590   39.2940 N.am  417  SER417     -0.1935
     70  CA         3.1930    8.9770   38.9790 C.3   417  SER417      0.2055
     71  C          2.7610    8.7510   37.5510 C.2   417  SER417      0.2643
     72  O          3.5070    8.1790   36.7530 O.2   417  SER417     -0.2714
     73  CB         3.5010   10.4590   39.2170 C.3   417  SER417      0.2130
     74  OG         4.4200   10.9620   38.2620 O.3   417  SER417     -0.2179
     75  N          1.5460    9.1890   37.2420 N.am  418  THR418     -0.1950
     76  CA         1.0600    9.1460   35.8720 C.3   418  THR418      0.1897
     77  C          2.0110    9.9160   34.9560 C.2   418  THR418      0.2313
     78  O          2.3300    9.4620   33.8430 O.2   418  THR418     -0.2863
     79  CB        -0.3540    9.7180   35.7750 C.3   418  THR418      0.1794
     80  OG1       -1.2150    8.9650   36.6370 O.3   418  THR418     -0.2208
     81  CG2       -0.8720    9.6490   34.3290 C.3   418  THR418      0.0378
     82  N          6.0890    4.6000   36.5740 N.3   422  ALA422     -0.1245
     83  CA         5.8510    3.8100   37.7820 C.3   422  ALA422      0.1562
     84  C          7.1150    3.5540   38.5890 C.2   422  ALA422      0.2260
     85  O          7.0780    3.4850   39.8130 O.2   422  ALA422     -0.2867
     86  CB         5.2000    2.4820   37.4140 C.3   422  ALA422      0.0290
     87  N         -8.6730    4.2960   42.8800 N.3   611  ILE611     -0.1245
     88  CA        -7.6880    3.4190   43.5130 C.3   611  ILE611      0.1561
     89  C         -7.6450    3.6530   45.0340 C.2   611  ILE611      0.2260
     90  O         -6.6400    3.3770   45.6930 O.2   611  ILE611     -0.2867
     91  CB        -6.2890    3.5940   42.8980 C.3   611  ILE611      0.0252
     92  CG1       -5.7810    5.0230   43.0700 C.3   611  ILE611      0.0019
     93  CG2       -6.3060    3.1980   41.4080 C.3   611  ILE611      0.0019
     94  CD1       -4.2960    5.1410   42.8590 C.3   611  ILE611      0.0001
     95  N         -7.7770    6.3080   46.9500 N.3   613  LYS613     -0.1245
     96  CA        -7.0300    7.4240   47.5150 C.3   613  LYS613      0.1561
     97  C         -8.0120    8.5130   47.9440 C.2   613  LYS613      0.2260
     98  O         -8.9950    8.7410   47.2450 O.2   613  LYS613     -0.2867
     99  CB        -6.0400    7.9350   46.4780 C.3   613  LYS613      0.0271
    100  CG        -5.0750    8.9410   46.9810 C.3   613  LYS613      0.0035
    101  CD        -3.9930    9.0980   45.9380 C.3   613  LYS613      0.0206
    102  CE        -2.8870    9.9860   46.4320 C.3   613  LYS613      0.1093
    103  NZ        -1.8170   10.0420   45.3870 N.3   613  LYS613     -0.1314
@<TRIPOS>BOND
     1    78    77    2
     2    17    15    1
     3    24    25    1
     4    81    79    1
     5    25    26    1
     6    25    28    1
     7    29    28    1
     8    29    31    1
     9    27    26    2
    10    77    76    1
    11    15    12    1
    12    15    16    1
    13    12    11    1
    14    12    13    1
    15     4     3    2
    16     1     2    1
    17    14    13    2
    18    28    30    1
    19     3    11   am
    20     3     2    1
    21    79    76    1
    22    79    80    1
    23    76    75    1
    24    13    19   am
    25     2     5    1
    26    82    83    1
    27    16    18    1
    28    72    71    2
    29    75    71   am
    30    19    20    1
    31    86    83    1
    32    71    70    1
    33    21    22    2
    34    21    20    1
    35     5     6    1
    36    83    84    1
    37    20    23    1
    38    74    73    1
    39     6     7   ar
    40     6     8   ar
    41    84    85    2
    42     7     9   ar
    43    70    73    1
    44    70    69    1
    45     8    10   ar
    46    69    67   am
    47     9    10   ar
    48    67    66    1
    49    67    68    2
    50    66    65    1
    51    93    91    1
    52    56    55    2
    53    65    55   am
    54    55    54    1
    55    64    63    1
    56    61    63   ar
    57    61    59   ar
    58    94    92    1
    59    87    88    1
    60    91    92    1
    61    91    88    1
    62    36    37    1
    63    36    33    1
    64    37    38   ar
    65    37    39   ar
    66    38    40   ar
    67    39    41   ar
    68    40    42   ar
    69    63    62   ar
    70    41    42   ar
    71    59    58   ar
    72    88    89    1
    73    32    33    1
    74    54    53    1
    75    54    57    1
    76    33    34    1
    77    62    60   ar
    78    58    60   ar
    79    58    57    1
    80    53    51   am
    81    47    44    1
    82    47    48    1
    83    51    52    2
    84    51    50    1
    85    35    34    2
    86    89    90    2
    87    44    43    1
    88    44    45    1
    89    50    49    1
    90   103   102    1
    91    46    45    2
    92   101   102    1
    93   101   100    1
    94    99   100    1
    95    99    96    1
    96    95    96    1
    97    98    97    2
    98    96    97    1
