@<TRIPOS>MOLECULE
tmp/5mssA00.pdb
 168 164 0 0 0
SMALL
GASTEIGER

@<TRIPOS>ATOM
      1  N         65.9540  134.6610   37.4230 N.3   249  THR249     -0.1218
      2  CA        64.5460  135.0190   37.3310 C.3   249  THR249      0.1862
      3  C         64.1890  135.9850   38.4670 C.2   249  THR249      0.2287
      4  O         64.7110  135.9410   39.5620 O.2   249  THR249     -0.2866
      5  CB        63.6230  133.7160   37.3180 C.3   249  THR249      0.1770
      6  OG1       62.2290  134.0260   37.5720 O.3   249  THR249     -0.2211
      7  CG2       64.0610  132.7550   38.3790 C.3   249  THR249      0.0375
      8  N         66.2390  133.0830   28.2480 N.3   294  HIS294     -0.1226
      9  CA        64.8400  132.9180   28.6860 C.3   294  HIS294      0.1752
     10  C         64.6140  131.4230   28.5450 C.2   294  HIS294      0.2595
     11  O         65.0110  130.8600   27.5710 O.2   294  HIS294     -0.2718
     12  CB        63.9400  133.7570   27.7570 C.3   294  HIS294      0.0759
     13  CG        62.5120  133.8750   28.2180 C.ar  294  HIS294      0.0818
     14  ND1       61.6330  132.8060   28.2480 N.ar  294  HIS294     -0.2268
     15  CD2       61.7880  134.9590   28.6060 C.ar  294  HIS294      0.1154
     16  CE1       60.4470  133.2130   28.6780 C.ar  294  HIS294      0.1986
     17  NE2       60.5120  134.5180   28.9070 N.ar  294  HIS294     -0.2212
     18  N         64.0930  130.7580   29.5500 N.am  295  VAL295     -0.1980
     19  CA        63.8280  129.3000   29.4820 C.3   295  VAL295      0.1595
     20  C         63.0810  128.8890   28.2100 C.2   295  VAL295      0.2287
     21  O         63.3890  127.8350   27.6570 O.2   295  VAL295     -0.2864
     22  CB        63.1550  128.7330   30.7520 C.3   295  VAL295      0.0276
     23  CG1       61.6660  128.9750   30.8110 C.3   295  VAL295      0.0022
     24  CG2       63.4160  127.2420   30.8600 C.3   295  VAL295      0.0022
     25  N         52.7290  130.1790   25.3900 N.3   386  GLY386     -0.1210
     26  CA        52.9990  130.0880   26.8240 C.3   386  GLY386      0.1956
     27  C         53.8370  131.2810   27.2400 C.2   386  GLY386      0.2613
     28  O         54.0170  132.2260   26.4750 O.2   386  GLY386     -0.2717
     29  N         54.2260  131.2960   28.5180 N.am  387  SER387     -0.1938
     30  CA        54.9220  132.4260   29.1850 C.3   387  SER387      0.2055
     31  C         54.0290  133.4500   29.7610 C.2   387  SER387      0.2643
     32  O         54.4610  134.1780   30.5990 O.2   387  SER387     -0.2714
     33  CB        55.9240  133.1360   28.2790 C.3   387  SER387      0.2130
     34  OG        56.8530  132.1910   27.9000 O.3   387  SER387     -0.2179
     35  N         52.7850  133.5130   29.3050 N.am  388  ALA388     -0.1963
     36  CA        51.8130  134.4710   29.7800 C.3   388  ALA388      0.1713
     37  C         50.4720  134.0220   29.2660 C.2   388  ALA388      0.2458
     38  O         50.4260  133.2460   28.3770 O.2   388  ALA388     -0.2730
     39  CB        52.1370  135.9100   29.2730 C.3   388  ALA388      0.0333
     40  N         49.3760  134.4290   29.9130 N.am  389  PRO389     -0.2727
     41  CA        48.0490  133.9700   29.4560 C.3   389  PRO389      0.1402
     42  C         47.5960  134.6540   28.1800 C.2   389  PRO389      0.2269
     43  O         48.1030  135.7350   27.7740 O.2   389  PRO389     -0.2865
     44  CB        47.1020  134.3820   30.5950 C.3   389  PRO389      0.0296
     45  CG        47.7820  135.6850   31.0990 C.3   389  PRO389      0.0237
     46  CD        49.2800  135.3000   31.0970 C.3   389  PRO389      0.0939
     47  N         48.1530  125.4490   24.8070 N.3   408  ASP408     -0.1225
     48  CA        48.6250  126.3780   25.8750 C.3   408  ASP408      0.1805
     49  C         49.4820  125.6120   26.8380 C.2   408  ASP408      0.2598
     50  O         49.0360  124.6570   27.3950 O.2   408  ASP408     -0.2718
     51  CB        47.4700  127.0510   26.6530 C.3   408  ASP408      0.1424
     52  CG        47.9230  127.6220   27.9720 C.2   408  ASP408      0.3668
     53  OD1       48.7730  128.5140   27.9190 O.co2 408  ASP408     -0.2456
     54  OD2       47.3710  127.2990   29.0540 O.co2 408  ASP408     -0.2456
     55  N         50.7430  126.0310   26.9730 N.am  409  GLY409     -0.1942
     56  CA        51.7050  125.3990   27.8380 C.3   409  GLY409      0.2014
     57  C         52.0570  126.2820   28.9720 C.2   409  GLY409      0.2639
     58  O         52.6150  127.3830   28.7260 O.2   409  GLY409     -0.2714
     59  N         51.7510  125.8320   30.1840 N.am  410  TYR410     -0.1959
     60  CA        52.1140  126.5170   31.4710 C.3   410  TYR410      0.1771
     61  C         53.2490  125.7460   32.1850 C.2   410  TYR410      0.2620
     62  O         53.2130  124.5600   32.3250 O.2   410  TYR410     -0.2715
     63  CB        50.8770  126.6100   32.3820 C.3   410  TYR410      0.0574
     64  CG        51.1770  127.0370   33.7810 C.ar  410  TYR410     -0.0198
     65  CD1       51.3820  128.3770   34.1160 C.ar  410  TYR410     -0.0009
     66  CD2       51.3260  126.1070   34.7590 C.ar  410  TYR410     -0.0009
     67  CE1       51.7550  128.7380   35.3970 C.ar  410  TYR410      0.0417
     68  CE2       51.6730  126.4410   36.0340 C.ar  410  TYR410      0.0417
     69  CZ        51.9100  127.7400   36.3510 C.ar  410  TYR410      0.1957
     70  OH        52.2650  128.0150   37.6590 O.3   410  TYR410     -0.2866
     71  N         54.2750  126.4690   32.5910 N.am  411  GLY411     -0.1940
     72  CA        55.2850  126.0070   33.4840 C.3   411  GLY411      0.2014
     73  C         56.1910  127.1420   33.8250 C.2   411  GLY411      0.2640
     74  O         55.8140  128.3230   33.5850 O.2   411  GLY411     -0.2714
     75  N         57.3290  126.8270   34.4470 N.am  412  SER412     -0.1935
     76  CA        58.2310  127.8450   34.9280 C.3   412  SER412      0.2055
     77  C         59.6680  127.3240   34.9830 C.2   412  SER412      0.2644
     78  O         59.9480  126.1270   35.0340 O.2   412  SER412     -0.2714
     79  CB        57.8010  128.3050   36.3180 C.3   412  SER412      0.2130
     80  OG        57.8120  127.2470   37.2550 O.3   412  SER412     -0.2179
     81  N         60.5380  128.2810   35.1280 N.am  413  THR413     -0.1936
     82  CA        61.9370  128.0730   35.3930 C.3   413  THR413      0.2028
     83  C         62.1630  127.1750   36.6080 C.2   413  THR413      0.2642
     84  O         62.9720  126.2460   36.5510 O.2   413  THR413     -0.2714
     85  CB        62.6130  129.4410   35.6150 C.3   413  THR413      0.1808
     86  OG1       62.6250  130.1700   34.3930 O.3   413  THR413     -0.2208
     87  CG2       63.9840  129.2750   36.0740 C.3   413  THR413      0.0379
     88  N         61.4360  127.4290   37.6800 N.am  414  GLU414     -0.1976
     89  CA        61.5730  126.6840   38.8930 C.3   414  GLU414      0.1602
     90  C         60.9590  125.2490   38.8260 C.2   414  GLU414      0.2287
     91  O         61.5300  124.3580   39.3230 O.2   414  GLU414     -0.2864
     92  CB        60.8880  127.4250   39.9930 C.3   414  GLU414      0.0415
     93  CG        61.5730  128.6510   40.5290 C.3   414  GLU414      0.1163
     94  CD        61.1880  129.9510   39.8370 C.2   414  GLU414      0.3649
     95  OE1       60.5080  129.9430   38.7590 O.co2 414  GLU414     -0.2457
     96  OE2       61.5820  130.9890   40.3610 O.co2 414  GLU414     -0.2457
     97  N         51.3520  122.3700   33.1350 N.3   419  TRP419     -0.1241
     98  CA        50.0980  121.9520   32.4550 C.3   419  TRP419      0.1605
     99  C         50.1360  122.1940   30.9520 C.2   419  TRP419      0.2264
    100  O         50.8610  123.0730   30.4180 O.2   419  TRP419     -0.2867
    101  CB        48.7980  122.5710   33.1140 C.3   419  TRP419      0.0550
    102  CG        48.3780  123.9450   32.7760 C.ar  419  TRP419      0.0003
    103  CD1       48.0880  124.4250   31.5250 C.ar  419  TRP419      0.0946
    104  CD2       48.0360  124.9910   33.6920 C.ar  419  TRP419      0.0152
    105  NE1       47.7250  125.7250   31.6120 N.ar  419  TRP419     -0.2442
    106  CE2       47.6440  126.0930   32.9220 C.ar  419  TRP419      0.0810
    107  CE3       48.0840  125.1120   35.0810 C.ar  419  TRP419      0.0012
    108  CZ2       47.2640  127.2950   33.4710 C.ar  419  TRP419      0.0191
    109  CZ3       47.6900  126.3150   35.6520 C.ar  419  TRP419      0.0001
    110  CH2       47.2730  127.4000   34.8460 C.ar  419  TRP419      0.0015
    111  N         53.9310  128.2280   43.5370 N.3   484  THR484     -0.1218
    112  CA        54.1570  128.8470   42.1990 C.3   484  THR484      0.1862
    113  C         54.0570  130.4220   42.2300 C.2   484  THR484      0.2287
    114  O         54.5490  131.0590   41.3360 O.2   484  THR484     -0.2866
    115  CB        53.0970  128.3290   41.1590 C.3   484  THR484      0.1770
    116  OG1       51.7440  128.7230   41.5930 O.3   484  THR484     -0.2211
    117  CG2       53.2260  126.8450   41.0190 C.3   484  THR484      0.0375
    118  N         51.2460  131.7370   41.5920 N.3   486  ASP486     -0.1239
    119  CA        50.2280  131.9050   40.5770 C.3   486  ASP486      0.1674
    120  C         48.8760  131.4630   41.1470 C.2   486  ASP486      0.2266
    121  O         48.7250  130.3420   41.5720 O.2   486  ASP486     -0.2867
    122  CB        50.5180  131.0860   39.2950 C.3   486  ASP486      0.1410
    123  CG        51.7710  131.4900   38.5510 C.2   486  ASP486      0.3668
    124  OD1       51.9920  132.7520   38.3770 O.co2 486  ASP486     -0.2456
    125  OD2       52.5780  130.5580   38.1450 O.co2 486  ASP486     -0.2456
    126  N         44.6070  130.0220   34.6690 N.3   498  TYR498     -0.1241
    127  CA        45.3950  131.1030   35.2720 C.3   498  TYR498      0.1605
    128  C         44.5010  132.3120   35.5900 C.2   498  TYR498      0.2264
    129  O         43.7550  132.7640   34.7280 O.2   498  TYR498     -0.2867
    130  CB        46.5790  131.5220   34.3480 C.3   498  TYR498      0.0534
    131  CG        47.4100  132.6300   34.9150 C.ar  498  TYR498     -0.0201
    132  CD1       47.0650  133.9980   34.6850 C.ar  498  TYR498     -0.0009
    133  CD2       48.4510  132.3750   35.7700 C.ar  498  TYR498     -0.0009
    134  CE1       47.7800  135.0000   35.2550 C.ar  498  TYR498      0.0417
    135  CE2       49.1740  133.3680   36.3050 C.ar  498  TYR498      0.0417
    136  CZ        48.8550  134.6890   36.0160 C.ar  498  TYR498      0.1957
    137  OH        49.5530  135.7200   36.5480 O.3   498  TYR498     -0.2866
    138  N         48.2600  136.7080   40.3860 N.3   501  ARG501     -0.1245
    139  CA        49.4320  136.4570   41.1920 C.3   501  ARG501      0.1563
    140  C         49.1160  136.7280   42.6630 C.2   501  ARG501      0.2260
    141  O         48.3220  137.6220   42.9720 O.2   501  ARG501     -0.2867
    142  CB        50.5960  137.3150   40.7320 C.3   501  ARG501      0.0307
    143  CG        51.1460  136.8480   39.3420 C.3   501  ARG501      0.0489
    144  CD        52.6760  136.7120   39.4260 C.3   501  ARG501      0.2205
    145  NE        53.0590  135.3870   39.5850 N.pl3 501  ARG501     -0.0865
    146  CZ        54.2080  134.8740   40.0400 C.cat 501  ARG501      0.5346
    147  NH1       55.2880  135.5230   40.4880 N.pl3 501  ARG501      0.1354
    148  NH2       54.2050  133.5830   40.0400 N.pl3 501  ARG501      0.1354
    149  N         53.7950  138.7300   34.8200 N.3   507  LYS507     -0.1245
    150  CA        54.1400  138.6310   33.3740 C.3   507  LYS507      0.1561
    151  C         53.2410  139.5620   32.6430 C.2   507  LYS507      0.2260
    152  O         52.0700  139.7340   33.0490 O.2   507  LYS507     -0.2867
    153  CB        53.8300  137.2320   32.8590 C.3   507  LYS507      0.0271
    154  CG        54.8090  136.0620   33.2170 C.3   507  LYS507      0.0035
    155  CD        56.2760  136.3460   32.8640 C.3   507  LYS507      0.0206
    156  CE        57.2370  135.2230   33.2160 C.3   507  LYS507      0.1093
    157  NZ        57.2230  134.2490   32.1440 N.3   507  LYS507     -0.1314
    158  N         58.8350  138.9560   33.4200 N.3   513  PHE513     -0.1241
    159  CA        58.2210  139.4040   34.6540 C.3   513  PHE513      0.1605
    160  C         58.4950  140.8880   34.7640 C.2   513  PHE513      0.2264
    161  O         59.5830  141.3260   34.3490 O.2   513  PHE513     -0.2867
    162  CB        58.8860  138.7130   35.8440 C.3   513  PHE513      0.0534
    163  CG        58.3380  137.3490   36.1760 C.ar  513  PHE513     -0.0203
    164  CD1       57.0270  137.2140   36.5670 C.ar  513  PHE513     -0.0042
    165  CD2       59.1640  136.2350   36.2060 C.ar  513  PHE513     -0.0042
    166  CE1       56.5010  135.9850   36.8970 C.ar  513  PHE513     -0.0003
    167  CE2       58.6310  134.9620   36.5780 C.ar  513  PHE513     -0.0003
    168  CZ        57.3010  134.8680   36.9170 C.ar  513  PHE513     -0.0000
@<TRIPOS>BOND
     1    47    48    1
     2    25    26    1
     3    48    51    1
     4    48    49    1
     5    28    27    2
     6    51    52    1
     7    26    27    1
     8    49    55   am
     9    49    50    2
    10    55    56    1
    11    27    29   am
    12    11    10    2
    13    21    20    2
    14    12    13    1
    15    12     9    1
    16    43    42    2
    17    56    57    1
    18    34    33    1
    19    53    52   ar
    20    52    54   ar
    21    42    41    1
    22    20    19    1
    23    13    14   ar
    24    13    15   ar
    25     8     9    1
    26    14    16   ar
    27    33    30    1
    28    38    37    2
    29    29    30    1
    30    10     9    1
    31    10    18   am
    32    15    17   ar
    33    16    17   ar
    34    58    57    2
    35    57    59   am
    36    30    31    1
    37    37    36    1
    38    37    40   am
    39    39    36    1
    40    35    31   am
    41    35    36    1
    42    41    40    1
    43    41    44    1
    44    19    18    1
    45    19    22    1
    46    31    32    2
    47    40    46    1
    48    59    60    1
    49   100    99    2
    50    44    45    1
    51    22    23    1
    52    22    24    1
    53    99    98    1
    54    46    45    1
    55    60    61    1
    56    60    63    1
    57   103   105   ar
    58   103   102   ar
    59   105   106   ar
    60   157   156    1
    61    61    62    2
    62    61    71   am
    63    63    64    1
    64    98   101    1
    65    98    97    1
    66    71    72    1
    67   151   152    2
    68   151   150    1
    69   102   101    1
    70   102   104   ar
    71   153   154    1
    72   153   150    1
    73   155   156    1
    74   155   154    1
    75   106   108   ar
    76   106   104   ar
    77   150   149    1
    78   158   159    1
    79   108   110   ar
    80    72    73    1
    81    74    73    2
    82   104   107   ar
    83    64    65   ar
    84    64    66   ar
    85    73    75   am
    86    65    67   ar
    87   130   131    1
    88   130   127    1
    89   161   160    2
    90    86    85    1
    91    75    76    1
    92   159   160    1
    93   159   162    1
    94   126   127    1
    95   132   131   ar
    96   132   134   ar
    97   129   128    2
    98    66    68   ar
    99   110   109   ar
   100   131   133   ar
   101    76    77    1
   102    76    79    1
   103    77    78    2
   104    77    81   am
   105   107   109   ar
   106    81    82    1
   107   134   136   ar
   108   127   128    1
   109    82    85    1
   110    82    83    1
   111    67    69   ar
   112    85    87    1
   113   133   135   ar
   114   162   163    1
   115   136   135   ar
   116   136   137    1
   117    68    69   ar
   118   163   165   ar
   119   163   164   ar
   120   165   167   ar
   121    79    80    1
   122    69    70    1
   123    84    83    2
   124   164   166   ar
   125   167   168   ar
   126    83    88   am
   127   166   168   ar
   128     5     2    1
   129     5     6    1
   130     5     7    1
   131     2     1    1
   132     2     3    1
   133    88    89    1
   134   125   123   ar
   135   124   123   ar
   136     3     4    2
   137   123   122    1
   138    95    94   ar
   139    90    89    1
   140    90    91    2
   141    89    92    1
   142   122   119    1
   143   143   144    1
   144   143   142    1
   145   144   145    1
   146   145   146    2
   147    94    96   ar
   148    94    93    1
   149    92    93    1
   150   146   148    1
   151   146   147    1
   152   138   139    1
   153   119   120    1
   154   119   118    1
   155   142   139    1
   156   117   115    1
   157   120   121    2
   158   115   116    1
   159   115   112    1
   160   139   140    1
   161   114   113    2
   162   112   113    1
   163   112   111    1
   164   140   141    2
