@<TRIPOS>MOLECULE
tmp/5mstB00.pdb
 130 128 0 0 0
SMALL
GASTEIGER

@<TRIPOS>ATOM
      1  N        -21.7310   -6.7640  -53.2250 N.3   271  TRP271     -0.1241
      2  CA       -21.1660   -5.4590  -52.8980 C.3   271  TRP271      0.1605
      3  C        -20.5550   -5.3920  -51.5060 C.2   271  TRP271      0.2264
      4  O        -19.8580   -4.4140  -51.2180 O.2   271  TRP271     -0.2867
      5  CB       -22.2170   -4.3670  -53.0050 C.3   271  TRP271      0.0550
      6  CG       -22.5750   -3.9980  -54.3960 C.ar  271  TRP271      0.0003
      7  CD1      -23.6470   -4.4460  -55.1100 C.ar  271  TRP271      0.0946
      8  CD2      -21.8760   -3.0870  -55.2490 C.ar  271  TRP271      0.0152
      9  NE1      -23.6610   -3.8690  -56.3560 N.ar  271  TRP271     -0.2442
     10  CE2      -22.5850   -3.0290  -56.4690 C.ar  271  TRP271      0.0810
     11  CE3      -20.7180   -2.3200  -55.1050 C.ar  271  TRP271      0.0012
     12  CZ2      -22.1840   -2.2210  -57.5380 C.ar  271  TRP271      0.0191
     13  CZ3      -20.3150   -1.5170  -56.1710 C.ar  271  TRP271      0.0001
     14  CH2      -21.0490   -1.4770  -57.3690 C.ar  271  TRP271      0.0015
     15  N        -16.8610   -4.8000  -51.9160 N.3   274  ALA274     -0.1231
     16  CA       -16.3140   -3.6710  -52.6540 C.3   274  ALA274      0.1694
     17  C        -15.1660   -3.0140  -51.8950 C.2   274  ALA274      0.2592
     18  O        -14.1230   -2.7130  -52.4830 O.2   274  ALA274     -0.2718
     19  CB       -17.4110   -2.6480  -52.9410 C.3   274  ALA274      0.0304
     20  N        -15.3400   -2.7790  -50.5910 N.am  275  PHE275     -0.1976
     21  CA       -14.4010   -1.9490  -49.8370 C.3   275  PHE275      0.1639
     22  C        -13.9400   -2.6140  -48.5480 C.2   275  PHE275      0.2290
     23  O        -13.3720   -1.9370  -47.6830 O.2   275  PHE275     -0.2864
     24  CB       -15.0140   -0.5830  -49.5240 C.3   275  PHE275      0.0560
     25  CG       -15.5260    0.1250  -50.7270 C.ar  275  PHE275     -0.0200
     26  CD1      -14.6460    0.6560  -51.6540 C.ar  275  PHE275     -0.0042
     27  CD2      -16.8810    0.2660  -50.9340 C.ar  275  PHE275     -0.0042
     28  CE1      -15.1110    1.3080  -52.7700 C.ar  275  PHE275     -0.0003
     29  CE2      -17.3550    0.9210  -52.0460 C.ar  275  PHE275     -0.0003
     30  CZ       -16.4670    1.4350  -52.9740 C.ar  275  PHE275     -0.0000
     31  N        -26.4120    8.1040  -56.5070 N.3   296  HIS296     -0.1226
     32  CA       -25.1300    7.5280  -56.8740 C.3   296  HIS296      0.1752
     33  C        -25.0100    6.1270  -56.2900 C.2   296  HIS296      0.2596
     34  O        -25.4340    5.8840  -55.1580 O.2   296  HIS296     -0.2718
     35  CB       -23.9660    8.4010  -56.3870 C.3   296  HIS296      0.0759
     36  CG       -22.6440    7.9680  -56.9360 C.ar  296  HIS296      0.0818
     37  ND1      -21.8060    7.1030  -56.2640 N.ar  296  HIS296     -0.2268
     38  CD2      -22.0420    8.2340  -58.1190 C.ar  296  HIS296      0.1154
     39  CE1      -20.7320    6.8770  -56.9990 C.ar  296  HIS296      0.1986
     40  NE2      -20.8500    7.5490  -58.1310 N.ar  296  HIS296     -0.2212
     41  N        -24.4130    5.2060  -57.0550 N.am  297  VAL297     -0.1966
     42  CA       -24.3150    3.8240  -56.5860 C.3   297  VAL297      0.1727
     43  C        -23.6020    3.7440  -55.2420 C.2   297  VAL297      0.2616
     44  O        -23.8740    2.8360  -54.4440 O.2   297  VAL297     -0.2715
     45  CB       -23.6100    2.9180  -57.6180 C.3   297  VAL297      0.0290
     46  CG1      -24.5160    2.6370  -58.8150 C.3   297  VAL297      0.0023
     47  CG2      -22.2680    3.5260  -58.0420 C.3   297  VAL297      0.0023
     48  N        -22.6630    4.6590  -54.9760 N.am  298  ALA298     -0.1977
     49  CA       -21.9250    4.5920  -53.7140 C.3   298  ALA298      0.1597
     50  C        -22.8180    4.9230  -52.5220 C.2   298  ALA298      0.2287
     51  O        -22.6360    4.3560  -51.4370 O.2   298  ALA298     -0.2864
     52  CB       -20.7190    5.5300  -53.7510 C.3   298  ALA298      0.0319
     53  N        -24.5170    1.4870  -51.8800 N.3   301  ILE301     -0.1245
     54  CA       -23.6620    0.4560  -51.2950 C.3   301  ILE301      0.1561
     55  C        -23.6570    0.5530  -49.7790 C.2   301  ILE301      0.2260
     56  O        -23.8570   -0.4390  -49.0760 O.2   301  ILE301     -0.2867
     57  CB       -22.2330    0.5640  -51.8540 C.3   301  ILE301      0.0252
     58  CG1      -22.2330    0.3490  -53.3610 C.3   301  ILE301      0.0019
     59  CG2      -21.3100   -0.4250  -51.1520 C.3   301  ILE301      0.0019
     60  CD1      -20.9210    0.7500  -54.0170 C.3   301  ILE301      0.0001
     61  N        -16.5650    5.2450  -45.1180 N.3   337  PHE337     -0.1241
     62  CA       -16.4190    5.2560  -46.5680 C.3   337  PHE337      0.1605
     63  C        -16.1640    6.6970  -46.9650 C.2   337  PHE337      0.2264
     64  O        -17.0400    7.5500  -46.7930 O.2   337  PHE337     -0.2867
     65  CB       -17.6340    4.7120  -47.3050 C.3   337  PHE337      0.0534
     66  CG       -17.4950    4.8370  -48.7870 C.ar  337  PHE337     -0.0203
     67  CD1      -16.6530    3.9790  -49.4810 C.ar  337  PHE337     -0.0042
     68  CD2      -18.1350    5.8590  -49.4810 C.ar  337  PHE337     -0.0042
     69  CE1      -16.4790    4.1060  -50.8480 C.ar  337  PHE337     -0.0003
     70  CE2      -17.9670    5.9890  -50.8580 C.ar  337  PHE337     -0.0003
     71  CZ       -17.1350    5.1100  -51.5380 C.ar  337  PHE337     -0.0000
     72  N        -13.1340    5.1280  -52.6730 N.3   388  GLY388     -0.1210
     73  CA       -13.3040    4.7800  -54.0670 C.3   388  GLY388      0.1956
     74  C        -13.9580    5.9200  -54.8100 C.2   388  GLY388      0.2612
     75  O        -14.1140    7.0280  -54.2860 O.2   388  GLY388     -0.2717
     76  N        -14.3380    5.6110  -56.0460 N.am  389  SER389     -0.1952
     77  CA       -15.0670    6.4710  -56.9700 C.3   389  SER389      0.1924
     78  C        -14.1290    7.3880  -57.7610 C.2   389  SER389      0.2314
     79  O        -14.5170    7.9000  -58.8130 O.2   389  SER389     -0.2863
     80  CB       -16.1500    7.2730  -56.2410 C.3   389  SER389      0.2116
     81  OG       -15.6620    8.5050  -55.7760 O.3   389  SER389     -0.2180
     82  N        -11.2670    0.7070  -53.3650 N.3   411  GLY411     -0.1210
     83  CA       -12.1420   -0.0870  -54.2080 C.3   411  GLY411      0.1956
     84  C        -12.4100    0.6430  -55.5130 C.2   411  GLY411      0.2612
     85  O        -12.7880    1.8130  -55.5090 O.2   411  GLY411     -0.2717
     86  N        -12.1800   -0.0560  -56.6200 N.am  412  TYR412     -0.1962
     87  CA       -12.4310    0.4670  -57.9530 C.3   412  TYR412      0.1771
     88  C        -13.6150   -0.2780  -58.5500 C.2   412  TYR412      0.2620
     89  O        -13.7120   -1.5070  -58.4300 O.2   412  TYR412     -0.2715
     90  CB       -11.1880    0.3220  -58.8680 C.3   412  TYR412      0.0574
     91  CG       -11.5310    0.4490  -60.3470 C.ar  412  TYR412     -0.0198
     92  CD1      -11.5800    1.6860  -60.9790 C.ar  412  TYR412     -0.0009
     93  CD2      -11.8180   -0.6760  -61.1060 C.ar  412  TYR412     -0.0009
     94  CE1      -11.9370    1.7960  -62.3290 C.ar  412  TYR412      0.0417
     95  CE2      -12.1590   -0.5820  -62.4340 C.ar  412  TYR412      0.0417
     96  CZ       -12.2210    0.6540  -63.0480 C.ar  412  TYR412      0.1957
     97  OH       -12.5850    0.7330  -64.3780 O.3   412  TYR412     -0.2866
     98  N        -14.5170    0.4660  -59.1780 N.am  413  GLY413     -0.1940
     99  CA       -15.6920   -0.1170  -59.8100 C.3   413  GLY413      0.2014
    100  C        -16.4680    0.9580  -60.5410 C.2   413  GLY413      0.2640
    101  O        -16.0380    2.1080  -60.6360 O.2   413  GLY413     -0.2714
    102  N        -17.6230    0.5700  -61.0710 N.am  414  SER414     -0.1935
    103  CA       -18.4400    1.5140  -61.8200 C.3   414  SER414      0.2055
    104  C        -19.9090    1.1470  -61.6900 C.2   414  SER414      0.2643
    105  O        -20.2640    0.0370  -61.2920 O.2   414  SER414     -0.2714
    106  CB       -18.0500    1.5660  -63.3080 C.3   414  SER414      0.2130
    107  OG       -18.1950    0.2830  -63.9140 O.3   414  SER414     -0.2179
    108  N        -20.7600    2.1180  -62.0270 N.am  415  THR415     -0.1950
    109  CA       -22.1940    1.8670  -62.1520 C.3   415  THR415      0.1897
    110  C        -22.4690    0.7090  -63.1030 C.2   415  THR415      0.2313
    111  O        -23.3090   -0.1460  -62.8250 O.2   415  THR415     -0.2863
    112  CB       -22.8790    3.1360  -62.6570 C.3   415  THR415      0.1794
    113  OG1      -22.6940    4.1720  -61.6920 O.3   415  THR415     -0.2208
    114  CG2      -24.3640    2.9130  -62.8980 C.3   415  THR415      0.0378
    115  N        -18.4910   -3.8080  -58.5090 N.3   419  PRO419     -0.2116
    116  CA       -17.1450   -3.7380  -57.9210 C.3   419  PRO419      0.1372
    117  C        -16.1650   -4.5300  -58.7710 C.2   419  PRO419      0.2244
    118  O        -16.4260   -5.6860  -59.1130 O.2   419  PRO419     -0.2868
    119  CB       -17.3310   -4.3820  -56.5440 C.3   419  PRO419      0.0268
    120  CG       -18.4110   -5.4080  -56.7840 C.3   419  PRO419      0.0207
    121  CD       -19.3710   -4.7190  -57.7490 C.3   419  PRO419      0.0892
    122  N        -17.4230   14.3520  -57.6350 N.3   610  LYS610     -0.1245
    123  CA       -16.3320   14.4300  -58.5930 C.3   610  LYS610      0.1561
    124  C        -16.4760   15.6880  -59.4310 C.2   610  LYS610      0.2260
    125  O        -17.5850   16.1340  -59.7360 O.2   610  LYS610     -0.2867
    126  CB       -16.3030   13.2250  -59.5270 C.3   610  LYS610      0.0271
    127  CG       -16.3840   11.8950  -58.8280 C.3   610  LYS610      0.0035
    128  CD       -16.3040   10.7690  -59.8440 C.3   610  LYS610      0.0206
    129  CE       -17.1040    9.5700  -59.3620 C.3   610  LYS610      0.1093
    130  NZ       -16.9000    8.3800  -60.2390 N.3   610  LYS610     -0.1314
@<TRIPOS>BOND
     1    97    96    1
     2   107   106    1
     3   106   103    1
     4   110   111    2
     5   110   109    1
     6    96    95   ar
     7    96    94   ar
     8   114   112    1
     9   112   109    1
    10   112   113    1
    11    95    93   ar
    12    94    92   ar
    13   109   108    1
    14   108   104   am
    15   103   104    1
    16   103   102    1
    17   104   105    2
    18    93    91   ar
    19   102   100   am
    20    92    91   ar
    21   101   100    2
    22   100    99    1
    23    91    90    1
    24   130   129    1
    25   128   129    1
    26   128   127    1
    27    99    98    1
    28   125   124    2
    29   126   127    1
    30   126   123    1
    31   124   123    1
    32    98    88   am
    33   118   117    2
    34    90    87    1
    35    46    45    1
    36    79    78    2
    37   117   116    1
    38   123   122    1
    39    88    89    2
    40    88    87    1
    41   115   116    1
    42   115   121    1
    43    40    38   ar
    44    40    39   ar
    45    38    36   ar
    46    47    45    1
    47    87    86    1
    48   116   119    1
    49    78    77    1
    50   121   120    1
    51    45    42    1
    52    12    14   ar
    53    12    10   ar
    54    14    13   ar
    55    41    42    1
    56    41    33   am
    57    39    37   ar
    58    77    80    1
    59    77    76    1
    60    36    35    1
    61    36    37   ar
    62    32    31    1
    63    32    35    1
    64    32    33    1
    65   120   119    1
    66    86    84   am
    67    42    43    1
    68    10     9   ar
    69    10     8   ar
    70     9     7   ar
    71    33    34    2
    72    80    81    1
    73    13    11   ar
    74    76    74   am
    75    84    85    2
    76    84    83    1
    77     8    11   ar
    78     8     6   ar
    79    43    48   am
    80    43    44    2
    81     7     6   ar
    82    48    49    1
    83    74    75    2
    84    74    73    1
    85     6     5    1
    86    83    82    1
    87    73    72    1
    88    60    58    1
    89    52    49    1
    90    49    50    1
    91    58    57    1
    92     1     2    1
    93     5     2    1
    94    30    28   ar
    95    30    29   ar
    96    19    16    1
    97     2     3    1
    98    28    26   ar
    99    16    15    1
   100    16    17    1
   101    50    51    2
   102    18    17    2
   103    29    27   ar
   104    17    20   am
   105    53    54    1
   106    57    54    1
   107    57    59    1
   108    26    25   ar
   109    71    70   ar
   110    71    69   ar
   111     3     4    2
   112    54    55    1
   113    27    25   ar
   114    70    68   ar
   115    69    67   ar
   116    25    24    1
   117    20    21    1
   118    21    24    1
   119    21    22    1
   120    55    56    2
   121    67    66   ar
   122    68    66   ar
   123    66    65    1
   124    22    23    2
   125    65    62    1
   126    63    64    2
   127    63    62    1
   128    62    61    1
