@<TRIPOS>MOLECULE
tmp/5msuC00.pdb
 209 200 0 0 0
SMALL
GASTEIGER

@<TRIPOS>ATOM
      1  N        -45.9200  -32.9680  172.6960 N.3    69  THR69      -0.1203
      2  CA       -45.9740  -34.1340  173.5870 C.3    69  THR69       0.1994
      3  C        -47.3790  -34.7070  173.5780 C.2    69  THR69       0.2618
      4  O        -48.3210  -34.0510  173.1390 O.2    69  THR69      -0.2717
      5  CB       -45.5690  -33.7660  175.0270 C.3    69  THR69       0.1784
      6  OG1      -46.5450  -32.8780  175.5890 O.3    69  THR69      -0.2211
      7  CG2      -44.1970  -33.1180  175.0560 C.3    69  THR69       0.0376
      8  N        -47.5220  -35.9460  174.0360 N.am   70  GLY70      -0.1956
      9  CA       -48.8360  -36.5420  174.2300 C.3    70  GLY70       0.1869
     10  C        -49.6750  -36.8680  172.9820 C.2    70  GLY70       0.2309
     11  O        -50.8970  -37.0180  173.0760 O.2    70  GLY70      -0.2863
     12  N        -50.1510  -39.5700  171.2650 N.3    72  THR72      -0.1203
     13  CA       -50.9220  -40.8160  171.3760 C.3    72  THR72       0.1994
     14  C        -52.2040  -40.6730  172.2220 C.2    72  THR72       0.2618
     15  O        -53.0950  -41.5250  172.1450 O.2    72  THR72      -0.2717
     16  CB       -50.0630  -41.9480  171.9650 C.3    72  THR72       0.1784
     17  OG1      -49.4480  -41.5050  173.1760 O.3    72  THR72      -0.2211
     18  CG2      -48.9800  -42.3470  170.9690 C.3    72  THR72       0.0376
     19  N        -52.2910  -39.6020  173.0150 N.am   73  GLY73      -0.1942
     20  CA       -53.4780  -39.3300  173.8190 C.3    73  GLY73       0.2014
     21  C        -54.6590  -38.7900  173.0400 C.2    73  GLY73       0.2639
     22  O        -54.5640  -38.5590  171.8250 O.2    73  GLY73      -0.2714
     23  N        -55.7890  -38.6100  173.7210 N.am   74  PHE74      -0.1959
     24  CA       -57.0360  -38.2820  173.0410 C.3    74  PHE74       0.1771
     25  C        -56.9960  -36.8490  172.4990 C.2    74  PHE74       0.2619
     26  O        -57.1570  -36.6530  171.3170 O.2    74  PHE74      -0.2715
     27  CB       -58.2750  -38.5260  173.9150 C.3    74  PHE74       0.0574
     28  CG       -59.5630  -38.4130  173.1470 C.ar   74  PHE74      -0.0200
     29  CD1      -59.8640  -39.3220  172.1290 C.ar   74  PHE74      -0.0042
     30  CD2      -60.4680  -37.3900  173.4170 C.ar   74  PHE74      -0.0042
     31  CE1      -61.0440  -39.2170  171.3910 C.ar   74  PHE74      -0.0003
     32  CE2      -61.6470  -37.2760  172.6810 C.ar   74  PHE74      -0.0003
     33  CZ       -61.9380  -38.1960  171.6780 C.ar   74  PHE74      -0.0000
     34  N        -56.7550  -35.8650  173.3590 N.am   75  LEU75      -0.1963
     35  CA       -56.5430  -34.4920  172.8930 C.3    75  LEU75       0.1728
     36  C        -55.2990  -34.3760  172.0160 C.2    75  LEU75       0.2616
     37  O        -55.3210  -33.7140  170.9710 O.2    75  LEU75      -0.2715
     38  CB       -56.3890  -33.5180  174.0650 C.3    75  LEU75       0.0311
     39  CG       -56.1190  -32.0570  173.7130 C.3    75  LEU75       0.0022
     40  CD1      -57.2090  -31.4970  172.8000 C.3    75  LEU75       0.0001
     41  CD2      -55.9820  -31.2370  174.9910 C.3    75  LEU75       0.0001
     42  N        -54.2140  -35.0210  172.4400 N.am   76  GLY76      -0.1955
     43  CA       -52.9480  -34.9270  171.7320 C.3    76  GLY76       0.1869
     44  C        -53.0210  -35.3440  170.2650 C.2    76  GLY76       0.2309
     45  O        -52.3880  -34.7030  169.4300 O.2    76  GLY76      -0.2863
     46  N        -42.9660  -36.3110  170.6240 N.3    97  LEU97      -0.1231
     47  CA       -42.2810  -37.0880  171.6540 C.3    97  LEU97       0.1693
     48  C        -43.2470  -38.1600  172.1260 C.2    97  LEU97       0.2592
     49  O        -44.3240  -37.8530  172.6260 O.2    97  LEU97      -0.2718
     50  CB       -41.8800  -36.1910  172.8230 C.3    97  LEU97       0.0284
     51  CG       -40.9740  -36.8000  173.8920 C.3    97  LEU97       0.0019
     52  CD1      -39.5400  -36.8780  173.3860 C.3    97  LEU97       0.0001
     53  CD2      -41.0390  -35.9820  175.1720 C.3    97  LEU97       0.0001
     54  N        -42.8730  -39.4220  171.9610 N.am   98  VAL98      -0.1966
     55  CA       -43.7720  -40.5430  172.2310 C.3    98  VAL98       0.1727
     56  C        -43.0370  -41.5700  173.0810 C.2    98  VAL98       0.2616
     57  O        -41.8830  -41.8710  172.8160 O.2    98  VAL98      -0.2715
     58  CB       -44.2620  -41.1720  170.9120 C.3    98  VAL98       0.0290
     59  CG1      -44.9870  -42.5030  171.1400 C.3    98  VAL98       0.0023
     60  CG2      -45.1680  -40.1940  170.1680 C.3    98  VAL98       0.0023
     61  N        -43.7070  -42.1040  174.0970 N.am   99  ARG99      -0.1977
     62  CA       -43.0810  -43.1110  174.9600 C.3    99  ARG99       0.1597
     63  C        -42.9760  -44.4530  174.2240 C.2    99  ARG99       0.2287
     64  O        -43.9760  -45.0050  173.7810 O.2    99  ARG99      -0.2864
     65  CB       -43.8500  -43.2720  176.2730 C.3    99  ARG99       0.0334
     66  CG       -43.7530  -42.0510  177.1800 C.3    99  ARG99       0.0492
     67  CD       -44.0900  -42.3790  178.6300 C.3    99  ARG99       0.2205
     68  NE       -45.4850  -42.7600  178.7840 N.pl3  99  ARG99      -0.0865
     69  CZ       -46.0540  -43.1180  179.9300 C.cat  99  ARG99       0.5346
     70  NH1      -45.3550  -43.1400  181.0600 N.pl3  99  ARG99       0.1354
     71  NH2      -47.3370  -43.4580  179.9470 N.pl3  99  ARG99       0.1354
     72  N        -46.6040  -46.7420  167.1670 N.3   109  ARG109     -0.1245
     73  CA       -47.6620  -46.3840  168.1190 C.3   109  ARG109      0.1563
     74  C        -48.5290  -45.2410  167.5970 C.2   109  ARG109      0.2260
     75  O        -49.7620  -45.3080  167.6510 O.2   109  ARG109     -0.2867
     76  CB       -47.0690  -45.9490  169.4660 C.3   109  ARG109      0.0307
     77  CG       -46.5160  -47.0620  170.3420 C.3   109  ARG109      0.0489
     78  CD       -46.2790  -46.5380  171.7530 C.3   109  ARG109      0.2205
     79  NE       -47.5630  -46.2590  172.3870 N.pl3 109  ARG109     -0.0865
     80  CZ       -47.7950  -45.3480  173.3310 C.cat 109  ARG109      0.5346
     81  NH1      -46.8270  -44.5750  173.8190 N.pl3 109  ARG109      0.1354
     82  NH2      -49.0370  -45.2180  173.7880 N.pl3 109  ARG109      0.1354
     83  N        -39.1330  -40.9650  173.7570 N.3   138  GLY138     -0.1210
     84  CA       -38.6440  -40.2270  174.9080 C.3   138  GLY138      0.1956
     85  C        -39.6690  -40.1680  176.0190 C.2   138  GLY138      0.2612
     86  O        -40.6850  -40.8410  175.9540 O.2   138  GLY138     -0.2717
     87  N        -39.3590  -39.3820  177.0430 N.am  139  ASP139     -0.1959
     88  CA       -40.0970  -39.3760  178.3080 C.3   139  ASP139      0.1840
     89  C        -39.8130  -38.0540  179.0160 C.2   139  ASP139      0.2622
     90  O        -38.6600  -37.7410  179.2920 O.2   139  ASP139     -0.2715
     91  CB       -39.6410  -40.5620  179.1730 C.3   139  ASP139      0.1450
     92  CG       -40.5060  -40.7690  180.4210 C.2   139  ASP139      0.3671
     93  OD1      -40.8050  -39.7940  181.1650 O.co2 139  ASP139     -0.2456
     94  OD2      -40.8680  -41.9370  180.6520 O.co2 139  ASP139     -0.2456
     95  N        -40.8690  -37.2930  179.3150 N.am  140  LYS140     -0.1963
     96  CA       -40.7250  -35.9720  179.9360 C.3   140  LYS140      0.1728
     97  C        -40.0310  -35.9680  181.2920 C.2   140  LYS140      0.2616
     98  O        -39.3690  -34.9980  181.6430 O.2   140  LYS140     -0.2715
     99  CB       -42.0940  -35.3110  180.1120 C.3   140  LYS140      0.0311
    100  CG       -42.6670  -34.7580  178.8300 C.3   140  LYS140      0.0038
    101  CD       -44.1440  -34.4140  178.9780 C.3   140  LYS140      0.0206
    102  CE       -44.3990  -33.4200  180.1090 C.3   140  LYS140      0.1093
    103  NZ       -45.8390  -33.0640  180.1550 N.3   140  LYS140     -0.1314
    104  N        -40.1900  -37.0470  182.0530 N.am  141  GLY141     -0.1955
    105  CA       -39.5700  -37.1620  183.3740 C.3   141  GLY141      0.1869
    106  C        -38.0740  -37.4320  183.3960 C.2   141  GLY141      0.2309
    107  O        -37.4380  -37.2900  184.4560 O.2   141  GLY141     -0.2863
    108  N        -49.6910  -31.1530  175.9460 N.3   165  PRO165     -0.2102
    109  CA       -50.8560  -31.7660  176.6020 C.3   165  PRO165      0.1504
    110  C        -50.5210  -33.0240  177.4250 C.2   165  PRO165      0.2576
    111  O        -51.3790  -33.5350  178.1200 O.2   165  PRO165     -0.2718
    112  CB       -51.7610  -32.1180  175.4390 C.3   165  PRO165      0.0282
    113  CG       -50.8070  -32.5100  174.3610 C.3   165  PRO165      0.0208
    114  CD       -49.6310  -31.5600  174.5240 C.3   165  PRO165      0.0893
    115  N        -49.2990  -33.5220  177.3460 N.am  166  ALA166     -0.1966
    116  CA       -48.9420  -34.7790  178.0150 C.3   166  ALA166      0.1728
    117  C        -48.9940  -34.6650  179.5520 C.2   166  ALA166      0.2616
    118  O        -48.5030  -33.7010  180.1190 O.2   166  ALA166     -0.2715
    119  CB       -47.5490  -35.2270  177.5720 C.3   166  ALA166      0.0334
    120  N        -49.5350  -35.6890  180.2060 N.am  167  ALA167     -0.1963
    121  CA       -49.5400  -35.7950  181.6850 C.3   167  ALA167      0.1728
    122  C        -49.9650  -37.2020  182.1170 C.2   167  ALA167      0.2616
    123  O        -50.5960  -37.9240  181.3480 O.2   167  ALA167     -0.2715
    124  CB       -50.5090  -34.7960  182.2720 C.3   167  ALA167      0.0334
    125  N        -49.6010  -37.5970  183.3290 N.am  168  LEU168     -0.1963
    126  CA       -50.1980  -38.7820  183.9510 C.3   168  LEU168      0.1728
    127  C        -51.4680  -38.2890  184.6350 C.2   168  LEU168      0.2616
    128  O        -51.3950  -37.5480  185.6190 O.2   168  LEU168     -0.2715
    129  CB       -49.2400  -39.4340  184.9640 C.3   168  LEU168      0.0311
    130  CG       -49.7900  -40.6140  185.7990 C.3   168  LEU168      0.0022
    131  CD1      -50.5070  -41.6520  184.9470 C.3   168  LEU168      0.0001
    132  CD2      -48.6390  -41.2620  186.5670 C.3   168  LEU168      0.0001
    133  N        -52.6180  -38.6790  184.0900 N.am  169  VAL169     -0.1977
    134  CA       -53.9170  -38.2420  184.5760 C.3   169  VAL169      0.1596
    135  C        -54.4710  -39.3430  185.4840 C.2   169  VAL169      0.2287
    136  O        -54.9130  -40.3670  184.9920 O.2   169  VAL169     -0.2864
    137  CB       -54.8750  -37.9630  183.3930 C.3   169  VAL169      0.0276
    138  CG1      -56.2020  -37.4380  183.8930 C.3   169  VAL169      0.0022
    139  CG2      -54.2500  -36.9590  182.4140 C.3   169  VAL169      0.0022
    140  N        -43.8190  -37.0940  186.2400 N.3   181  PRO181     -0.2116
    141  CA       -44.2930  -36.8570  184.8670 C.3   181  PRO181      0.1372
    142  C        -44.8550  -35.4600  184.6080 C.2   181  PRO181      0.2244
    143  O        -44.7650  -34.9480  183.4720 O.2   181  PRO181     -0.2868
    144  CB       -45.3790  -37.9310  184.6720 C.3   181  PRO181      0.0268
    145  CG       -45.7540  -38.3720  186.0440 C.3   181  PRO181      0.0207
    146  CD       -44.5360  -38.2060  186.8860 C.3   181  PRO181      0.0892
    147  N        -51.6180  -27.4590  178.7050 N.3   204  THR204     -0.1203
    148  CA       -52.9580  -27.7920  179.2030 C.3   204  THR204      0.1994
    149  C        -52.8740  -28.0230  180.7270 C.2   204  THR204      0.2619
    150  O        -52.0530  -28.8070  181.2260 O.2   204  THR204     -0.2717
    151  CB       -53.5860  -29.0010  178.4880 C.3   204  THR204      0.1784
    152  OG1      -52.7200  -30.1200  178.6120 O.3   204  THR204     -0.2211
    153  CG2      -53.8290  -28.7070  177.0050 C.3   204  THR204      0.0376
    154  N        -53.6910  -27.2890  181.4610 N.am  205  SER205     -0.1937
    155  CA       -53.8590  -27.4830  182.8930 C.3   205  SER205      0.2055
    156  C        -55.2450  -28.0390  183.1270 C.2   205  SER205      0.2643
    157  O        -55.9290  -28.4600  182.1690 O.2   205  SER205     -0.2714
    158  CB       -53.6320  -26.1700  183.6400 C.3   205  SER205      0.2130
    159  OG       -53.6550  -26.3360  185.0560 O.3   205  SER205     -0.2179
    160  N        -55.7080  -27.9790  184.3740 N.am  206  THR206     -0.1950
    161  CA       -57.0360  -28.4750  184.7150 C.3   206  THR206      0.1897
    162  C        -57.7960  -27.4280  185.5300 C.2   206  THR206      0.2313
    163  O        -57.2450  -26.7140  186.3520 O.2   206  THR206     -0.2863
    164  CB       -56.9690  -29.7890  185.5140 C.3   206  THR206      0.1794
    165  OG1      -58.2890  -30.1810  185.9200 O.3   206  THR206     -0.2208
    166  CG2      -56.0900  -29.6570  186.7260 C.3   206  THR206      0.0378
    167  N        -53.1320  -35.0110  191.5630 N.3   241  TYR241     -0.1241
    168  CA       -53.2090  -34.5730  190.1610 C.3   241  TYR241      0.1605
    169  C        -53.3500  -33.0580  189.9990 C.2   241  TYR241      0.2264
    170  O        -52.6030  -32.4440  189.2430 O.2   241  TYR241     -0.2867
    171  CB       -54.3610  -35.2760  189.4710 C.3   241  TYR241      0.0534
    172  CG       -54.6360  -34.7880  188.0700 C.ar  241  TYR241     -0.0201
    173  CD1      -53.7450  -35.0320  187.0290 C.ar  241  TYR241     -0.0009
    174  CD2      -55.7840  -34.0890  187.7980 C.ar  241  TYR241     -0.0009
    175  CE1      -54.0280  -34.5830  185.7350 C.ar  241  TYR241      0.0417
    176  CE2      -56.0810  -33.6420  186.5340 C.ar  241  TYR241      0.0417
    177  CZ       -55.2080  -33.8830  185.5030 C.ar  241  TYR241      0.1957
    178  OH       -55.5860  -33.4410  184.2490 O.3   241  TYR241     -0.2866
    179  N        -50.6240  -30.3550  188.3130 N.3   245  LYS245     -0.1245
    180  CA       -50.9240  -29.4230  187.2150 C.3   245  LYS245      0.1561
    181  C        -50.6950  -27.9610  187.6390 C.2   245  LYS245      0.2260
    182  O        -50.1690  -27.1730  186.8500 O.2   245  LYS245     -0.2867
    183  CB       -52.3450  -29.6410  186.6910 C.3   245  LYS245      0.0271
    184  CG       -52.6320  -31.0440  186.1460 C.3   245  LYS245      0.0035
    185  CD       -51.7560  -31.5060  184.9840 C.3   245  LYS245      0.0206
    186  CE       -51.8140  -30.5750  183.7820 C.3   245  LYS245      0.1093
    187  NZ       -51.0560  -31.0940  182.6090 N.3   245  LYS245     -0.1314
    188  N        -58.5910  -27.0560  181.2070 N.3   268  CYS268     -0.1235
    189  CA       -59.6520  -27.8580  180.6000 C.3   268  CYS268      0.1677
    190  C        -60.3820  -28.6990  181.6590 C.2   268  CYS268      0.2270
    191  O        -59.9810  -28.7410  182.8160 O.2   268  CYS268     -0.2867
    192  CB       -59.0640  -28.8220  179.5740 C.3   268  CYS268      0.0956
    193  SG       -58.1750  -27.9600  178.2040 S.3   268  CYS268     -0.0801
    194  N        -63.5690  -33.2490  177.9160 N.3   271  ILE271     -0.1245
    195  CA       -63.2920  -33.2820  176.4850 C.3   271  ILE271      0.1561
    196  C        -64.1700  -34.3680  175.8280 C.2   271  ILE271      0.2260
    197  O        -63.9460  -35.5460  176.0160 O.2   271  ILE271     -0.2867
    198  CB       -61.7740  -33.5040  176.2090 C.3   271  ILE271      0.0252
    199  CG1      -60.9410  -32.4160  176.9240 C.3   271  ILE271      0.0019
    200  CG2      -61.4860  -33.5420  174.7070 C.3   271  ILE271      0.0019
    201  CD1      -59.4440  -32.3920  176.6330 C.3   271  ILE271      0.0001
    202  N        -62.5330  -41.7530  173.3950 N.3   282  ASN282     -0.1240
    203  CA       -61.7620  -41.9820  174.6020 C.3   282  ASN282      0.1653
    204  C        -62.5620  -43.0150  175.4350 C.2   282  ASN282      0.2266
    205  O        -63.3700  -42.6590  176.3010 O.2   282  ASN282     -0.2867
    206  CB       -61.5490  -40.6630  175.3520 C.3   282  ASN282      0.1155
    207  CG       -60.4660  -40.7600  176.4070 C.2   282  ASN282      0.2627
    208  OD1      -59.9940  -41.8450  176.7210 O.2   282  ASN282     -0.2716
    209  ND2      -60.0750  -39.6260  176.9580 N.am  282  ASN282     -0.0877
@<TRIPOS>BOND
     1    72    73    1
     2    74    75    2
     3    74    73    1
     4    73    76    1
     5    45    44    2
     6    76    77    1
     7    60    58    1
     8    44    43    1
     9    77    78    1
    10    46    47    1
    11    58    59    1
    12    58    55    1
    13    18    16    1
    14    37    36    2
    15    12    13    1
    16    26    25    2
    17    13    16    1
    18    13    14    1
    19    31    33   ar
    20    31    29   ar
    21    47    48    1
    22    47    50    1
    23    33    32   ar
    24    43    42    1
    25    78    79    1
    26    22    21    2
    27    54    48   am
    28    54    55    1
    29    16    17    1
    30    36    42   am
    31    36    35    1
    32    48    49    2
    33    29    28   ar
    34    15    14    2
    35    14    19   am
    36    55    56    1
    37    79    80    2
    38    25    24    1
    39    25    34   am
    40    32    30   ar
    41     1     2    1
    42    40    39    1
    43    57    56    2
    44    50    51    1
    45    35    34    1
    46    35    38    1
    47    10    11    2
    48    10     9    1
    49    19    20    1
    50    21    23   am
    51    21    20    1
    52    24    23    1
    53    24    27    1
    54    56    61   am
    55     4     3    2
    56    28    30   ar
    57    28    27    1
    58    80    82    1
    59    80    81    1
    60    52    51    1
    61   202   203    1
    62     3     2    1
    63     3     8   am
    64     2     5    1
    65    39    38    1
    66    39    41    1
    67    83    84    1
    68    64    63    2
    69    51    53    1
    70     8     9    1
    71    61    62    1
    72    63    62    1
    73   113   114    1
    74   113   112    1
    75   114   108    1
    76   203   206    1
    77   203   204    1
    78   200   198    1
    79    84    85    1
    80    62    65    1
    81     5     7    1
    82     5     6    1
    83   206   207    1
    84   204   205    2
    85   112   109    1
    86   196   197    2
    87   196   195    1
    88   108   109    1
    89    86    85    2
    90    85    87   am
    91   198   195    1
    92   198   199    1
    93    65    66    1
    94   207   208    2
    95   207   209   am
    96   195   194    1
    97   109   110    1
    98   201   199    1
    99   153   151    1
   100    87    88    1
   101    66    67    1
   102   115   110   am
   103   115   116    1
   104   110   111    2
   105   119   116    1
   106   116   117    1
   107   193   192    1
   108    88    89    1
   109    88    91    1
   110   151   152    1
   111   151   148    1
   112    67    68    1
   113   147   148    1
   114    68    69    2
   115   100   101    1
   116   100    99    1
   117   101   102    1
   118    89    90    2
   119    89    95   am
   120    91    92    1
   121   148   149    1
   122    95    96    1
   123   117   118    2
   124   117   120   am
   125   192   189    1
   126    69    71    1
   127    69    70    1
   128    96    99    1
   129    96    97    1
   130   102   103    1
   131   120   121    1
   132    92    94   ar
   133    92    93   ar
   134   189   188    1
   135   189   190    1
   136   149   150    2
   137   149   154   am
   138    97    98    2
   139    97   104   am
   140   123   122    2
   141   154   155    1
   142   190   191    2
   143   121   122    1
   144   121   124    1
   145   104   105    1
   146   122   125   am
   147   157   156    2
   148   139   137    1
   149   187   186    1
   150   155   156    1
   151   155   158    1
   152   156   160   am
   153   125   126    1
   154   105   106    1
   155   137   138    1
   156   137   134    1
   157   106   107    2
   158   143   142    2
   159   158   159    1
   160   186   185    1
   161   126   127    1
   162   126   129    1
   163   133   134    1
   164   133   127   am
   165   178   177    1
   166   160   161    1
   167   134   135    1
   168   142   141    1
   169   127   128    2
   170   144   141    1
   171   144   145    1
   172   161   164    1
   173   161   162    1
   174   141   140    1
   175   131   130    1
   176   129   130    1
   177   185   184    1
   178   136   135    2
   179   177   175   ar
   180   177   176   ar
   181   164   165    1
   182   164   166    1
   183   162   163    2
   184   175   173   ar
   185   130   132    1
   186   145   146    1
   187   184   183    1
   188   140   146    1
   189   176   174   ar
   190   183   180    1
   191   182   181    2
   192   173   172   ar
   193   180   181    1
   194   180   179    1
   195   174   172   ar
   196   172   171    1
   197   170   169    2
   198   171   168    1
   199   169   168    1
   200   168   167    1
