@<TRIPOS>MOLECULE
tmp/5msvA00.pdb
 169 164 0 0 0
SMALL
GASTEIGER

@<TRIPOS>ATOM
      1  N         39.6710   99.7590   24.5190 N.3    29  ASP29      -0.1225
      2  CA        38.6880   98.9160   25.2060 C.3    29  ASP29       0.1805
      3  C         37.4320   99.7570   25.5100 C.2    29  ASP29       0.2598
      4  O         37.3530  100.9190   25.0990 O.2    29  ASP29      -0.2718
      5  CB        39.3010   98.2690   26.4710 C.3    29  ASP29       0.1424
      6  CG        39.8010   99.2930   27.5130 C.2    29  ASP29       0.3668
      7  OD1       39.0750  100.2450   27.8620 O.co2  29  ASP29      -0.2456
      8  OD2       40.9210   99.1150   28.0300 O.co2  29  ASP29      -0.2456
      9  N         36.4550   99.1710   26.2020 N.am   30  SER30      -0.1938
     10  CA        35.2060   99.8750   26.5540 C.3    30  SER30       0.2055
     11  C         35.3750  101.1170   27.4660 C.2    30  SER30       0.2642
     12  O         34.5210  102.0090   27.4410 O.2    30  SER30      -0.2714
     13  CB        34.1750   98.9010   27.1670 C.3    30  SER30       0.2130
     14  OG        34.6630   98.2540   28.3420 O.3    30  SER30      -0.2179
     15  N         36.4580  101.1730   28.2500 N.am   31  LEU31      -0.1977
     16  CA        36.7020  102.2990   29.1700 C.3    31  LEU31       0.1596
     17  C         37.4630  103.4600   28.5330 C.2    31  LEU31       0.2287
     18  O         37.1020  104.6210   28.7420 O.2    31  LEU31      -0.2864
     19  CB        37.4170  101.8180   30.4360 C.3    31  LEU31       0.0297
     20  CG        36.6750  100.7280   31.2270 C.3    31  LEU31       0.0022
     21  CD1       37.4200  100.4420   32.5260 C.3    31  LEU31       0.0001
     22  CD2       35.2120  101.0750   31.5060 C.3    31  LEU31       0.0001
     23  N         24.6100   95.0970   26.4500 N.3   223  LEU223     -0.1231
     24  CA        25.9120   95.6260   26.8220 C.3   223  LEU223      0.1693
     25  C         26.0350   95.4790   28.3390 C.2   223  LEU223      0.2592
     26  O         25.4160   96.2190   29.1070 O.2   223  LEU223     -0.2718
     27  CB        26.0700   97.0830   26.3750 C.3   223  LEU223      0.0284
     28  CG        27.3760   97.8050   26.7350 C.3   223  LEU223      0.0019
     29  CD1       28.6090   96.9480   26.5180 C.3   223  LEU223      0.0001
     30  CD2       27.4890   99.0890   25.9260 C.3   223  LEU223      0.0001
     31  N         26.8160   94.4860   28.7510 N.am  224  VAL224     -0.1966
     32  CA        26.9890   94.1320   30.1580 C.3   224  VAL224      0.1727
     33  C         28.2650   94.7930   30.6400 C.2   224  VAL224      0.2616
     34  O         29.3640   94.3240   30.3480 O.2   224  VAL224     -0.2715
     35  CB        27.0740   92.6060   30.3440 C.3   224  VAL224      0.0290
     36  CG1       27.1700   92.2440   31.8270 C.3   224  VAL224      0.0023
     37  CG2       25.8670   91.9380   29.7020 C.3   224  VAL224      0.0023
     38  N         28.1140   95.8940   31.3620 N.am  225  ASN225     -0.1958
     39  CA        29.2520   96.6990   31.7780 C.3   225  ASN225      0.1819
     40  C         28.9380   97.3920   33.1060 C.2   225  ASN225      0.2621
     41  O         27.9420   98.1010   33.2190 O.2   225  ASN225     -0.2715
     42  CB        29.5780   97.7190   30.6850 C.3   225  ASN225      0.1195
     43  CG        30.8900   98.4330   30.9260 C.2   225  ASN225      0.2630
     44  OD1       31.0560   99.1130   31.9380 O.2   225  ASN225     -0.2716
     45  ND2       31.8310   98.2900   30.0050 N.am  225  ASN225     -0.0877
     46  N         29.8050   97.1840   34.0910 N.am  226  HIS226     -0.1959
     47  CA        29.5800   97.6340   35.4780 C.3   226  HIS226      0.1787
     48  C         30.0570   99.0620   35.7670 C.2   226  HIS226      0.2620
     49  O         29.8230   99.5680   36.8550 O.2   226  HIS226     -0.2715
     50  CB        30.2700   96.6520   36.4430 C.3   226  HIS226      0.0785
     51  CG        29.5890   95.3180   36.5360 C.ar  226  HIS226      0.0821
     52  ND1       30.0330   94.3120   37.3690 N.ar  226  HIS226     -0.2267
     53  CD2       28.4810   94.8350   35.9200 C.ar  226  HIS226      0.1154
     54  CE1       29.2400   93.2620   37.2470 C.ar  226  HIS226      0.1986
     55  NE2       28.2890   93.5530   36.3770 N.ar  226  HIS226     -0.2212
     56  N         30.7210   99.6910   34.7960 N.am  227  VAL227     -0.1977
     57  CA        31.2920  101.0330   34.9350 C.3   227  VAL227      0.1596
     58  C         30.5360  102.0930   34.1230 C.2   227  VAL227      0.2287
     59  O         30.3600  103.2100   34.6040 O.2   227  VAL227     -0.2864
     60  CB        32.7790  101.0130   34.5380 C.3   227  VAL227      0.0276
     61  CG1       33.3950  102.4000   34.5720 C.3   227  VAL227      0.0022
     62  CG2       33.5390  100.0870   35.4780 C.3   227  VAL227      0.0022
     63  N         18.8660   90.7240   35.7000 N.3   261  THR261     -0.1218
     64  CA        20.0100   90.6930   36.6040 C.3   261  THR261      0.1862
     65  C         19.5960   91.0160   38.0330 C.2   261  THR261      0.2287
     66  O         18.6610   91.7870   38.2540 O.2   261  THR261     -0.2866
     67  CB        21.1020   91.6830   36.1310 C.3   261  THR261      0.1770
     68  OG1       22.1610   91.7400   37.0900 O.3   261  THR261     -0.2211
     69  CG2       20.5410   93.0930   35.9390 C.3   261  THR261      0.0375
     70  N         24.0450   99.8610   34.5540 N.3   296  TYR296     -0.1241
     71  CA        23.6950   98.5180   34.1130 C.3   296  TYR296      0.1605
     72  C         22.3820   98.0590   34.7390 C.2   296  TYR296      0.2264
     73  O         21.4720   97.6350   34.0280 O.2   296  TYR296     -0.2867
     74  CB        24.8450   97.5380   34.4220 C.3   296  TYR296      0.0534
     75  CG        24.5060   96.0990   34.1290 C.ar  296  TYR296     -0.0201
     76  CD1       24.2290   95.6730   32.8240 C.ar  296  TYR296     -0.0009
     77  CD2       24.4440   95.1630   35.1560 C.ar  296  TYR296     -0.0009
     78  CE1       23.8980   94.3470   32.5560 C.ar  296  TYR296      0.0417
     79  CE2       24.1260   93.8360   34.9020 C.ar  296  TYR296      0.0417
     80  CZ        23.8500   93.4280   33.6030 C.ar  296  TYR296      0.1957
     81  OH        23.5230   92.1190   33.3810 O.3   296  TYR296     -0.2866
     82  N         19.6040   86.9820   36.5220 N.3   323  SER323     -0.1202
     83  CA        20.7760   86.1700   36.8350 C.3   323  SER323      0.2020
     84  C         21.6210   86.7690   37.9460 C.2   323  SER323      0.2619
     85  O         21.7110   87.9820   38.1040 O.2   323  SER323     -0.2717
     86  CB        21.6420   85.9720   35.5860 C.3   323  SER323      0.2103
     87  OG        22.3010   87.1750   35.2190 O.3   323  SER323     -0.2182
     88  N         22.2430   85.8800   38.7050 N.am  324  ASP324     -0.1959
     89  CA        23.3690   86.2090   39.5820 C.3   324  ASP324      0.1840
     90  C         24.6460   86.0690   38.7250 C.2   324  ASP324      0.2622
     91  O         24.5700   86.2090   37.5060 O.2   324  ASP324     -0.2715
     92  CB        23.3580   85.2710   40.8040 C.3   324  ASP324      0.1450
     93  CG        23.4900   83.7710   40.4330 C.2   324  ASP324      0.3671
     94  OD1       23.3540   83.3930   39.2400 O.co2 324  ASP324     -0.2456
     95  OD2       23.7020   82.9630   41.3610 O.co2 324  ASP324     -0.2456
     96  N         25.7980   85.7880   39.3330 N.am  325  MET325     -0.1963
     97  CA        27.0100   85.4810   38.5780 C.3   325  MET325      0.1736
     98  C         26.9020   84.0810   37.9400 C.2   325  MET325      0.2616
     99  O         26.8030   83.0720   38.6520 O.2   325  MET325     -0.2715
    100  CB        28.2460   85.5660   39.4840 C.3   325  MET325      0.0427
    101  CG        29.5590   85.7090   38.7160 C.3   325  MET325      0.0599
    102  SD        29.7880   87.2770   37.8400 S.3   325  MET325     -0.1393
    103  CE        29.6330   88.4710   39.1770 C.3   325  MET325      0.0692
    104  N         26.9020   84.0270   36.6070 N.am  326  ILE326     -0.1977
    105  CA        26.8150   82.7600   35.8720 C.3   326  ILE326      0.1596
    106  C         28.2270   82.1970   35.6890 C.2   326  ILE326      0.2287
    107  O         28.9850   82.6770   34.8540 O.2   326  ILE326     -0.2864
    108  CB        26.0930   82.9150   34.5100 C.3   326  ILE326      0.0276
    109  CG1       24.7200   83.5770   34.6780 C.3   326  ILE326      0.0022
    110  CG2       25.9190   81.5530   33.8310 C.3   326  ILE326      0.0022
    111  CD1       23.7930   82.8720   35.6650 C.3   326  ILE326      0.0001
    112  N         33.3930   82.7860   31.7280 N.3   337  ASN337     -0.1240
    113  CA        33.1510   84.1690   31.3410 C.3   337  ASN337      0.1653
    114  C         34.3840   84.9830   31.7040 C.2   337  ASN337      0.2266
    115  O         34.5260   85.4290   32.8430 O.2   337  ASN337     -0.2867
    116  CB        31.9010   84.7220   32.0400 C.3   337  ASN337      0.1155
    117  CG        31.4050   86.0130   31.4150 C.2   337  ASN337      0.2627
    118  OD1       32.0360   86.5660   30.5210 O.2   337  ASN337     -0.2716
    119  ND2       30.2640   86.5000   31.8910 N.am  337  ASN337     -0.0877
    120  N         35.6750   88.0570   30.9850 N.3   339  PRO339     -0.2102
    121  CA        35.6090   89.4120   31.5390 C.3   339  PRO339      0.1504
    122  C         34.7650   89.6190   32.8170 C.2   339  PRO339      0.2576
    123  O         34.7570   90.7370   33.3380 O.2   339  PRO339     -0.2718
    124  CB        35.0260   90.2290   30.3790 C.3   339  PRO339      0.0282
    125  CG        34.2040   89.2620   29.6150 C.3   339  PRO339      0.0208
    126  CD        34.9640   87.9690   29.6940 C.3   339  PRO339      0.0893
    127  N         34.0770   88.5980   33.3360 N.am  340  ASP340     -0.1960
    128  CA        33.2370   88.8190   34.5310 C.3   340  ASP340      0.1840
    129  C         34.0580   89.0560   35.8020 C.2   340  ASP340      0.2621
    130  O         35.2570   88.7620   35.8590 O.2   340  ASP340     -0.2715
    131  CB        32.0980   87.7700   34.6900 C.3   340  ASP340      0.1450
    132  CG        32.4900   86.4980   35.4780 C.2   340  ASP340      0.3671
    133  OD1       33.5640   86.4200   36.1090 O.co2 340  ASP340     -0.2456
    134  OD2       31.6580   85.5540   35.4800 O.co2 340  ASP340     -0.2456
    135  N         33.3860   89.6230   36.7930 N.am  341  GLN341     -0.1977
    136  CA        34.0150   90.0260   38.0510 C.3   341  GLN341      0.1601
    137  C         34.6500   88.8470   38.8080 C.2   341  GLN341      0.2287
    138  O         35.7460   88.9830   39.3520 O.2   341  GLN341     -0.2864
    139  CB        32.9770   90.7090   38.9320 C.3   341  GLN341      0.0394
    140  CG        33.5310   91.4150   40.1640 C.3   341  GLN341      0.0908
    141  CD        32.4180   91.8220   41.1110 C.2   341  GLN341      0.2608
    142  OE1       32.1720   93.0070   41.3190 O.2   341  GLN341     -0.2717
    143  NE2       31.7180   90.8380   41.6590 N.am  341  GLN341     -0.0878
    144  N         37.8170   87.4970   36.8840 N.3   344  ARG344     -0.1245
    145  CA        38.8380   88.5140   37.1370 C.3   344  ARG344      0.1563
    146  C         39.4360   88.3810   38.5420 C.2   344  ARG344      0.2260
    147  O         40.6550   88.4350   38.7010 O.2   344  ARG344     -0.2867
    148  CB        38.2730   89.9220   36.9270 C.3   344  ARG344      0.0307
    149  CG        38.0530   90.2950   35.4700 C.3   344  ARG344      0.0489
    150  CD        37.2790   91.5990   35.3480 C.3   344  ARG344      0.2205
    151  NE        37.0370   91.9730   33.9550 N.pl3 344  ARG344     -0.0865
    152  CZ        37.9420   92.4950   33.1220 C.cat 344  ARG344      0.5346
    153  NH1       39.1840   92.7510   33.5100 N.pl3 344  ARG344      0.1354
    154  NH2       37.5860   92.7780   31.8760 N.pl3 344  ARG344      0.1354
    155  N         40.2030   97.1090   37.1130 N.3   456  PRO456     -0.2102
    156  CA        39.1610   98.1100   36.7920 C.3   456  PRO456      0.1504
    157  C         37.8510   98.0160   37.6000 C.2   456  PRO456      0.2575
    158  O         37.0260   98.9310   37.5220 O.2   456  PRO456     -0.2718
    159  CB        38.8880   97.8610   35.3020 C.3   456  PRO456      0.0282
    160  CG        39.3080   96.4530   35.0610 C.3   456  PRO456      0.0208
    161  CD        40.4800   96.2250   35.9630 C.3   456  PRO456      0.0893
    162  N         37.6480   96.9170   38.3280 N.am  457  LEU457     -0.1980
    163  CA        36.5020   96.7550   39.2220 C.3   457  LEU457      0.1596
    164  C         36.8970   96.7080   40.7050 C.2   457  LEU457      0.2287
    165  O         36.0720   96.3250   41.5370 O.2   457  LEU457     -0.2864
    166  CB        35.7360   95.4790   38.8570 C.3   457  LEU457      0.0297
    167  CG        35.2340   95.3350   37.4200 C.3   457  LEU457      0.0022
    168  CD1       34.6240   93.9510   37.2350 C.3   457  LEU457      0.0001
    169  CD2       34.2220   96.4140   37.0690 C.3   457  LEU457      0.0001
@<TRIPOS>BOND
     1     1     2    1
     2     4     3    2
     3     2     3    1
     4     2     5    1
     5     3     9   am
     6    30    28    1
     7     9    10    1
     8    27    28    1
     9    27    24    1
    10    23    24    1
    11     5     6    1
    12    29    28    1
    13    10    13    1
    14    10    11    1
    15    24    25    1
    16    13    14    1
    17    12    11    2
    18    11    15   am
    19     6     7   ar
    20     6     8   ar
    21    15    16    1
    22    25    31   am
    23    25    26    2
    24    17    18    2
    25    17    16    1
    26    31    32    1
    27    16    19    1
    28   125   126    1
    29   125   124    1
    30   126   120    1
    31    37    35    1
    32    45    43   am
    33    32    35    1
    34    32    33    1
    35    35    36    1
    36    34    33    2
    37   124   121    1
    38    19    20    1
    39   118   117    2
    40    33    38   am
    41    42    43    1
    42    42    39    1
    43    43    44    2
    44   120   121    1
    45    20    22    1
    46    20    21    1
    47   113   114    1
    48   113   112    1
    49   113   116    1
    50    38    39    1
    51   117   119   am
    52   117   116    1
    53   121   122    1
    54   114   115    2
    55    39    40    1
    56   154   152    1
    57    78    76   ar
    58    78    80   ar
    59   122   127   am
    60   122   123    2
    61    76    75   ar
    62    40    41    2
    63    40    46   am
    64   152   153    1
    65   152   151    2
    66   127   128    1
    67    81    80    1
    68    80    79   ar
    69   110   108    1
    70   151   150    1
    71    73    72    2
    72    46    47    1
    73    71    74    1
    74    71    70    1
    75    71    72    1
    76    58    59    2
    77    58    57    1
    78    75    74    1
    79    75    77   ar
    80   108   109    1
    81   108   105    1
    82   128   131    1
    83   128   129    1
    84    60    61    1
    85    60    57    1
    86    60    62    1
    87   109   111    1
    88   131   132    1
    89    56    57    1
    90    56    48   am
    91   107   106    2
    92    79    77   ar
    93   160   159    1
    94   160   161    1
    95    87    86    1
    96   159   156    1
    97   150   149    1
    98   149   148    1
    99   132   134   ar
   100   132   133   ar
   101    47    48    1
   102    47    50    1
   103    86    83    1
   104   106   105    1
   105    63    64    1
   106    48    49    2
   107   129   130    2
   108   129   135   am
   109   105   104    1
   110    53    55   ar
   111    53    51   ar
   112    69    67    1
   113   161   155    1
   114    67    64    1
   115    67    68    1
   116    55    54   ar
   117    50    51    1
   118    82    83    1
   119    51    52   ar
   120    64    65    1
   121   104    98   am
   122   156   155    1
   123   156   157    1
   124   135   136    1
   125    83    84    1
   126   144   145    1
   127   148   145    1
   128   169   167    1
   129   145   146    1
   130   168   167    1
   131    54    52   ar
   132   167   166    1
   133    91    90    2
   134   158   157    2
   135   157   162   am
   136   102   101    1
   137   102   103    1
   138    98    97    1
   139    98    99    2
   140    84    85    2
   141    84    88   am
   142    65    66    2
   143   136   137    1
   144   136   139    1
   145   162   163    1
   146   146   147    2
   147    97    96    1
   148    97   100    1
   149    88    89    1
   150   101   100    1
   151    90    96   am
   152    90    89    1
   153   137   138    2
   154   166   163    1
   155   139   140    1
   156   163   164    1
   157    94    93   ar
   158    89    92    1
   159   140   141    1
   160    93    92    1
   161    93    95   ar
   162   164   165    2
   163   141   142    2
   164   141   143   am
