@<TRIPOS>MOLECULE
tmp/5msxA00.pdb
 78 72 0 0 0
SMALL
GASTEIGER

@<TRIPOS>ATOM
      1  N         56.8440   24.2480   78.2030 N.3   125  LEU125     -0.1245
      2  CA        58.1330   23.7200   77.7520 C.3   125  LEU125      0.1561
      3  C         58.1480   23.8130   76.2380 C.2   125  LEU125      0.2260
      4  O         57.1320   23.4960   75.5950 O.2   125  LEU125     -0.2867
      5  CB        58.3150   22.2660   78.1760 C.3   125  LEU125      0.0270
      6  CG        58.4810   21.9750   79.6580 C.3   125  LEU125      0.0019
      7  CD1       58.7300   20.5000   79.8780 C.3   125  LEU125      0.0001
      8  CD2       59.6240   22.7840   80.2440 C.3   125  LEU125      0.0001
      9  N         60.9050   22.4740   74.4400 N.3   127  SER127     -0.1217
     10  CA        61.7620   21.4060   73.9380 C.3   127  SER127      0.1889
     11  C         60.9700   20.4280   73.0310 C.2   127  SER127      0.2288
     12  O         59.7350   20.4020   73.0360 O.2   127  SER127     -0.2866
     13  CB        62.4010   20.6800   75.1210 C.3   127  SER127      0.2089
     14  OG        61.4290   20.3500   76.1040 O.3   127  SER127     -0.2183
     15  N         60.4910   17.2490   73.2300 N.3   129  ASN129     -0.1240
     16  CA        59.5940   16.5380   74.1360 C.3   129  ASN129      0.1653
     17  C         59.1560   17.6070   75.1760 C.2   129  ASN129      0.2266
     18  O         59.9790   18.0230   76.0050 O.2   129  ASN129     -0.2867
     19  CB        60.3380   15.3670   74.8110 C.3   129  ASN129      0.1155
     20  CG        59.4610   14.5710   75.7770 C.2   129  ASN129      0.2627
     21  OD1       58.4090   15.0090   76.2160 O.2   129  ASN129     -0.2716
     22  ND2       59.9050   13.4000   76.1060 N.am  129  ASN129     -0.0877
     23  N         56.6910   17.1960   77.4840 N.3   131  GLY131     -0.1210
     24  CA        55.9860   16.5170   78.5650 C.3   131  GLY131      0.1956
     25  C         56.3960   16.9910   79.9450 C.2   131  GLY131      0.2612
     26  O         57.5150   17.5030   80.1480 O.2   131  GLY131     -0.2717
     27  N         55.4690   16.8100   80.8910 N.am  132  GLY132     -0.1956
     28  CA        55.6560   17.1440   82.3050 C.3   132  GLY132      0.1869
     29  C         54.3750   17.7660   82.8600 C.2   132  GLY132      0.2309
     30  O         53.6220   18.3770   82.1320 O.2   132  GLY132     -0.2863
     31  N         58.6020   21.2900   88.3520 N.3   149  TRP149     -0.1241
     32  CA        57.5280   20.4050   87.9240 C.3   149  TRP149      0.1605
     33  C         57.7690   18.9320   88.3150 C.2   149  TRP149      0.2264
     34  O         58.7610   18.6170   88.9920 O.2   149  TRP149     -0.2867
     35  CB        57.1980   20.6220   86.4290 C.3   149  TRP149      0.0550
     36  CG        58.1860   20.1730   85.3930 C.ar  149  TRP149      0.0003
     37  CD1       58.1510   19.0020   84.6520 C.ar  149  TRP149      0.0946
     38  CD2       59.2990   20.9270   84.8940 C.ar  149  TRP149      0.0152
     39  NE1       59.2020   18.9780   83.7610 N.ar  149  TRP149     -0.2442
     40  CE2       59.9210   20.1440   83.8860 C.ar  149  TRP149      0.0810
     41  CE3       59.8720   22.1640   85.2450 C.ar  149  TRP149      0.0012
     42  CZ2       61.0670   20.5610   83.2170 C.ar  149  TRP149      0.0191
     43  CZ3       61.0320   22.5870   84.5670 C.ar  149  TRP149      0.0001
     44  CH2       61.6120   21.7830   83.5640 C.ar  149  TRP149      0.0015
     45  N         58.3990   14.8510   88.5660 N.3   151  ARG151     -0.1245
     46  CA        59.5850   14.0030   88.4170 C.3   151  ARG151      0.1563
     47  C         60.8650   14.7570   88.7610 C.2   151  ARG151      0.2260
     48  O         61.9360   14.5010   88.1820 O.2   151  ARG151     -0.2867
     49  CB        59.6640   13.3480   87.0280 C.3   151  ARG151      0.0307
     50  CG        58.3500   12.6660   86.6510 C.3   151  ARG151      0.0489
     51  CD        58.5060   11.7180   85.4640 C.3   151  ARG151      0.2205
     52  NE        59.1250   10.4720   85.8780 N.pl3 151  ARG151     -0.0865
     53  CZ        59.3630    9.4410   85.0650 C.cat 151  ARG151      0.5346
     54  NH1       59.0700    9.5010   83.7780 N.pl3 151  ARG151      0.1354
     55  NH2       59.9150    8.3410   85.5560 N.pl3 151  ARG151      0.1354
     56  N         61.9510   17.8100   88.3700 N.3   153  HIS153     -0.1241
     57  CA        62.5530   18.8300   87.5080 C.3   153  HIS153      0.1621
     58  C         62.5000   20.2870   88.0670 C.2   153  HIS153      0.2264
     59  O         61.5600   20.7060   88.7650 O.2   153  HIS153     -0.2867
     60  CB        61.9260   18.8130   86.1130 C.3   153  HIS153      0.0745
     61  CG        62.2100   17.5780   85.3280 C.ar  153  HIS153      0.0817
     62  ND1       61.3410   16.5160   85.2790 N.ar  153  HIS153     -0.2268
     63  CD2       63.2660   17.2420   84.5410 C.ar  153  HIS153      0.1154
     64  CE1       61.8580   15.5710   84.5000 C.ar  153  HIS153      0.1986
     65  NE2       63.0250   15.9880   84.0450 N.ar  153  HIS153     -0.2212
     66  N         66.9920   26.8870   79.0050 N.3   166  SER166     -0.1217
     67  CA        67.4090   25.6330   78.3760 C.3   166  SER166      0.1889
     68  C         68.1430   24.6590   79.3280 C.2   166  SER166      0.2288
     69  O         68.2100   23.4830   79.0290 O.2   166  SER166     -0.2866
     70  CB        68.2920   25.9290   77.1580 C.3   166  SER166      0.2089
     71  OG        69.4640   26.5810   77.6010 O.3   166  SER166     -0.2183
     72  N         67.9930   22.5050   82.3730 N.3   168  VAL168     -0.1245
     73  CA        67.0400   21.8280   83.2490 C.3   168  VAL168      0.1561
     74  C         67.8200   20.8870   84.1440 C.2   168  VAL168      0.2260
     75  O         68.6320   20.1050   83.6610 O.2   168  VAL168     -0.2867
     76  CB        66.0100   21.0020   82.4400 C.3   168  VAL168      0.0252
     77  CG1       65.0410   20.2850   83.3720 C.3   168  VAL168      0.0019
     78  CG2       65.2350   21.9080   81.4990 C.3   168  VAL168      0.0019
@<TRIPOS>BOND
     1    11    12    2
     2    11    10    1
     3    15    16    1
     4    10     9    1
     5    10    13    1
     6    16    19    1
     7    16    17    1
     8    19    20    1
     9    13    14    1
    10    17    18    2
    11     4     3    2
    12    20    22   am
    13    20    21    2
    14     3     2    1
    15    70    71    1
    16    70    67    1
    17    23    24    1
    18     2     5    1
    19     2     1    1
    20     5     6    1
    21    67    66    1
    22    67    68    1
    23    24    25    1
    24    69    68    2
    25     6     7    1
    26     6     8    1
    27    25    26    2
    28    25    27   am
    29    27    28    1
    30    78    76    1
    31    30    29    2
    32    28    29    1
    33    72    73    1
    34    76    73    1
    35    76    77    1
    36    42    44   ar
    37    42    40   ar
    38    73    74    1
    39    44    43   ar
    40    75    74    2
    41    39    40   ar
    42    39    37   ar
    43    54    53    1
    44    40    38   ar
    45    65    64   ar
    46    65    63   ar
    47    64    62   ar
    48    63    61   ar
    49    43    41   ar
    50    37    36   ar
    51    38    41   ar
    52    38    36   ar
    53    53    55    1
    54    53    52    2
    55    62    61   ar
    56    61    60    1
    57    36    35    1
    58    51    52    1
    59    51    50    1
    60    60    57    1
    61    35    32    1
    62    50    49    1
    63    49    46    1
    64    57    58    1
    65    57    56    1
    66    32    33    1
    67    32    31    1
    68    58    59    2
    69    48    47    2
    70    33    34    2
    71    46    45    1
    72    46    47    1
