@<TRIPOS>MOLECULE
tmp/5msxA01.pdb
 100 95 0 0 0
SMALL
GASTEIGER

@<TRIPOS>ATOM
      1  N         45.0240   18.7450   94.5030 N.3    16  ASP16      -0.1239
      2  CA        46.1680   19.4720   93.9450 C.3    16  ASP16       0.1674
      3  C         46.1000   20.9870   94.2220 C.2    16  ASP16       0.2266
      4  O         46.4650   21.7850   93.3530 O.2    16  ASP16      -0.2867
      5  CB        46.2490   19.2310   92.4180 C.3    16  ASP16       0.1410
      6  CG        46.0130   17.7710   92.0150 C.2    16  ASP16       0.3668
      7  OD1       46.4330   16.8840   92.7980 O.co2  16  ASP16      -0.2456
      8  OD2       45.4160   17.5160   90.9020 O.co2  16  ASP16      -0.2456
      9  N         42.4760   21.3800   91.1940 N.3    31  THR31      -0.1218
     10  CA        41.8250   20.4320   90.3200 C.3    31  THR31       0.1862
     11  C         40.4430   20.1930   90.8880 C.2    31  THR31       0.2287
     12  O         40.3060   19.9000   92.0990 O.2    31  THR31      -0.2866
     13  CB        42.5500   19.0670   90.2910 C.3    31  THR31       0.1770
     14  OG1       43.8920   19.2410   89.8520 O.3    31  THR31      -0.2211
     15  CG2       41.8370   18.1120   89.3220 C.3    31  THR31       0.0375
     16  N         40.5980    9.7070   85.6510 N.3    39  LEU39      -0.1245
     17  CA        41.5140   10.6900   85.0910 C.3    39  LEU39       0.1561
     18  C         41.1890   11.1110   83.6340 C.2    39  LEU39       0.2260
     19  O         41.9410   11.8700   83.0620 O.2    39  LEU39      -0.2867
     20  CB        42.9600   10.1720   85.1860 C.3    39  LEU39       0.0270
     21  CG        43.5550   10.1300   86.6030 C.3    39  LEU39       0.0019
     22  CD1       44.9530    9.5700   86.5480 C.3    39  LEU39       0.0001
     23  CD2       43.5950   11.5050   87.2720 C.3    39  LEU39       0.0001
     24  N         44.1280   20.2300   85.3050 N.3    72  TRP72      -0.1227
     25  CA        44.8010   19.7380   86.4990 C.3    72  TRP72       0.1737
     26  C         45.8140   20.7310   87.1190 C.2    72  TRP72       0.2595
     27  O         46.5200   21.4490   86.3890 O.2    72  TRP72      -0.2718
     28  CB        45.5980   18.4980   86.1360 C.3    72  TRP72       0.0564
     29  CG        44.8030   17.2950   85.7760 C.ar   72  TRP72       0.0003
     30  CD1       43.4750   17.0600   86.0250 C.ar   72  TRP72       0.0946
     31  CD2       45.3140   16.1110   85.1670 C.ar   72  TRP72       0.0152
     32  NE1       43.1320   15.8290   85.5920 N.ar   72  TRP72      -0.2442
     33  CE2       44.2420   15.2120   85.0580 C.ar   72  TRP72       0.0810
     34  CE3       46.5810   15.7340   84.6890 C.ar   72  TRP72       0.0012
     35  CZ2       44.3810   13.9430   84.4870 C.ar   72  TRP72       0.0191
     36  CZ3       46.7370   14.4580   84.1030 C.ar   72  TRP72       0.0001
     37  CH2       45.6370   13.5750   84.0150 C.ar   72  TRP72       0.0015
     38  N         45.8800   20.7390   88.4590 N.am   73  ALA73      -0.1980
     39  CA        47.0510   21.1820   89.2020 C.3    73  ALA73       0.1597
     40  C         47.5690   22.5520   88.7980 C.2    73  ALA73       0.2287
     41  O         48.7610   22.7100   88.4750 O.2    73  ALA73      -0.2864
     42  CB        48.1570   20.1340   89.0750 C.3    73  ALA73       0.0319
     43  N         54.1470   17.6030   84.1540 N.3   133  ILE133     -0.1231
     44  CA        52.9360   18.0880   84.8240 C.3   133  ILE133      0.1692
     45  C         53.2420   18.8270   86.1440 C.2   133  ILE133      0.2592
     46  O         54.3410   18.7290   86.6740 O.2   133  ILE133     -0.2718
     47  CB        51.9920   16.8830   85.1200 C.3   133  ILE133      0.0266
     48  CG1       52.6860   15.8540   86.0510 C.3   133  ILE133      0.0019
     49  CG2       51.6160   16.2070   83.8050 C.3   133  ILE133      0.0020
     50  CD1       51.7980   14.7350   86.5740 C.3   133  ILE133      0.0001
     51  N         52.2380   19.5200   86.6890 N.am  134  ASP134     -0.1974
     52  CA        52.2620   19.9890   88.0870 C.3   134  ASP134      0.1709
     53  C         53.3090   21.0800   88.3320 C.2   134  ASP134      0.2293
     54  O         54.2020   20.9160   89.1940 O.2   134  ASP134     -0.2864
     55  CB        52.5190   18.8330   89.1000 C.3   134  ASP134      0.1436
     56  CG        51.4400   17.7460   89.1020 C.2   134  ASP134      0.3671
     57  OD1       50.4600   17.7880   88.3280 O.co2 134  ASP134     -0.2456
     58  OD2       51.5840   16.8180   89.9270 O.co2 134  ASP134     -0.2456
     59  N         55.4850   13.5570   91.8940 N.3   180  GLU180     -0.1245
     60  CA        54.7650   14.6680   91.3060 C.3   180  GLU180      0.1567
     61  C         54.4720   15.7190   92.3970 C.2   180  GLU180      0.2260
     62  O         55.0870   15.6930   93.4750 O.2   180  GLU180     -0.2867
     63  CB        53.5190   14.1500   90.5530 C.3   180  GLU180      0.0388
     64  CG        52.4870   13.4170   91.4190 C.3   180  GLU180      0.1160
     65  CD        51.3000   12.8320   90.6360 C.2   180  GLU180      0.3649
     66  OE1       51.3250   12.7180   89.3830 O.co2 180  GLU180     -0.2457
     67  OE2       50.3140   12.4510   91.3080 O.co2 180  GLU180     -0.2457
     68  N         50.1400    7.6320   98.9670 N.3   203  TYR203     -0.1241
     69  CA        50.6240    8.9910   98.7610 C.3   203  TYR203      0.1605
     70  C         51.3000    9.5090  100.0540 C.2   203  TYR203      0.2264
     71  O         50.7290    9.4110  101.1570 O.2   203  TYR203     -0.2867
     72  CB        49.4590    9.9160   98.3990 C.3   203  TYR203      0.0534
     73  CG        49.4990   10.6830   97.0810 C.ar  203  TYR203     -0.0201
     74  CD1       50.6880   11.0870   96.4740 C.ar  203  TYR203     -0.0009
     75  CD2       48.2900   11.0970   96.4860 C.ar  203  TYR203     -0.0009
     76  CE1       50.6660   11.8580   95.2990 C.ar  203  TYR203      0.0417
     77  CE2       48.2650   11.8540   95.3080 C.ar  203  TYR203      0.0417
     78  CZ        49.4450   12.2600   94.7360 C.ar  203  TYR203      0.1957
     79  OH        49.3760   13.0160   93.5700 O.3   203  TYR203     -0.2866
     80  N         49.3580   15.4760   96.9770 N.3   240  HIS240     -0.1241
     81  CA        49.5090   16.7400   96.2560 C.3   240  HIS240      0.1621
     82  C         48.6500   17.8550   96.8420 C.2   240  HIS240      0.2264
     83  O         47.4000   17.7950   96.8060 O.2   240  HIS240     -0.2867
     84  CB        49.1640   16.5400   94.7780 C.3   240  HIS240      0.0745
     85  CG        49.5300   17.6870   93.8830 C.ar  240  HIS240      0.0817
     86  ND1       49.5980   17.5500   92.5120 N.ar  240  HIS240     -0.2268
     87  CD2       49.8880   18.9680   94.1430 C.ar  240  HIS240      0.1154
     88  CE1       49.9620   18.6950   91.9650 C.ar  240  HIS240      0.1986
     89  NE2       50.1450   19.5720   92.9360 N.ar  240  HIS240     -0.2212
     90  N         38.4060   13.1260   95.5050 N.3   266  ARG266     -0.1245
     91  CA        39.2410   13.5230   96.6310 C.3   266  ARG266      0.1563
     92  C         38.6910   14.8300   97.2430 C.2   266  ARG266      0.2260
     93  O         37.9520   15.5670   96.5940 O.2   266  ARG266     -0.2867
     94  CB        40.7040   13.6500   96.1470 C.3   266  ARG266      0.0307
     95  CG        41.2670   12.3540   95.5660 C.3   266  ARG266      0.0489
     96  CD        42.5100   12.5170   94.6980 C.3   266  ARG266      0.2205
     97  NE        42.1680   13.2250   93.4530 N.pl3 266  ARG266     -0.0865
     98  CZ        43.0580   13.6560   92.5630 C.cat 266  ARG266      0.5346
     99  NH1       44.3340   13.4160   92.7440 N.pl3 266  ARG266      0.1354
    100  NH2       42.6750   14.3200   91.4840 N.pl3 266  ARG266      0.1354
@<TRIPOS>BOND
     1    19    18    2
     2    18    17    1
     3    49    47    1
     4    37    36   ar
     5    37    35   ar
     6    36    34   ar
     7    43    44    1
     8    35    33   ar
     9    34    31   ar
    10    44    47    1
    11    44    45    1
    12    33    31   ar
    13    33    32   ar
    14    17    20    1
    15    17    16    1
    16    47    48    1
    17    31    29   ar
    18    20    21    1
    19    24    25    1
    20    32    30   ar
    21    29    30   ar
    22    29    28    1
    23    48    50    1
    24    28    25    1
    25    45    46    2
    26    45    51   am
    27    27    26    2
    28    25    26    1
    29    22    21    1
    30    21    23    1
    31    51    52    1
    32    26    38   am
    33    52    53    1
    34    52    55    1
    35    57    56   ar
    36    53    54    2
    37    38    39    1
    38    41    40    2
    39    40    39    1
    40    42    39    1
    41    55    56    1
    42    56    58   ar
    43    15    13    1
    44    66    65   ar
    45    14    13    1
    46    13    10    1
    47    10    11    1
    48    10     9    1
    49    63    60    1
    50    63    64    1
    51    65    67   ar
    52    65    64    1
    53    11    12    2
    54     8     6   ar
    55    60    59    1
    56    60    61    1
    57   100    98    1
    58    88    86   ar
    59    88    89   ar
    60     6     5    1
    61     6     7   ar
    62    61    62    2
    63     5     2    1
    64    86    85   ar
    65    98    99    1
    66    98    97    2
    67    89    87   ar
    68     4     3    2
    69    97    96    1
    70    79    78    1
    71    85    87   ar
    72    85    84    1
    73     2     3    1
    74     2     1    1
    75    96    95    1
    76    78    76   ar
    77    78    77   ar
    78    84    81    1
    79    76    74   ar
    80    77    75   ar
    81    90    91    1
    82    95    94    1
    83    94    91    1
    84    81    82    1
    85    81    80    1
    86    74    73   ar
    87    75    73   ar
    88    93    92    2
    89    91    92    1
    90    83    82    2
    91    73    72    1
    92    72    69    1
    93    69    68    1
    94    69    70    1
    95    70    71    2
