@<TRIPOS>MOLECULE
tmp/5mt0A00.pdb
 151 146 0 0 0
SMALL
GASTEIGER

@<TRIPOS>ATOM
      1  N         17.6810   12.7110    7.7930 N.3    20  LEU20      -0.1245
      2  CA        17.9990   13.9950    7.1090 C.3    20  LEU20       0.1561
      3  C         17.9280   15.0350    8.1960 C.2    20  LEU20       0.2260
      4  O         16.8740   15.1420    8.8560 O.2    20  LEU20      -0.2867
      5  CB        16.9950   14.2830    6.0120 C.3    20  LEU20       0.0270
      6  CG        17.1270   15.5640    5.1710 C.3    20  LEU20       0.0019
      7  CD1       18.4800   15.5030    4.4320 C.3    20  LEU20       0.0001
      8  CD2       15.9620   15.6920    4.1450 C.3    20  LEU20       0.0001
      9  N         14.6080   10.7990   11.3950 N.3    24  HIS24      -0.1226
     10  CA        14.2600    9.6630   10.5000 C.3    24  HIS24       0.1752
     11  C         13.4640   10.1400    9.3020 C.2    24  HIS24       0.2596
     12  O         12.4490   10.8280    9.4910 O.2    24  HIS24      -0.2718
     13  CB        13.4870    8.6110   11.3190 C.3    24  HIS24       0.0759
     14  CG        12.9870    7.5120   10.4560 C.ar   24  HIS24       0.0818
     15  ND1       13.7830    6.4600   10.0940 N.ar   24  HIS24      -0.2268
     16  CD2       11.8380    7.4010    9.7690 C.ar   24  HIS24       0.1154
     17  CE1       13.1160    5.6980    9.2380 C.ar   24  HIS24       0.1986
     18  NE2       11.9300    6.2230    9.0570 N.ar   24  HIS24      -0.2212
     19  N         13.8710    9.7060    8.1110 N.am   25  LEU25      -0.1966
     20  CA        13.1820   10.0040    6.8940 C.3    25  LEU25       0.1728
     21  C         12.6610    8.7250    6.2360 C.2    25  LEU25       0.2616
     22  O         11.4980    8.6510    5.8530 O.2    25  LEU25      -0.2715
     23  CB        14.1850   10.7660    6.0170 C.3    25  LEU25       0.0311
     24  CG        13.6470   11.1210    4.6600 C.3    25  LEU25       0.0022
     25  CD1       12.6060   12.1950    4.8490 C.3    25  LEU25       0.0001
     26  CD2       14.7850   11.6310    3.8400 C.3    25  LEU25       0.0001
     27  N         13.5240    7.7360    6.0720 N.am   26  CYS26      -0.1968
     28  CA        13.1740    6.5210    5.3150 C.3    26  CYS26       0.1712
     29  C         13.8950    5.3670    5.9080 C.2    26  CYS26       0.2296
     30  O         14.9130    5.5510    6.6230 O.2    26  CYS26      -0.2864
     31  CB        13.6220    6.6620    3.8200 C.3    26  CYS26       0.0983
     32  SG        12.4610    7.6100    2.8420 S.3    26  CYS26      -0.0798
     33  N         13.3340    8.4600   -4.0250 N.3    41  HIS41      -0.1226
     34  CA        12.4590    9.6500   -3.8050 C.3    41  HIS41       0.1752
     35  C         12.7590   10.2370   -2.4690 C.2    41  HIS41       0.2596
     36  O         12.5620   11.4470   -2.2800 O.2    41  HIS41      -0.2718
     37  CB        10.9500    9.3260   -3.9160 C.3    41  HIS41       0.0759
     38  CG        10.4560    8.9730   -5.2930 C.ar   41  HIS41       0.0818
     39  ND1       10.5630    9.7840   -6.4150 N.ar   41  HIS41      -0.2268
     40  CD2        9.7570    7.8780   -5.6990 C.ar   41  HIS41       0.1154
     41  CE1        9.9710    9.1780   -7.4430 C.ar   41  HIS41       0.1986
     42  NE2        9.5170    8.0020   -7.0390 N.ar   41  HIS41      -0.2212
     43  N         13.1450    9.3920   -1.5110 N.am   42  CYS42      -0.1970
     44  CA        13.4240    9.8700   -0.1290 C.3    42  CYS42       0.1712
     45  C         14.2870   11.0920   -0.1400 C.2    42  CYS42       0.2296
     46  O         14.0430   12.0110    0.6920 O.2    42  CYS42      -0.2864
     47  CB        14.1240    8.7330    0.6130 C.3    42  CYS42       0.0983
     48  SG        13.1250    7.3260    0.9330 S.3    42  CYS42      -0.0798
     49  N         15.2330   12.9260   -3.0690 N.3    44  GLU44      -0.1231
     50  CA        15.2820   13.6810   -4.3620 C.3    44  GLU44       0.1699
     51  C         15.2090   15.1960   -4.1490 C.2    44  GLU44       0.2592
     52  O         15.8100   15.9140   -4.9590 O.2    44  GLU44      -0.2718
     53  CB        14.2320   13.1680   -5.3410 C.3    44  GLU44       0.0402
     54  CG        12.8110   13.6070   -4.9170 C.3    44  GLU44       0.1161
     55  CD        11.7380   12.9200   -5.7260 C.2    44  GLU44       0.3649
     56  OE1       10.6340   13.4290   -5.6210 O.co2  44  GLU44      -0.2457
     57  OE2       11.9400   11.9850   -6.4800 O.co2  44  GLU44      -0.2457
     58  N         14.5740   15.6840   -3.0530 N.am   45  ASP45      -0.1974
     59  CA        14.4920   17.1310   -2.8570 C.3    45  ASP45       0.1709
     60  C         15.3360   17.5100   -1.6150 C.2    45  ASP45       0.2293
     61  O         15.1240   18.5690   -1.0380 O.2    45  ASP45      -0.2864
     62  CB        13.0420   17.6090   -2.6580 C.3    45  ASP45       0.1436
     63  CG        12.1600   17.4900   -3.9240 C.2    45  ASP45       0.3671
     64  OD1       12.6070   17.8850   -5.0480 O.co2  45  ASP45      -0.2456
     65  OD2       11.0010   17.0000   -3.7780 O.co2  45  ASP45      -0.2456
     66  N         14.8690    5.0550   18.1290 N.3    60  LEU60      -0.1245
     67  CA        15.4440    6.2290   17.4810 C.3    60  LEU60       0.1561
     68  C         16.0570    7.2000   18.5090 C.2    60  LEU60       0.2260
     69  O         16.9100    7.9780   18.1240 O.2    60  LEU60      -0.2867
     70  CB        14.4030    6.9460   16.6700 C.3    60  LEU60       0.0270
     71  CG        13.8660    6.1880   15.4450 C.3    60  LEU60       0.0019
     72  CD1       12.7270    6.8960   14.7920 C.3    60  LEU60       0.0001
     73  CD2       15.0210    5.9500   14.4310 C.3    60  LEU60       0.0001
     74  N         10.2690    2.3950   10.8070 N.3   128  TRP128     -0.1227
     75  CA         9.8770    3.4020   11.8050 C.3   128  TRP128      0.1737
     76  C          8.8070    4.4010   11.2620 C.2   128  TRP128      0.2596
     77  O          8.6500    5.4940   11.7670 O.2   128  TRP128     -0.2718
     78  CB        11.1350    4.1720   12.2760 C.3   128  TRP128      0.0564
     79  CG        12.0920    3.4200   13.1050 C.ar  128  TRP128      0.0003
     80  CD1       12.1030    3.2920   14.4870 C.ar  128  TRP128      0.0946
     81  CD2       13.2520    2.7090   12.6360 C.ar  128  TRP128      0.0152
     82  NE1       13.1910    2.5810   14.8730 N.ar  128  TRP128     -0.2442
     83  CE2       13.9430    2.2390   13.7700 C.ar  128  TRP128      0.0810
     84  CE3       13.8210    2.5320   11.3590 C.ar  128  TRP128      0.0012
     85  CZ2       15.1680    1.5220   13.6770 C.ar  128  TRP128      0.0191
     86  CZ3       15.0430    1.8580   11.2700 C.ar  128  TRP128      0.0001
     87  CH2       15.7070    1.3420   12.4410 C.ar  128  TRP128      0.0015
     88  N          8.0760    4.0060   10.1840 N.am  129  GLY129     -0.1942
     89  CA         7.0420    4.8420    9.6650 C.3   129  GLY129      0.2014
     90  C          5.7910    4.8870   10.5000 C.2   129  GLY129      0.2638
     91  O          5.7020    4.2940   11.5690 O.2   129  GLY129     -0.2714
     92  N          4.8240    5.6630   10.0340 N.am  130  ILE130     -0.1977
     93  CA         3.5940    5.9320   10.8210 C.3   130  ILE130      0.1596
     94  C          2.8400    4.6720   11.1120 C.2   130  ILE130      0.2287
     95  O          2.8220    3.6980   10.3170 O.2   130  ILE130     -0.2864
     96  CB         2.7390    7.0730   10.2300 C.3   130  ILE130      0.0276
     97  CG1        2.1200    6.6500    8.9080 C.3   130  ILE130      0.0022
     98  CG2        3.5220    8.3230   10.1400 C.3   130  ILE130      0.0022
     99  CD1        1.1110    7.6140    8.3110 C.3   130  ILE130      0.0001
    100  N          4.2120    8.5780   15.0530 N.3   137  ARG137     -0.1245
    101  CA         5.5510    8.0970   14.7030 C.3   137  ARG137      0.1563
    102  C          6.0780    7.2390   15.8810 C.2   137  ARG137      0.2260
    103  O          6.2080    7.7490   16.9780 O.2   137  ARG137     -0.2867
    104  CB         6.5100    9.2630   14.4250 C.3   137  ARG137      0.0307
    105  CG         6.0230    9.9950   13.2340 C.3   137  ARG137      0.0489
    106  CD         6.9420   11.0510   12.9660 C.3   137  ARG137      0.2205
    107  NE         6.4380   11.7370   11.7760 N.pl3 137  ARG137     -0.0865
    108  CZ         7.1640   12.5580   11.0320 C.cat 137  ARG137      0.5346
    109  NH1        8.3750   12.9130   11.4600 N.pl3 137  ARG137      0.1354
    110  NH2        6.6410   13.1310    9.9160 N.pl3 137  ARG137      0.1354
    111  N          3.8820    2.2470    5.3630 N.3   179  CYS179     -0.1221
    112  CA         3.2120    3.5520    5.2600 C.3   179  CYS179      0.1808
    113  C          4.3250    4.6140    5.2130 C.2   179  CYS179      0.2601
    114  O          5.5330    4.2980    5.1180 O.2   179  CYS179     -0.2717
    115  CB         2.2310    3.8430    6.4230 C.3   179  CYS179      0.0970
    116  SG         0.8980    5.1380    6.1110 S.3   179  CYS179     -0.0800
    117  N          3.9450    5.8660    5.3060 N.am  180  LYS180     -0.1965
    118  CA         4.8720    6.9780    5.2080 C.3   180  LYS180      0.1728
    119  C          5.9890    6.8090    6.2880 C.2   180  LYS180      0.2616
    120  O          5.6910    6.6390    7.4690 O.2   180  LYS180     -0.2715
    121  CB         4.1180    8.3120    5.4080 C.3   180  LYS180      0.0311
    122  CG         4.9540    9.5500    5.3300 C.3   180  LYS180      0.0038
    123  CD         5.3750    9.8520    3.9130 C.3   180  LYS180      0.0206
    124  CE         4.2690   10.4600    3.0820 C.3   180  LYS180      0.1093
    125  NZ         4.7490   11.3230    1.9870 N.3   180  LYS180     -0.1314
    126  N          7.2260    6.9010    5.8700 N.am  181  GLY181     -0.1955
    127  CA         8.3820    6.7240    6.7210 C.3   181  GLY181      0.1869
    128  C          8.9750    5.3110    6.6620 C.2   181  GLY181      0.2309
    129  O         10.0900    5.0860    7.1820 O.2   181  GLY181     -0.2863
    130  N          9.2950    3.7800    3.6030 N.3   183  SER183     -0.1217
    131  CA         9.8230    3.6000    2.2770 C.3   183  SER183      0.1889
    132  C         11.3350    3.5140    2.2640 C.2   183  SER183      0.2288
    133  O         12.0110    4.0320    3.1990 O.2   183  SER183     -0.2866
    134  CB         9.3760    4.7200    1.4360 C.3   183  SER183      0.2089
    135  OG         7.9780    4.7540    1.6180 O.3   183  SER183     -0.2183
    136  N          8.9420    4.5640   -2.6110 N.3   199  SER199     -0.1202
    137  CA         8.8530    5.7700   -1.7480 C.3   199  SER199      0.2020
    138  C          7.9430    6.8290   -2.3010 C.2   199  SER199      0.2619
    139  O          7.9160    7.9350   -1.7830 O.2   199  SER199     -0.2717
    140  CB        10.1980    6.3470   -1.4680 C.3   199  SER199      0.2103
    141  OG        10.8090    6.7330   -2.6920 O.3   199  SER199     -0.2182
    142  N          7.2120    6.5150   -3.3850 N.am  200  GLY200     -0.1942
    143  CA         6.0930    7.3630   -3.8450 C.3   200  GLY200      0.2014
    144  C          4.9870    7.4360   -2.7780 C.2   200  GLY200      0.2639
    145  O          4.8200    6.6010   -1.9460 O.2   200  GLY200     -0.2714
    146  N          4.1560    8.4380   -2.8310 N.am  201  SER201     -0.1949
    147  CA         3.0000    8.4500   -1.9950 C.3   201  SER201      0.1924
    148  C          2.0800    7.2870   -2.3340 C.2   201  SER201      0.2314
    149  O          1.6620    7.0950   -3.4960 O.2   201  SER201     -0.2863
    150  CB         2.3070    9.8390   -2.1330 C.3   201  SER201      0.2116
    151  OG         3.2740   10.8540   -1.8050 O.3   201  SER201     -0.2180
@<TRIPOS>BOND
     1    41    42   ar
     2    41    39   ar
     3    42    40   ar
     4    57    55   ar
     5    39    38   ar
     6    55    56   ar
     7    55    54    1
     8    40    38   ar
     9    53    54    1
    10    53    50    1
    11    38    37    1
    12    64    63   ar
    13    52    51    2
    14    50    51    1
    15    50    49    1
    16    51    58   am
    17    33    34    1
    18    63    65   ar
    19    63    62    1
    20    37    34    1
    21   143   142    1
    22   143   144    1
    23    34    35    1
    24   149   148    2
    25   142   138   am
    26    58    59    1
    27    59    62    1
    28    59    60    1
    29   146   144   am
    30   146   147    1
    31   144   145    2
    32   141   140    1
    33   136   137    1
    34    35    36    2
    35    35    43   am
    36   148   147    1
    37   138   139    2
    38   138   137    1
    39   150   147    1
    40   150   151    1
    41   137   140    1
    42    60    61    2
    43    43    44    1
    44    45    44    1
    45    45    46    2
    46    44    47    1
    47    47    48    1
    48    48    32    1
    49   134   135    1
    50   134   131    1
    51   125   124    1
    52   132   131    1
    53   132   133    2
    54   131   130    1
    55    32    31    1
    56   124   123    1
    57    31    28    1
    58    26    24    1
    59   123   122    1
    60     8     6    1
    61     7     6    1
    62    24    25    1
    63    24    23    1
    64   114   113    2
    65     6     5    1
    66   118   117    1
    67   118   121    1
    68   118   119    1
    69   113   112    1
    70   113   117   am
    71   112   111    1
    72   112   115    1
    73    28    29    1
    74    28    27    1
    75   122   121    1
    76    22    21    2
    77   126   119   am
    78   126   127    1
    79    29    30    2
    80     5     2    1
    81    23    20    1
    82    27    21   am
    83   116   115    1
    84    21    20    1
    85   119   120    2
    86   128   127    1
    87   128   129    2
    88    20    19    1
    89     2     1    1
    90     2     3    1
    91    19    11   am
    92     3     4    2
    93    99    97    1
    94    97    96    1
    95    18    17   ar
    96    18    16   ar
    97    17    15   ar
    98    11    12    2
    99    11    10    1
   100    89    88    1
   101    89    90    1
   102    16    14   ar
   103   110   108    1
   104    92    90   am
   105    92    93    1
   106    15    14   ar
   107    98    96    1
   108    88    76   am
   109    96    93    1
   110    95    94    2
   111    14    13    1
   112    10    13    1
   113    10     9    1
   114    90    91    2
   115    74    75    1
   116    93    94    1
   117   108   109    1
   118   108   107    2
   119    76    77    2
   120    76    75    1
   121    86    84   ar
   122    86    87   ar
   123    84    81   ar
   124   107   106    1
   125    75    78    1
   126    78    79    1
   127    87    85   ar
   128    81    79   ar
   129    81    83   ar
   130   106   105    1
   131    79    80   ar
   132   105   104    1
   133    85    83   ar
   134    83    82   ar
   135   104   101    1
   136    73    71    1
   137    80    82   ar
   138   101   100    1
   139   101   102    1
   140    72    71    1
   141    71    70    1
   142   102   103    2
   143    70    67    1
   144    67    66    1
   145    67    68    1
   146    69    68    2
