@<TRIPOS>MOLECULE
tmp/5mt4A00.pdb
 123 120 0 0 0
SMALL
GASTEIGER

@<TRIPOS>ATOM
      1  N         14.8810   10.6190   11.8610 N.3    24  HIS24      -0.1226
      2  CA        14.5190    9.5420   10.9450 C.3    24  HIS24       0.1752
      3  C         13.6960   10.0490    9.7470 C.2    24  HIS24       0.2596
      4  O         12.6770   10.7760    9.8760 O.2    24  HIS24      -0.2718
      5  CB        13.7270    8.4340   11.7150 C.3    24  HIS24       0.0759
      6  CG        13.3050    7.3060   10.8110 C.ar   24  HIS24       0.0818
      7  ND1       14.1580    6.2750   10.4370 N.ar   24  HIS24      -0.2268
      8  CD2       12.1510    7.1130   10.1270 C.ar   24  HIS24       0.1154
      9  CE1       13.5340    5.4930    9.5660 C.ar   24  HIS24       0.1986
     10  NE2       12.3020    5.9790    9.3630 N.ar   24  HIS24      -0.2212
     11  N         14.1110    9.6540    8.5670 N.am   25  LEU25      -0.1966
     12  CA        13.3950    9.9480    7.3740 C.3    25  LEU25       0.1728
     13  C         12.8640    8.6690    6.6770 C.2    25  LEU25       0.2616
     14  O         11.6470    8.5610    6.4170 O.2    25  LEU25      -0.2715
     15  CB        14.2850   10.7780    6.4450 C.3    25  LEU25       0.0311
     16  CG        13.8470   11.0060    5.0200 C.3    25  LEU25       0.0022
     17  CD1       12.8160   12.1170    4.9940 C.3    25  LEU25       0.0001
     18  CD2       15.0620   11.4050    4.1880 C.3    25  LEU25       0.0001
     19  N         13.7820    7.7240    6.4130 N.am   26  CYS26      -0.1968
     20  CA        13.4620    6.5430    5.5930 C.3    26  CYS26       0.1712
     21  C         14.1820    5.3600    6.1840 C.2    26  CYS26       0.2296
     22  O         15.1560    5.5010    6.9130 O.2    26  CYS26      -0.2864
     23  CB        13.9230    6.7200    4.1030 C.3    26  CYS26       0.0983
     24  SG        12.6320    7.6070    3.1890 S.3    26  CYS26      -0.0798
     25  N         13.4280    8.5550   -3.7810 N.3    41  HIS41      -0.1226
     26  CA        12.4840    9.6800   -3.5810 C.3    41  HIS41       0.1752
     27  C         12.6780   10.2370   -2.1460 C.2    41  HIS41       0.2596
     28  O         12.5000   11.4240   -1.8870 O.2    41  HIS41      -0.2718
     29  CB        11.0020    9.2470   -3.7660 C.3    41  HIS41       0.0759
     30  CG        10.5790    8.8790   -5.1710 C.ar   41  HIS41       0.0818
     31  ND1       10.8170    9.6780   -6.2770 N.ar   41  HIS41      -0.2268
     32  CD2        9.8000    7.8500   -5.6170 C.ar   41  HIS41       0.1154
     33  CE1       10.2690    9.1240   -7.3490 C.ar   41  HIS41       0.1986
     34  NE2        9.6350    8.0210   -6.9780 N.ar   41  HIS41      -0.2212
     35  N         13.0650    9.3940   -1.1940 N.am   42  CYS42      -0.1970
     36  CA        13.3600    9.8620    0.1650 C.3    42  CYS42       0.1712
     37  C         14.2620   11.1220    0.1740 C.2    42  CYS42       0.2296
     38  O         14.0450   12.0090    0.9960 O.2    42  CYS42      -0.2864
     39  CB        14.1180    8.7820    0.9680 C.3    42  CYS42       0.0983
     40  SG        13.0950    7.3470    1.2770 S.3    42  CYS42      -0.0798
     41  N         15.0570   13.0450   -2.6620 N.3    44  GLU44      -0.1231
     42  CA        14.6570   14.0940   -3.6130 C.3    44  GLU44       0.1699
     43  C         14.5360   15.4260   -2.8770 C.2    44  GLU44       0.2592
     44  O         14.7030   16.4800   -3.4690 O.2    44  GLU44      -0.2718
     45  CB        13.2340   13.8210   -4.0940 C.3    44  GLU44       0.0402
     46  CG        13.0570   13.5680   -5.5200 C.3    44  GLU44       0.1161
     47  CD        11.7880   12.7760   -5.8220 C.2    44  GLU44       0.3649
     48  OE1       10.6510   13.0760   -5.3170 O.co2  44  GLU44      -0.2457
     49  OE2       11.9450   11.8400   -6.6100 O.co2  44  GLU44      -0.2457
     50  N         14.1870   15.3480   -1.5890 N.am   45  ASP45      -0.1974
     51  CA        13.7230   16.4910   -0.7620 C.3    45  ASP45       0.1709
     52  C         14.8810   17.1390    0.0130 C.2    45  ASP45       0.2293
     53  O         14.6500   17.8700    1.0050 O.2    45  ASP45      -0.2864
     54  CB        12.6710   15.9900    0.2900 C.3    45  ASP45       0.1436
     55  CG        11.1820   15.9620   -0.2310 C.2    45  ASP45       0.3671
     56  OD1       10.8860   15.4610   -1.3670 O.co2  45  ASP45      -0.2456
     57  OD2       10.2940   16.4090    0.5630 O.co2  45  ASP45      -0.2456
     58  N         10.7380    2.1700   11.0650 N.3   128  TRP128     -0.1227
     59  CA        10.3870    3.0980   12.1710 C.3   128  TRP128      0.1737
     60  C          9.3000    4.0650   11.6080 C.2   128  TRP128      0.2596
     61  O          9.1350    5.2070   12.0670 O.2   128  TRP128     -0.2718
     62  CB        11.5880    3.8640   12.6240 C.3   128  TRP128      0.0564
     63  CG        12.6010    3.1300   13.4130 C.ar  128  TRP128      0.0003
     64  CD1       12.6250    2.9740   14.8030 C.ar  128  TRP128      0.0946
     65  CD2       13.7620    2.5320   12.9230 C.ar  128  TRP128      0.0152
     66  NE1       13.7590    2.3180   15.1710 N.ar  128  TRP128     -0.2442
     67  CE2       14.4700    2.0070   14.0450 C.ar  128  TRP128      0.0810
     68  CE3       14.3000    2.3650   11.6270 C.ar  128  TRP128      0.0012
     69  CZ2       15.7140    1.3880   13.9340 C.ar  128  TRP128      0.0191
     70  CZ3       15.5460    1.6780   11.5100 C.ar  128  TRP128      0.0001
     71  CH2       16.2230    1.2110   12.6790 C.ar  128  TRP128      0.0015
     72  N          8.5780    3.5870   10.5920 N.am  129  GLY129     -0.1942
     73  CA         7.5260    4.3490    9.8780 C.3   129  GLY129      0.2014
     74  C          6.2640    4.3970   10.7380 C.2   129  GLY129      0.2638
     75  O          6.2330    3.8270   11.8400 O.2   129  GLY129     -0.2714
     76  N          5.2440    5.0650   10.2350 N.am  130  ILE130     -0.1977
     77  CA         4.0230    5.2470   11.0380 C.3   130  ILE130      0.1596
     78  C          3.3930    3.9140   11.4350 C.2   130  ILE130      0.2287
     79  O          3.4520    2.9620   10.6780 O.2   130  ILE130     -0.2864
     80  CB         3.0380    6.3270   10.4160 C.3   130  ILE130      0.0276
     81  CG1        2.3850    5.9190    9.1060 C.3   130  ILE130      0.0022
     82  CG2        3.6730    7.7310   10.3000 C.3   130  ILE130      0.0022
     83  CD1        1.4710    7.0780    8.5300 C.3   130  ILE130      0.0001
     84  N          4.4840    7.9140   15.3920 N.3   137  ARG137     -0.1245
     85  CA         5.8960    7.4580   15.0440 C.3   137  ARG137      0.1563
     86  C          6.4960    6.7230   16.2370 C.2   137  ARG137      0.2260
     87  O          6.6210    7.2800   17.3610 O.2   137  ARG137     -0.2867
     88  CB         6.8050    8.6520   14.5790 C.3   137  ARG137      0.0307
     89  CG         6.1430    9.5960   13.4920 C.3   137  ARG137      0.0489
     90  CD         7.0190   10.7880   12.9870 C.3   137  ARG137      0.2205
     91  NE         6.3770   11.5370   11.8820 N.pl3 137  ARG137     -0.0865
     92  CZ         7.0140   12.3310   11.0000 C.cat 137  ARG137      0.5346
     93  NH1        8.3310   12.5080   11.0480 N.pl3 137  ARG137      0.1354
     94  NH2        6.3410   12.9640   10.0420 N.pl3 137  ARG137      0.1354
     95  N          4.3190    5.2700    5.2800 N.3   180  LYS180     -0.1231
     96  CA         5.2640    6.4310    5.2550 C.3   180  LYS180      0.1693
     97  C          6.3500    6.3440    6.3190 C.2   180  LYS180      0.2592
     98  O          6.1050    6.0470    7.5070 O.2   180  LYS180     -0.2718
     99  CB         4.5270    7.7460    5.3880 C.3   180  LYS180      0.0285
    100  CG         5.3780    8.8960    4.8730 C.3   180  LYS180      0.0035
    101  CD         4.5420   10.1890    4.9490 C.3   180  LYS180      0.0206
    102  CE         5.2490   11.4250    4.4080 C.3   180  LYS180      0.1093
    103  NZ         5.0650   11.7870    2.9080 N.3   180  LYS180     -0.1314
    104  N          7.6020    6.4980    5.9040 N.am  181  GLY181     -0.1957
    105  CA         8.6740    6.4220    6.8750 C.3   181  GLY181      0.1869
    106  C          9.3050    5.0310    6.8690 C.2   181  GLY181      0.2309
    107  O         10.4230    4.8480    7.4180 O.2   181  GLY181     -0.2863
    108  N          9.6160    3.5870    3.8400 N.3   183  SER183     -0.1217
    109  CA        10.1910    3.6450    2.5140 C.3   183  SER183      0.1889
    110  C         11.6800    3.4840    2.5960 C.2   183  SER183      0.2288
    111  O         12.3270    4.0280    3.5100 O.2   183  SER183     -0.2866
    112  CB         9.8150    4.9880    1.8900 C.3   183  SER183      0.2089
    113  OG         8.3730    5.1430    2.0490 O.3   183  SER183     -0.2183
    114  N          9.0020    4.5900   -2.3170 N.3   199  SER199     -0.1202
    115  CA         8.8260    5.7800   -1.5140 C.3   199  SER199      0.2020
    116  C          7.7250    6.7000   -2.0900 C.2   199  SER199      0.2619
    117  O          7.4710    7.7890   -1.5530 O.2   199  SER199     -0.2717
    118  CB        10.1790    6.5250   -1.3340 C.3   199  SER199      0.2103
    119  OG        10.7230    6.7840   -2.6160 O.3   199  SER199     -0.2182
    120  N          7.0320    6.2790   -3.1360 N.am  200  GLY200     -0.1956
    121  CA         5.7950    7.0750   -3.5290 C.3   200  GLY200      0.1869
    122  C          4.7240    7.1810   -2.4310 C.2   200  GLY200      0.2309
    123  O          4.6260    6.3070   -1.5760 O.2   200  GLY200     -0.2863
@<TRIPOS>BOND
     1    33    34   ar
     2    33    31   ar
     3    34    32   ar
     4    49    47   ar
     5    31    30   ar
     6    47    46    1
     7    47    48   ar
     8    32    30   ar
     9    46    45    1
    10    30    29    1
    11    45    42    1
    12    25    26    1
    13    29    26    1
    14    42    43    1
    15    42    41    1
    16    26    27    1
    17   121   120    1
    18   121   122    1
    19    44    43    2
    20   120   116   am
    21    43    50   am
    22   119   118    1
    23   122   123    2
    24   114   115    1
    25    27    28    2
    26    27    35   am
    27   116   117    2
    28   116   115    1
    29    50    51    1
    30   115   118    1
    31    56    55   ar
    32    35    36    1
    33    51    52    1
    34    51    54    1
    35    55    54    1
    36    55    57   ar
    37    52    53    2
    38    36    37    1
    39    36    39    1
    40    37    38    2
    41    39    40    1
    42    40    24    1
    43   112   113    1
    44   112   109    1
    45   109   110    1
    46   109   108    1
    47   110   111    2
    48   103   102    1
    49    24    23    1
    50    23    20    1
    51    18    16    1
    52   102   101    1
    53   100   101    1
    54   100    99    1
    55    17    16    1
    56    16    15    1
    57    96    95    1
    58    96    99    1
    59    96    97    1
    60    20    21    1
    61    20    19    1
    62   104    97   am
    63   104   105    1
    64    21    22    2
    65    97    98    2
    66    19    13   am
    67    14    13    2
    68    15    12    1
    69    13    12    1
    70   106   105    1
    71   106   107    2
    72    12    11    1
    73    83    81    1
    74    11     3   am
    75    81    80    1
    76    10     9   ar
    77    10     8   ar
    78     9     7   ar
    79     3     4    2
    80     3     2    1
    81    73    72    1
    82    73    74    1
    83    94    92    1
    84     8     6   ar
    85    76    74   am
    86    76    77    1
    87    82    80    1
    88    80    77    1
    89     7     6   ar
    90    72    60   am
    91    79    78    2
    92    74    75    2
    93     6     5    1
    94     2     5    1
    95     2     1    1
    96    92    93    1
    97    92    91    2
    98    77    78    1
    99    58    59    1
   100    70    68   ar
   101    70    71   ar
   102    60    61    2
   103    60    59    1
   104    68    65   ar
   105    91    90    1
   106    59    62    1
   107    62    63    1
   108    71    69   ar
   109    65    63   ar
   110    65    67   ar
   111    90    89    1
   112    63    64   ar
   113    89    88    1
   114    69    67   ar
   115    67    66   ar
   116    88    85    1
   117    64    66   ar
   118    85    84    1
   119    85    86    1
   120    86    87    2
