@<TRIPOS>MOLECULE
tmp/5mt7A00.pdb
 180 175 0 0 0
SMALL
GASTEIGER

@<TRIPOS>ATOM
      1  N          5.1650   20.1570  130.4690 N.3    26  ASP26      -0.1225
      2  CA         6.4660   19.7410  131.0020 C.3    26  ASP26       0.1805
      3  C          7.6150   20.6160  130.5370 C.2    26  ASP26       0.2597
      4  O          8.4840   20.9510  131.3330 O.2    26  ASP26      -0.2718
      5  CB         6.7990   18.2980  130.6260 C.3    26  ASP26       0.1424
      6  CG         5.9010   17.2730  131.2970 C.2    26  ASP26       0.3668
      7  OD1        5.0610   17.5950  132.1930 O.co2  26  ASP26      -0.2456
      8  OD2        6.0520   16.0990  130.8940 O.co2  26  ASP26      -0.2456
      9  N          7.6160   20.9810  129.2550 N.am   27  GLN27      -0.1979
     10  CA         8.7360   21.7460  128.6470 C.3    27  GLN27       0.1601
     11  C          8.9130   23.1200  129.2860 C.2    27  GLN27       0.2287
     12  O         10.0370   23.5340  129.5920 O.2    27  GLN27      -0.2864
     13  CB         8.5700   21.9030  127.1320 C.3    27  GLN27       0.0394
     14  CG         9.0590   20.7070  126.3240 C.3    27  GLN27       0.0908
     15  CD         8.2480   19.4360  126.5500 C.2    27  GLN27       0.2608
     16  OE1        7.0140   19.4450  126.4710 O.2    27  GLN27      -0.2717
     17  NE2        8.9490   18.3230  126.8460 N.am   27  GLN27      -0.0878
     18  N         10.3780   22.7120  132.7520 N.3    30  MET30      -0.1245
     19  CA        11.7870   22.3580  132.6330 C.3    30  MET30       0.1570
     20  C         12.6690   23.5580  132.3150 C.2    30  MET30       0.2261
     21  O         13.7670   23.6520  132.8480 O.2    30  MET30      -0.2867
     22  CB        12.0060   21.2570  131.6130 C.3    30  MET30       0.0387
     23  CG        11.7670   19.8750  132.2010 C.3    30  MET30       0.0595
     24  SD        12.2020   18.5630  131.0420 S.3    30  MET30      -0.1393
     25  CE        10.9530   18.8690  129.8010 C.3    30  MET30       0.0692
     26  N          7.2270   13.3360  135.5770 N.3    56  PHE56      -0.1227
     27  CA         6.6740   13.2040  134.2170 C.3    56  PHE56       0.1736
     28  C          5.5550   12.2080  134.0950 C.2    56  PHE56       0.2596
     29  O          4.8430   12.1970  133.0760 O.2    56  PHE56      -0.2718
     30  CB         7.8150   12.8430  133.2600 C.3    56  PHE56       0.0547
     31  CG         8.9970   13.7760  133.3930 C.ar   56  PHE56      -0.0202
     32  CD1        8.9440   15.0760  132.8630 C.ar   56  PHE56      -0.0042
     33  CD2       10.1340   13.3950  134.1190 C.ar   56  PHE56      -0.0042
     34  CE1       10.0040   15.9710  133.0360 C.ar   56  PHE56      -0.0003
     35  CE2       11.2110   14.2840  134.2900 C.ar   56  PHE56      -0.0003
     36  CZ        11.1540   15.5770  133.7530 C.ar   56  PHE56      -0.0000
     37  N          5.3950   11.3400  135.0790 N.am   57  SER57      -0.1952
     38  CA         4.2410   10.4410  135.0850 C.3    57  SER57       0.1924
     39  C          3.7140   10.2440  136.4910 C.2    57  SER57       0.2314
     40  O          4.3750   10.5620  137.5120 O.2    57  SER57      -0.2863
     41  CB         4.5670    9.0970  134.4470 C.3    57  SER57       0.2116
     42  OG         5.3850    8.3190  135.2880 O.3    57  SER57      -0.2180
     43  N          5.6980    7.5330  138.5740 N.3    60  HIS60      -0.1241
     44  CA         6.9400    8.2080  138.9700 C.3    60  HIS60       0.1621
     45  C          6.7490    9.0630  140.2460 C.2    60  HIS60       0.2264
     46  O          7.3300    8.7730  141.2910 O.2    60  HIS60      -0.2867
     47  CB         7.2500    9.0220  137.6970 C.3    60  HIS60       0.0745
     48  CG         8.5430    9.7550  137.6700 C.ar   60  HIS60       0.0817
     49  ND1        8.7000   10.8660  136.8740 N.ar   60  HIS60      -0.2268
     50  CD2        9.7540    9.5120  138.2490 C.ar   60  HIS60       0.1154
     51  CE1        9.9460   11.3180  137.0190 C.ar   60  HIS60       0.1986
     52  NE2       10.6130   10.5140  137.8410 N.ar   60  HIS60      -0.2212
     53  N          7.8160    7.7340  144.1620 N.3    64  ASN64      -0.1240
     54  CA         8.8860    8.5390  144.7980 C.3    64  ASN64       0.1653
     55  C          8.3960    9.1770  146.0660 C.2    64  ASN64       0.2266
     56  O          9.0760    9.1300  147.0910 O.2    64  ASN64      -0.2867
     57  CB         9.4440    9.6160  143.8580 C.3    64  ASN64       0.1155
     58  CG        10.3420    9.0370  142.7840 C.2    64  ASN64       0.2627
     59  OD1       10.8770    7.9620  142.9500 O.2    64  ASN64      -0.2716
     60  ND2       10.4920    9.7300  141.6810 N.am   64  ASN64      -0.0877
     61  N         24.0630   12.3890  136.3360 N.3    99  GLN99      -0.1245
     62  CA        23.1070   12.2130  135.2710 C.3    99  GLN99       0.1566
     63  C         23.4100   13.1000  134.0900 C.2    99  GLN99       0.2260
     64  O         23.3590   12.6220  132.9460 O.2    99  GLN99      -0.2867
     65  CB        21.6760   12.4640  135.7490 C.3    99  GLN99       0.0367
     66  CG        20.6220   12.2220  134.6670 C.3    99  GLN99       0.0905
     67  CD        20.6190   10.7880  134.1580 C.2    99  GLN99       0.2608
     68  OE1       20.8360    9.8330  134.9220 O.2    99  GLN99      -0.2717
     69  NE2       20.3380   10.6210  132.8660 N.am   99  GLN99      -0.0878
     70  N         24.0950   11.7820  130.3720 N.3   103  SER103     -0.1217
     71  CA        22.9860   11.8980  129.4200 C.3   103  SER103      0.1889
     72  C         22.4680   13.2950  129.1060 C.2   103  SER103      0.2288
     73  O         21.4890   13.4230  128.3870 O.2   103  SER103     -0.2866
     74  CB        21.8500   11.0280  129.9360 C.3   103  SER103      0.2089
     75  OG        22.3080    9.7010  130.1010 O.3   103  SER103     -0.2183
     76  N         18.3300   17.0670  130.5510 N.3   106  TRP106     -0.1227
     77  CA        16.8820   16.8870  130.5010 C.3   106  TRP106      0.1737
     78  C         16.4610   15.6640  131.2850 C.2   106  TRP106      0.2595
     79  O         16.2670   14.5710  130.7420 O.2   106  TRP106     -0.2718
     80  CB        16.3980   16.8140  129.0520 C.3   106  TRP106      0.0564
     81  CG        16.8630   18.0070  128.3140 C.ar  106  TRP106      0.0003
     82  CD1       17.8780   18.0550  127.3990 C.ar  106  TRP106      0.0946
     83  CD2       16.4070   19.3470  128.4840 C.ar  106  TRP106      0.0152
     84  NE1       18.0560   19.3390  126.9780 N.ar  106  TRP106     -0.2442
     85  CE2       17.1730   20.1560  127.6330 C.ar  106  TRP106      0.0810
     86  CE3       15.4160   19.9440  129.2680 C.ar  106  TRP106      0.0012
     87  CZ2       16.9550   21.5170  127.5040 C.ar  106  TRP106      0.0191
     88  CZ3       15.2100   21.3180  129.1480 C.ar  106  TRP106      0.0001
     89  CH2       15.9800   22.0830  128.2810 C.ar  106  TRP106      0.0015
     90  N         16.3250   15.8710  132.5860 N.am  107  PHE107     -0.1962
     91  CA        15.9270   14.8210  133.5030 C.3   107  PHE107      0.1771
     92  C         15.2600   15.4750  134.7130 C.2   107  PHE107      0.2620
     93  O         15.3340   16.6970  134.9120 O.2   107  PHE107     -0.2715
     94  CB        17.1490   13.9930  133.9470 C.3   107  PHE107      0.0574
     95  CG        18.1500   14.7800  134.7270 C.ar  107  PHE107     -0.0200
     96  CD1       18.0490   14.8820  136.1250 C.ar  107  PHE107     -0.0042
     97  CD2       19.1790   15.4430  134.0810 C.ar  107  PHE107     -0.0042
     98  CE1       18.9550   15.6400  136.8440 C.ar  107  PHE107     -0.0003
     99  CE2       20.0870   16.2160  134.7930 C.ar  107  PHE107     -0.0003
    100  CZ        19.9680   16.3170  136.1800 C.ar  107  PHE107     -0.0000
    101  N         14.6080   14.6490  135.5080 N.am  108  GLY108     -0.1940
    102  CA        13.9900   15.1240  136.7310 C.3   108  GLY108      0.2014
    103  C         13.4610   13.9820  137.5660 C.2   108  GLY108      0.2639
    104  O         13.3540   12.8580  137.0960 O.2   108  GLY108     -0.2714
    105  N         13.1410   14.2790  138.8090 N.am  109  GLY109     -0.1954
    106  CA        12.5790   13.3090  139.6830 C.3   109  GLY109      0.1869
    107  C         13.3070   13.2240  140.9930 C.2   109  GLY109      0.2309
    108  O         14.5060   13.5110  141.1010 O.2   109  GLY109     -0.2863
    109  N         13.9650   10.5060  142.6110 N.3   111  SER111     -0.1202
    110  CA        14.4760    9.1540  142.8380 C.3   111  SER111      0.2020
    111  C         15.9670    9.0770  143.1800 C.2   111  SER111      0.2619
    112  O         16.3900    8.0870  143.7860 O.2   111  SER111     -0.2717
    113  CB        14.2150    8.2770  141.6360 C.3   111  SER111      0.2103
    114  OG        14.7990    8.8630  140.4710 O.3   111  SER111     -0.2182
    115  N         16.7620   10.0650  142.7830 N.am  112  GLY112     -0.1956
    116  CA        18.1510   10.1330  143.2530 C.3   112  GLY112      0.1869
    117  C         18.1670   10.2670  144.7700 C.2   112  GLY112      0.2309
    118  O         18.9030    9.5600  145.4450 O.2   112  GLY112     -0.2863
    119  N         16.7880    6.9090  146.3950 N.3   115  TYR115     -0.1241
    120  CA        17.8400    5.8820  146.4310 C.3   115  TYR115      0.1605
    121  C         18.8810    6.1570  147.5360 C.2   115  TYR115      0.2264
    122  O         19.4150    5.2180  148.1300 O.2   115  TYR115     -0.2867
    123  CB        18.5700    5.7500  145.0830 C.3   115  TYR115      0.0534
    124  CG        17.8310    4.9530  143.9940 C.ar  115  TYR115     -0.0201
    125  CD1       16.4530    5.1290  143.7500 C.ar  115  TYR115     -0.0009
    126  CD2       18.5230    4.0460  143.1760 C.ar  115  TYR115     -0.0009
    127  CE1       15.7910    4.4210  142.7440 C.ar  115  TYR115      0.0417
    128  CE2       17.8660    3.3360  142.1700 C.ar  115  TYR115      0.0417
    129  CZ        16.5030    3.5270  141.9520 C.ar  115  TYR115      0.1957
    130  OH        15.8420    2.7970  140.9600 O.3   115  TYR115     -0.2866
    131  N          9.6020    3.4840  130.6300 N.3   157  MET157     -0.1230
    132  CA         9.9300    4.9080  130.6080 C.3   157  MET157      0.1702
    133  C         11.4490    4.9810  130.6160 C.2   157  MET157      0.2593
    134  O         12.1210    4.1220  131.1780 O.2   157  MET157     -0.2718
    135  CB         9.4150    5.6070  131.8720 C.3   157  MET157      0.0401
    136  CG         7.9110    5.8150  131.9550 C.3   157  MET157      0.0596
    137  SD         7.3730    5.7600  133.6860 S.3   157  MET157     -0.1393
    138  CE         5.5840    5.8590  133.5200 C.3   157  MET157      0.0692
    139  N         11.9960    6.0100  130.0040 N.am  158  SER158     -0.1938
    140  CA        13.4340    6.1500  129.9130 C.3   158  SER158      0.2055
    141  C         13.9450    6.5880  131.3310 C.2   158  SER158      0.2643
    142  O         13.3610    7.4770  131.9550 O.2   158  SER158     -0.2714
    143  CB        13.7570    7.1470  128.8050 C.3   158  SER158      0.2130
    144  OG        15.1330    7.3680  128.7000 O.3   158  SER158     -0.2179
    145  N         14.9770    5.9170  131.8420 N.am  159  MET159     -0.1962
    146  CA        15.3760    6.0330  133.2520 C.3   159  MET159      0.1736
    147  C         16.6320    6.8790  133.4060 C.2   159  MET159      0.2616
    148  O         17.4820    6.9070  132.5340 O.2   159  MET159     -0.2715
    149  CB        15.5860    4.6310  133.8490 C.3   159  MET159      0.0427
    150  CG        14.3180    3.7840  133.8870 C.3   159  MET159      0.0599
    151  SD        13.0540    4.4620  134.9810 S.3   159  MET159     -0.1393
    152  CE        11.7640    5.0700  133.9630 C.3   159  MET159      0.0692
    153  N         16.7500    7.5700  134.5230 N.am  160  ALA160     -0.1963
    154  CA        17.9230    8.3890  134.7750 C.3   160  ALA160      0.1728
    155  C         18.8620    7.5220  135.6110 C.2   160  ALA160      0.2616
    156  O         18.9030    7.6550  136.8500 O.2   160  ALA160     -0.2715
    157  CB        17.5240    9.6740  135.4980 C.3   160  ALA160      0.0334
    158  N         19.5970    6.6320  134.9410 N.am  161  ASN161     -0.1972
    159  CA        20.4170    5.6180  135.6280 C.3   161  ASN161      0.1688
    160  C         21.5470    6.2170  136.4640 C.2   161  ASN161      0.2292
    161  O         21.8290    5.7180  137.5350 O.2   161  ASN161     -0.2864
    162  CB        21.0320    4.6240  134.6430 C.3   161  ASN161      0.1181
    163  CG        19.9910    3.7790  133.9220 C.2   161  ASN161      0.2629
    164  OD1       20.0180    3.6910  132.6890 O.2   161  ASN161     -0.2716
    165  ND2       19.0760    3.1530  134.6740 N.am  161  ASN161     -0.0877
    166  N         21.5960    9.3450  137.8990 N.3   163  ALA163     -0.1231
    167  CA        20.8650    9.8630  139.0930 C.3   163  ALA163      0.1694
    168  C         20.6070    8.7500  140.1400 C.2   163  ALA163      0.2592
    169  O         20.8600    8.9220  141.3310 O.2   163  ALA163     -0.2718
    170  CB        19.5430   10.5510  138.7170 C.3   163  ALA163      0.0304
    171  N         20.1220    7.6110  139.6690 N.am  164  HIS164     -0.1976
    172  CA        19.7630    6.4830  140.5490 C.3   164  HIS164      0.1656
    173  C         20.9470    5.8870  141.3230 C.2   164  HIS164      0.2291
    174  O         20.8930    5.7410  142.5410 O.2   164  HIS164     -0.2864
    175  CB        19.0080    5.4290  139.7270 C.3   164  HIS164      0.0771
    176  CG        17.6570    5.8990  139.2920 C.ar  164  HIS164      0.0820
    177  ND1       16.9460    5.3080  138.2710 N.ar  164  HIS164     -0.2267
    178  CD2       16.8940    6.9280  139.7380 C.ar  164  HIS164      0.1154
    179  CE1       15.7900    5.9270  138.1200 C.ar  164  HIS164      0.1986
    180  NE2       15.7420    6.9070  139.0020 N.ar  164  HIS164     -0.2212
@<TRIPOS>BOND
     1    14    15    1
     2    14    13    1
     3    16    15    2
     4    15    17   am
     5    84    82   ar
     6    84    85   ar
     7    13    10    1
     8    82    81   ar
     9    87    85   ar
    10    87    89   ar
    11    85    83   ar
    12    89    88   ar
    13    81    83   ar
    14    81    80    1
    15    73    72    2
    16    83    86   ar
    17    10     9    1
    18    10    11    1
    19   144   143    1
    20   143   140    1
    21    80    77    1
    22    72    71    1
    23    88    86   ar
    24     9     3   am
    25    11    12    2
    26    71    74    1
    27    71    70    1
    28    25    24    1
    29   140   139    1
    30   140   141    1
    31    74    75    1
    32   139   133   am
    33     1     2    1
    34    77    76    1
    35    77    78    1
    36     3     2    1
    37     3     4    2
    38   132   133    1
    39   132   131    1
    40   132   135    1
    41   133   134    2
    42     5     2    1
    43     5     6    1
    44    79    78    2
    45     8     6   ar
    46    24    23    1
    47    78    90   am
    48     6     7   ar
    49   141   145   am
    50   141   142    2
    51    22    23    1
    52    22    19    1
    53   145   146    1
    54   135   136    1
    55   136   137    1
    56    20    19    1
    57    20    21    2
    58   148   147    2
    59    90    91    1
    60    19    18    1
    61   164   163    2
    62    32    34   ar
    63    32    31   ar
    64    69    67   am
    65    64    63    2
    66    34    36   ar
    67    29    28    2
    68   146   147    1
    69   146   149    1
    70    30    31    1
    71    30    27    1
    72    31    33   ar
    73   147   153   am
    74    91    94    1
    75    91    92    1
    76   138   137    1
    77    36    35   ar
    78   149   150    1
    79   150   151    1
    80   163   162    1
    81   163   165   am
    82    94    95    1
    83   152   151    1
    84    97    95   ar
    85    97    99   ar
    86    63    62    1
    87    28    27    1
    88    28    37   am
    89    33    35   ar
    90    67    66    1
    91    67    68    2
    92    27    26    1
    93    41    38    1
    94    41    42    1
    95   153   154    1
    96   162   159    1
    97    66    65    1
    98    92    93    2
    99    92   101   am
   100    95    96   ar
   101   154   157    1
   102   154   155    1
   103    99   100   ar
   104   158   155   am
   105   158   159    1
   106    37    38    1
   107    38    39    1
   108    62    65    1
   109    62    61    1
   110   101   102    1
   111   155   156    2
   112   159   160    1
   113    96    98   ar
   114   100    98   ar
   115   160   161    2
   116    39    40    2
   117   102   103    1
   118    49    51   ar
   119    49    48   ar
   120    51    52   ar
   121   104   103    2
   122   103   105   am
   123    48    47    1
   124    48    50   ar
   125    47    44    1
   126    52    50   ar
   127   166   167    1
   128   179   177   ar
   129   179   180   ar
   130   177   176   ar
   131    43    44    1
   132   170   167    1
   133   105   106    1
   134    44    45    1
   135   180   178   ar
   136   167   168    1
   137   176   175    1
   138   176   178   ar
   139   171   168   am
   140   171   172    1
   141   106   107    1
   142   175   172    1
   143   168   169    2
   144    45    46    2
   145   114   113    1
   146   172   173    1
   147   130   129    1
   148   107   108    2
   149   173   174    2
   150   113   110    1
   151    60    58   am
   152   129   128   ar
   153   129   127   ar
   154   128   126   ar
   155   109   110    1
   156   127   125   ar
   157   115   111   am
   158   115   116    1
   159    58    59    2
   160    58    57    1
   161   110   111    1
   162   126   124   ar
   163   111   112    2
   164   116   117    1
   165   125   124   ar
   166    57    54    1
   167   124   123    1
   168    53    54    1
   169   117   118    2
   170    54    55    1
   171   123   120    1
   172    55    56    2
   173   119   120    1
   174   120   121    1
   175   121   122    2
