@<TRIPOS>MOLECULE
tmp/5mt8A00.pdb
 190 185 0 0 0
SMALL
GASTEIGER

@<TRIPOS>ATOM
      1  N        -20.2690   -5.5100  -58.2180 N.3    25  ASP25      -0.1225
      2  CA       -20.4810   -4.1610  -57.6970 C.3    25  ASP25       0.1805
      3  C        -21.7840   -3.5500  -58.1710 C.2    25  ASP25       0.2597
      4  O        -22.4630   -2.8860  -57.3990 O.2    25  ASP25      -0.2718
      5  CB       -19.3490   -3.2100  -58.1200 C.3    25  ASP25       0.1424
      6  CG       -17.9930   -3.5330  -57.4630 C.2    25  ASP25       0.3668
      7  OD1      -17.8980   -4.3860  -56.5340 O.co2  25  ASP25      -0.2456
      8  OD2      -17.0070   -2.9000  -57.9040 O.co2  25  ASP25      -0.2456
      9  N        -22.1100   -3.7540  -59.4440 N.am   26  GLN26      -0.1979
     10  CA       -23.3080   -3.1630  -60.0410 C.3    26  GLN26       0.1601
     11  C        -24.5840   -3.6720  -59.3810 C.2    26  GLN26       0.2287
     12  O        -25.4630   -2.8640  -59.0620 O.2    26  GLN26      -0.2864
     13  CB       -23.3610   -3.3670  -61.5650 C.3    26  GLN26       0.0394
     14  CG       -22.5280   -2.3570  -62.3490 C.3    26  GLN26       0.0908
     15  CD       -21.0170   -2.5670  -62.2490 C.2    26  GLN26       0.2608
     16  OE1      -20.5290   -3.6970  -62.1400 O.2    26  GLN26      -0.2717
     17  NE2      -20.2660   -1.4670  -62.2940 N.am   26  GLN26      -0.0878
     18  N        -24.9390   -2.2010  -55.9030 N.3    29  MET29      -0.1245
     19  CA       -25.2790   -0.7930  -56.0660 C.3    29  MET29       0.1570
     20  C        -26.7450   -0.5530  -56.4220 C.2    29  MET29       0.2261
     21  O        -27.3260    0.4200  -55.9570 O.2    29  MET29      -0.2867
     22  CB       -24.3810   -0.1200  -57.0930 C.3    29  MET29       0.0387
     23  CG       -23.0490    0.3150  -56.5140 C.3    29  MET29       0.0595
     24  SD       -22.1500    1.4420  -57.5830 S.3    29  MET29      -0.1393
     25  CE       -21.8770    0.3220  -58.9520 C.3    29  MET29       0.0692
     26  N        -25.1380    3.7750  -49.0300 N.3    50  HIS50      -0.1241
     27  CA       -23.9780    4.1220  -49.8650 C.3    50  HIS50       0.1621
     28  C        -22.6840    4.0810  -49.0430 C.2    50  HIS50       0.2264
     29  O        -21.6270    3.7260  -49.5580 O.2    50  HIS50      -0.2867
     30  CB       -24.1700    5.4980  -50.5150 C.3    50  HIS50       0.0745
     31  CG       -24.3720    6.5960  -49.5200 C.ar   50  HIS50       0.0817
     32  ND1      -23.3150    7.2320  -48.9050 N.ar   50  HIS50      -0.2268
     33  CD2      -25.5040    7.1170  -48.9770 C.ar   50  HIS50       0.1154
     34  CE1      -23.7920    8.1370  -48.0600 C.ar   50  HIS50       0.1986
     35  NE2      -25.1180    8.0820  -48.0820 N.ar   50  HIS50      -0.2212
     36  N        -15.1470   -0.3920  -53.0860 N.3    55  PHE55      -0.1227
     37  CA       -14.8250   -0.8220  -54.4480 C.3    55  PHE55       0.1736
     38  C        -13.4210   -1.3110  -54.5800 C.2    55  PHE55       0.2596
     39  O        -13.0860   -1.8970  -55.6020 O.2    55  PHE55      -0.2718
     40  CB       -15.0650    0.3200  -55.4190 C.3    55  PHE55       0.0547
     41  CG       -16.4460    0.9020  -55.2960 C.ar   55  PHE55      -0.0202
     42  CD1      -17.5600    0.1860  -55.7650 C.ar   55  PHE55      -0.0042
     43  CD2      -16.6500    2.1210  -54.6720 C.ar   55  PHE55      -0.0042
     44  CE1      -18.8410    0.6990  -55.6270 C.ar   55  PHE55      -0.0003
     45  CE2      -17.9380    2.6420  -54.5280 C.ar   55  PHE55      -0.0003
     46  CZ       -19.0340    1.9270  -54.9950 C.ar   55  PHE55      -0.0000
     47  N        -12.5800   -1.0410  -53.5910 N.am   56  SER56      -0.1952
     48  CA       -11.1910   -1.5130  -53.6550 C.3    56  SER56       0.1924
     49  C        -10.7510   -1.9620  -52.2840 C.2    56  SER56       0.2314
     50  O        -11.3350   -1.5520  -51.2680 O.2    56  SER56      -0.2863
     51  CB       -10.2610   -0.4290  -54.2030 C.3    56  SER56       0.2116
     52  OG        -9.8720    0.5090  -53.2260 O.3    56  SER56      -0.2180
     53  N         -9.3710    1.0520  -50.1690 N.3    59  HIS59      -0.1241
     54  CA       -10.5430    1.8530  -49.7780 C.3    59  HIS59       0.1621
     55  C        -11.1910    1.2720  -48.4900 C.2    59  HIS59       0.2264
     56  O        -11.1670    1.9220  -47.4450 O.2    59  HIS59      -0.2867
     57  CB       -11.3970    1.7960  -51.0490 C.3    59  HIS59       0.0745
     58  CG       -12.6610    2.5890  -51.0730 C.ar   59  HIS59       0.0817
     59  ND1      -13.7090    2.1300  -51.8140 N.ar   59  HIS59      -0.2268
     60  CD2      -13.0250    3.8190  -50.6100 C.ar   59  HIS59       0.1154
     61  CE1      -14.7160    2.9980  -51.7400 C.ar   59  HIS59       0.1986
     62  NE2      -14.3310    4.0390  -51.0180 N.ar   59  HIS59      -0.2212
     63  N        -10.5390    2.8880  -44.5780 N.3    63  ASN63      -0.1240
     64  CA       -11.7800    3.4140  -43.9470 C.3    63  ASN63       0.1653
     65  C        -12.0750    2.6510  -42.6860 C.2    63  ASN63       0.2266
     66  O        -12.3350    3.2480  -41.6550 O.2    63  ASN63      -0.2867
     67  CB       -12.9530    3.3240  -44.8970 C.3    63  ASN63       0.1155
     68  CG       -12.9250    4.4000  -45.9660 C.2    63  ASN63       0.2627
     69  OD1      -12.3370    5.4490  -45.7840 O.2    63  ASN63      -0.2716
     70  ND2      -13.5570    4.1370  -47.0760 N.am   63  ASN63      -0.0877
     71  N        -22.6190   14.8580  -52.2600 N.3    98  GLN98      -0.1245
     72  CA       -22.0290   14.1180  -53.3680 C.3    98  GLN98       0.1566
     73  C        -22.9450   14.0160  -54.5610 C.2    98  GLN98       0.2260
     74  O        -22.5000   14.2390  -55.7030 O.2    98  GLN98      -0.2867
     75  CB       -21.5770   12.7170  -52.9640 C.3    98  GLN98       0.0367
     76  CG       -20.8310   11.9810  -54.0840 C.3    98  GLN98       0.0905
     77  CD       -19.5790   12.7250  -54.5840 C.2    98  GLN98       0.2608
     78  OE1      -18.8920   13.3950  -53.8180 O.2    98  GLN98      -0.2717
     79  NE2      -19.2680   12.5770  -55.8710 N.am   98  GLN98      -0.0878
     80  N        -22.1300   15.3070  -58.3320 N.3   102  SER102     -0.1217
     81  CA       -21.7000   14.2920  -59.3310 C.3   102  SER102      0.1889
     82  C        -22.6360   13.1090  -59.6080 C.2   102  SER102      0.2288
     83  O        -22.2660   12.1670  -60.3320 O.2   102  SER102     -0.2866
     84  CB       -20.3200   13.7830  -58.9130 C.3   102  SER102      0.2089
     85  OG       -19.4540   14.8890  -58.6630 O.3   102  SER102     -0.2183
     86  N        -23.8440    7.6500  -58.1540 N.3   105  TRP105     -0.1227
     87  CA       -22.9750    6.4710  -58.2490 C.3   105  TRP105      0.1737
     88  C        -21.6770    6.6540  -57.4620 C.2   105  TRP105      0.2595
     89  O        -20.5900    6.9240  -58.0080 O.2   105  TRP105     -0.2718
     90  CB       -22.7380    6.1210  -59.7170 C.3   105  TRP105      0.0564
     91  CG       -24.0600    5.8850  -60.4190 C.ar  105  TRP105      0.0003
     92  CD1      -24.6710    6.7190  -61.3100 C.ar  105  TRP105      0.0946
     93  CD2      -24.9490    4.7840  -60.2250 C.ar  105  TRP105      0.0152
     94  NE1      -25.8760    6.1910  -61.6930 N.ar  105  TRP105     -0.2442
     95  CE2      -26.0670    4.9980  -61.0530 C.ar  105  TRP105      0.0810
     96  CE3      -24.9040    3.6280  -59.4410 C.ar  105  TRP105      0.0012
     97  CZ2      -27.1210    4.0990  -61.1300 C.ar  105  TRP105      0.0191
     98  CZ3      -25.9590    2.7360  -59.5130 C.ar  105  TRP105      0.0001
     99  CH2      -27.0520    2.9740  -60.3540 C.ar  105  TRP105      0.0015
    100  N        -21.8050    6.4530  -56.1560 N.am  106  PHE106     -0.1962
    101  CA       -20.6960    6.6260  -55.2440 C.3   106  PHE106      0.1771
    102  C        -20.9020    5.6980  -54.0690 C.2   106  PHE106      0.2620
    103  O        -21.9970    5.1590  -53.8540 O.2   106  PHE106     -0.2715
    104  CB       -20.5730    8.0990  -54.8050 C.3   106  PHE106      0.0574
    105  CG       -21.7380    8.5820  -54.0120 C.ar  106  PHE106     -0.0200
    106  CD1      -21.7480    8.4570  -52.6070 C.ar  106  PHE106     -0.0042
    107  CD2      -22.8500    9.1010  -54.6480 C.ar  106  PHE106     -0.0042
    108  CE1      -22.8580    8.8420  -51.8840 C.ar  106  PHE106     -0.0003
    109  CE2      -23.9640    9.5000  -53.9180 C.ar  106  PHE106     -0.0003
    110  CZ       -23.9670    9.3690  -52.5380 C.ar  106  PHE106     -0.0000
    111  N        -19.8420    5.5080  -53.3200 N.am  107  GLY107     -0.1940
    112  CA       -19.8990    4.6980  -52.1210 C.3   107  GLY107      0.2014
    113  C        -18.6680    4.8090  -51.2790 C.2   107  GLY107      0.2639
    114  O        -17.6090    5.2210  -51.7500 O.2   107  GLY107     -0.2714
    115  N        -18.7980    4.3970  -50.0300 N.am  108  GLY108     -0.1954
    116  CA       -17.6770    4.3130  -49.1490 C.3   108  GLY108      0.1869
    117  C        -17.9420    4.9840  -47.8330 C.2   108  GLY108      0.2309
    118  O        -18.7160    5.9290  -47.7470 O.2   108  GLY108     -0.2863
    119  N        -15.9020    6.8740  -46.2070 N.3   110  SER110     -0.1202
    120  CA       -15.0050    7.9940  -45.9990 C.3   110  SER110      0.2020
    121  C        -15.6820    9.3080  -45.5820 C.2   110  SER110      0.2619
    122  O        -15.0440   10.1450  -44.9490 O.2   110  SER110     -0.2717
    123  CB       -14.1870    8.2390  -47.2420 C.3   110  SER110      0.2103
    124  OG       -15.0380    8.4110  -48.3760 O.3   110  SER110     -0.2182
    125  N        -16.9280    9.5210  -45.9770 N.am  111  GLY111     -0.1956
    126  CA       -17.6970   10.7090  -45.4890 C.3   111  GLY111      0.1869
    127  C        -17.7940   10.6680  -43.9820 C.2   111  GLY111      0.2309
    128  O        -17.5550   11.6710  -43.3050 O.2   111  GLY111     -0.2863
    129  N        -14.1480   11.0100  -42.3930 N.3   114  TYR114     -0.1241
    130  CA       -13.7320   12.4110  -42.3960 C.3   114  TYR114      0.1605
    131  C        -14.4940   13.2140  -41.3200 C.2   114  TYR114      0.2264
    132  O        -13.9300   14.1240  -40.7060 O.2   114  TYR114     -0.2867
    133  CB       -13.9300   13.0540  -43.7650 C.3   114  TYR114      0.0534
    134  CG       -12.8670   12.7430  -44.8330 C.ar  114  TYR114     -0.0201
    135  CD1      -12.3510   11.4530  -45.0260 C.ar  114  TYR114     -0.0009
    136  CD2      -12.4170   13.7550  -45.6850 C.ar  114  TYR114     -0.0009
    137  CE1      -11.4090   11.1920  -46.0260 C.ar  114  TYR114      0.0417
    138  CE2      -11.4720   13.5080  -46.6740 C.ar  114  TYR114      0.0417
    139  CZ       -10.9700   12.2320  -46.8510 C.ar  114  TYR114      0.1957
    140  OH       -10.0230   12.0290  -47.8490 O.3   114  TYR114     -0.2866
    141  N         -7.7100    6.7400  -58.1370 N.3   156  MET156     -0.1230
    142  CA        -9.1510    6.4370  -58.1000 C.3   156  MET156      0.1702
    143  C         -9.9730    7.7120  -58.2060 C.2   156  MET156      0.2593
    144  O         -9.5730    8.7670  -57.7330 O.2   156  MET156     -0.2718
    145  CB        -9.4910    5.7570  -56.7700 C.3   156  MET156      0.0401
    146  CG        -9.0290    4.3080  -56.6840 C.3   156  MET156      0.0596
    147  SD        -8.4320    3.8300  -55.0470 S.3   156  MET156     -0.1393
    148  CE        -8.0520    2.0910  -55.2960 C.3   156  MET156      0.0692
    149  N        -11.1420    7.6050  -58.8080 N.am  157  SER157     -0.1938
    150  CA       -12.0740    8.7180  -58.9010 C.3   157  SER157      0.2055
    151  C        -12.6640    8.9250  -57.4860 C.2   157  SER157      0.2643
    152  O        -13.1670    7.9660  -56.8970 O.2   157  SER157     -0.2714
    153  CB       -13.1720    8.3720  -59.9010 C.3   157  SER157      0.2130
    154  OG       -14.0790    9.4440  -60.0370 O.3   157  SER157     -0.2179
    155  N        -12.5420   10.1370  -56.9430 N.am  158  MET158     -0.1962
    156  CA       -12.9100   10.4230  -55.5500 C.3   158  MET158      0.1736
    157  C        -14.2820   11.0840  -55.4820 C.2   158  MET158      0.2616
    158  O        -14.7230   11.7500  -56.4180 O.2   158  MET158     -0.2715
    159  CB       -11.8470   11.3000  -54.8670 C.3   158  MET158      0.0427
    160  CG       -10.4440   10.6870  -54.7560 C.3   158  MET158      0.0599
    161  SD       -10.2610    8.9350  -54.2690 S.3   158  MET158     -0.1393
    162  CE       -10.5070    8.9930  -52.5020 C.3   158  MET158      0.0692
    163  N        -14.9690   10.8610  -54.3720 N.am  159  ALA159     -0.1963
    164  CA       -16.2540   11.5170  -54.1010 C.3   159  ALA159      0.1728
    165  C        -15.9060   12.7090  -53.2200 C.2   159  ALA159      0.2616
    166  O        -16.0050   12.6470  -51.9720 O.2   159  ALA159     -0.2715
    167  CB       -17.1910   10.5530  -53.3960 C.3   159  ALA159      0.0334
    168  N        -15.4600   13.7750  -53.8800 N.am  160  ASN160     -0.1972
    169  CA       -14.9490   14.9760  -53.2120 C.3   160  ASN160      0.1688
    170  C        -16.0430   15.6930  -52.3960 C.2   160  ASN160      0.2292
    171  O        -15.7610   16.2230  -51.3310 O.2   160  ASN160     -0.2864
    172  CB       -14.3780   15.9770  -54.2350 C.3   160  ASN160      0.1181
    173  CG       -13.1780   15.4340  -55.0050 C.2   160  ASN160      0.2629
    174  OD1      -13.1650   15.4710  -56.2290 O.2   160  ASN160     -0.2716
    175  ND2      -12.1860   14.9180  -54.2960 N.am  160  ASN160     -0.0877
    176  N        -18.7290   14.1740  -50.9720 N.3   162  ALA162     -0.1231
    177  CA       -18.8630   13.3300  -49.7610 C.3   162  ALA162      0.1694
    178  C        -17.7790   13.6120  -48.7090 C.2   162  ALA162      0.2592
    179  O        -18.0640   13.7150  -47.5040 O.2   162  ALA162     -0.2718
    180  CB       -18.8560   11.8430  -50.1240 C.3   162  ALA162      0.0304
    181  N        -16.5340   13.7140  -49.1700 N.am  163  HIS163     -0.1976
    182  CA       -15.4020   13.9120  -48.2810 C.3   163  HIS163      0.1656
    183  C        -15.4110   15.2680  -47.6030 C.2   163  HIS163      0.2291
    184  O        -15.1870   15.3530  -46.4070 O.2   163  HIS163     -0.2864
    185  CB       -14.0910   13.7280  -49.0450 C.3   163  HIS163      0.0771
    186  CG       -13.8570   12.3220  -49.4580 C.ar  163  HIS163      0.0820
    187  ND1      -13.0880   11.9870  -50.5540 N.ar  163  HIS163     -0.2267
    188  CD2      -14.3340   11.1590  -48.9520 C.ar  163  HIS163      0.1154
    189  CE1      -13.0570   10.6750  -50.6810 C.ar  163  HIS163      0.1986
    190  NE2      -13.7970   10.1640  -49.7200 N.ar  163  HIS163     -0.2212
@<TRIPOS>BOND
     1    14    15    1
     2    14    13    1
     3    17    15   am
     4    15    16    2
     5    94    92   ar
     6    94    95   ar
     7    13    10    1
     8    92    91   ar
     9    97    95   ar
    10    97    99   ar
    11    95    93   ar
    12    91    93   ar
    13    91    90    1
    14    99    98   ar
    15    83    82    2
    16    93    96   ar
    17    10     9    1
    18    10    11    1
    19   154   153    1
    20   153   150    1
    21    90    87    1
    22    82    81    1
    23    98    96   ar
    24     9     3   am
    25    11    12    2
    26    81    84    1
    27    81    80    1
    28    25    24    1
    29    84    85    1
    30   150   149    1
    31   150   151    1
    32   149   143   am
    33    87    86    1
    34    87    88    1
    35     1     2    1
    36   143   142    1
    37   143   144    2
    38     3     2    1
    39     3     4    2
    40   141   142    1
    41     5     2    1
    42     5     6    1
    43   142   145    1
    44    89    88    2
    45     8     6   ar
    46    24    23    1
    47   151   155   am
    48   151   152    2
    49     6     7   ar
    50    88   100   am
    51    22    23    1
    52    22    19    1
    53   155   156    1
    54   145   146    1
    55   146   147    1
    56    20    19    1
    57    20    21    2
    58   158   157    2
    59   174   173    2
    60   100   101    1
    61    19    18    1
    62    79    77   am
    63    42    44   ar
    64    42    41   ar
    65    74    73    2
    66    44    46   ar
    67    39    38    2
    68   156   157    1
    69   156   159    1
    70   157   163   am
    71    40    41    1
    72    40    37    1
    73    41    43   ar
    74   148   147    1
    75   101   104    1
    76   101   102    1
    77   173   175   am
    78   173   172    1
    79    46    45   ar
    80   159   160    1
    81   104   105    1
    82   160   161    1
    83    43    45   ar
    84   107   105   ar
    85   107   109   ar
    86    77    76    1
    87    77    78    2
    88    38    37    1
    89    38    47   am
    90    73    72    1
    91    37    36    1
    92   163   164    1
    93   161   162    1
    94   172   169    1
    95    51    48    1
    96    51    52    1
    97   164   167    1
    98   164   165    1
    99    76    75    1
   100   102   103    2
   101   102   111   am
   102   105   106   ar
   103   109   110   ar
   104   168   165   am
   105   168   169    1
   106    48    47    1
   107    48    49    1
   108    72    75    1
   109    72    71    1
   110   111   112    1
   111   165   166    2
   112   169   170    1
   113   106   108   ar
   114   110   108   ar
   115   170   171    2
   116    49    50    2
   117   112   113    1
   118    59    61   ar
   119    59    58   ar
   120   114   113    2
   121    61    62   ar
   122   113   115   am
   123    58    57    1
   124    58    60   ar
   125    57    54    1
   126    62    60   ar
   127   176   177    1
   128   189   187   ar
   129   189   190   ar
   130   187   186   ar
   131    30    27    1
   132    30    31    1
   133    53    54    1
   134   180   177    1
   135   115   116    1
   136    27    28    1
   137    27    26    1
   138    54    55    1
   139   177   178    1
   140   190   188   ar
   141    29    28    2
   142    31    33   ar
   143    31    32   ar
   144   186   185    1
   145   186   188   ar
   146   181   178   am
   147   181   182    1
   148   116   117    1
   149   185   182    1
   150    33    35   ar
   151    32    34   ar
   152   178   179    2
   153    55    56    2
   154   124   123    1
   155   182   183    1
   156    35    34   ar
   157   140   139    1
   158   117   118    2
   159   183   184    2
   160   123   120    1
   161    70    68   am
   162   139   138   ar
   163   139   137   ar
   164   138   136   ar
   165   119   120    1
   166   137   135   ar
   167   120   121    1
   168   125   121   am
   169   125   126    1
   170    68    69    2
   171    68    67    1
   172   136   134   ar
   173   121   122    2
   174   126   127    1
   175   135   134   ar
   176    67    64    1
   177   134   133    1
   178    63    64    1
   179   127   128    2
   180    64    65    1
   181   133   130    1
   182    65    66    2
   183   130   129    1
   184   130   131    1
   185   131   132    2
