@<TRIPOS>MOLECULE
tmp/5mtdA00.pdb
 100 98 0 0 0
SMALL
GASTEIGER

@<TRIPOS>ATOM
      1  N          0.5940  -31.6960    4.7950 N.3    40  GLY40      -0.1210
      2  CA        -0.3470  -32.3210    5.7250 C.3    40  GLY40       0.1956
      3  C         -1.6650  -31.5820    5.8770 C.2    40  GLY40       0.2612
      4  O         -1.8110  -30.4490    5.4060 O.2    40  GLY40      -0.2717
      5  N         -2.6210  -32.2340    6.5360 N.am   41  ILE41      -0.1965
      6  CA        -3.9010  -31.6080    6.8500 C.3    41  ILE41       0.1727
      7  C         -4.0650  -31.4200    8.3500 C.2    41  ILE41       0.2616
      8  O         -5.0350  -30.8290    8.8060 O.2    41  ILE41      -0.2715
      9  CB        -5.1120  -32.4060    6.2720 C.3    41  ILE41       0.0290
     10  CG1       -5.1860  -33.8240    6.8690 C.3    41  ILE41       0.0022
     11  CG2       -5.0770  -32.3990    4.7370 C.3    41  ILE41       0.0023
     12  CD1       -6.3900  -34.6700    6.3680 C.3    41  ILE41       0.0001
     13  N         -3.1120  -31.9300    9.1220 N.am   42  GLY42      -0.1955
     14  CA        -3.1320  -31.7430   10.5710 C.3    42  GLY42       0.1869
     15  C         -1.7260  -31.9360   11.1040 C.2    42  GLY42       0.2309
     16  O         -0.9040  -32.5870   10.4580 O.2    42  GLY42      -0.2863
     17  N        -11.7310  -45.3160    9.3190 N.3    81  SER81      -0.1203
     18  CA       -10.9640  -44.1500    8.9220 C.3    81  SER81       0.2005
     19  C         -9.5550  -44.5410    8.4770 C.2    81  SER81       0.2461
     20  O         -8.7000  -44.8090    9.3200 O.2    81  SER81      -0.2732
     21  CB       -10.8930  -43.1410   10.0720 C.3    81  SER81       0.2103
     22  OG       -10.0570  -42.0410    9.7370 O.3    81  SER81      -0.2182
     23  N         -9.3130  -44.5740    7.1570 N.am   82  PRO82      -0.2717
     24  CA        -7.9500  -44.8690    6.6970 C.3    82  PRO82       0.1535
     25  C         -7.1000  -43.6100    6.8570 C.2    82  PRO82       0.2598
     26  O         -7.4670  -42.5540    6.3380 O.2    82  PRO82      -0.2715
     27  CB        -8.1420  -45.2140    5.2190 C.3    82  PRO82       0.0310
     28  CG        -9.3700  -44.4380    4.8100 C.3    82  PRO82       0.0237
     29  CD       -10.2550  -44.3640    6.0350 C.3    82  PRO82       0.0939
     30  N         -5.9910  -43.7070    7.5860 N.am   83  GLU83      -0.1964
     31  CA        -5.2110  -42.5230    7.9030 C.3    83  GLU83       0.1733
     32  C         -3.7470  -42.7080    7.6310 C.2    83  GLU83       0.2617
     33  O         -3.1930  -43.7730    7.8900 O.2    83  GLU83      -0.2715
     34  CB        -5.3780  -42.1740    9.3790 C.3    83  GLU83       0.0429
     35  CG        -6.8310  -41.9270    9.7580 C.3    83  GLU83       0.1163
     36  CD        -7.0410  -41.6250   11.2310 C.2    83  GLU83       0.3649
     37  OE1       -6.0690  -41.3850   11.9800 O.co2  83  GLU83      -0.2457
     38  OE2       -8.2120  -41.5790   11.6500 O.co2  83  GLU83      -0.2457
     39  N         -3.1240  -41.6520    7.1140 N.am   84  GLY84      -0.1940
     40  CA        -1.6800  -41.5380    7.1500 C.3    84  GLY84       0.2014
     41  C         -1.2720  -40.6250    8.2880 C.2    84  GLY84       0.2639
     42  O         -2.0730  -40.2480    9.1390 O.2    84  GLY84      -0.2714
     43  N          0.0090  -40.2940    8.3000 N.am   85  CYS85      -0.1953
     44  CA         0.5810  -39.4500    9.3300 C.3    85  CYS85       0.1843
     45  C          1.8870  -38.8930    8.8330 C.2    85  CYS85       0.2625
     46  O          2.6980  -39.6270    8.2520 O.2    85  CYS85      -0.2714
     47  CB         0.8240  -40.2490   10.6120 C.3    85  CYS85       0.0997
     48  SG         1.4800  -39.2790   11.9820 S.3    85  CYS85      -0.0797
     49  N          2.1070  -37.5990    9.0660 N.am   86  LEU86      -0.1977
     50  CA         3.3370  -36.9620    8.6000 C.3    86  LEU86       0.1596
     51  C          4.5740  -37.5470    9.2660 C.2    86  LEU86       0.2287
     52  O          5.6590  -37.4980    8.6940 O.2    86  LEU86      -0.2864
     53  CB         3.2820  -35.4470    8.8290 C.3    86  LEU86       0.0297
     54  CG         2.2400  -34.6840    8.0030 C.3    86  LEU86       0.0022
     55  CD1        2.3070  -33.2070    8.3820 C.3    86  LEU86       0.0001
     56  CD2        2.4600  -34.8600    6.5110 C.3    86  LEU86       0.0001
     57  N        -14.2300  -36.8870    7.8760 N.3   120  LEU120     -0.1245
     58  CA       -12.8100  -36.5500    7.7530 C.3   120  LEU120      0.1561
     59  C        -12.2900  -35.5630    8.8140 C.2   120  LEU120      0.2260
     60  O        -11.2600  -35.8080    9.4460 O.2   120  LEU120     -0.2867
     61  CB       -12.4670  -36.0620    6.3260 C.3   120  LEU120      0.0270
     62  CG       -10.9970  -35.6290    6.1240 C.3   120  LEU120      0.0019
     63  CD1      -10.0310  -36.6940    6.5900 C.3   120  LEU120      0.0001
     64  CD2      -10.6600  -35.2620    4.6870 C.3   120  LEU120      0.0001
     65  N        -12.1250  -37.2040   12.1380 N.3   123  PHE123     -0.1227
     66  CA       -10.9750  -38.1100   12.1730 C.3   123  PHE123      0.1736
     67  C         -9.6590  -37.3660   12.3910 C.2   123  PHE123      0.2595
     68  O         -8.8400  -37.7980   13.2060 O.2   123  PHE123     -0.2718
     69  CB       -10.8950  -38.9530   10.8910 C.3   123  PHE123      0.0547
     70  CG       -12.1810  -39.6630   10.5160 C.ar  123  PHE123     -0.0202
     71  CD1      -12.4230  -39.9770    9.1810 C.ar  123  PHE123     -0.0042
     72  CD2      -13.1410  -40.0260   11.4740 C.ar  123  PHE123     -0.0042
     73  CE1      -13.5930  -40.6420    8.7920 C.ar  123  PHE123     -0.0003
     74  CE2      -14.3130  -40.6890   11.0960 C.ar  123  PHE123     -0.0003
     75  CZ       -14.5380  -40.9990    9.7520 C.ar  123  PHE123     -0.0000
     76  N         -9.4780  -36.2670   11.6460 N.am  124  CYS124     -0.1970
     77  CA        -8.3630  -35.2890   11.7520 C.3   124  CYS124      0.1712
     78  C         -8.1750  -34.9390   13.2410 C.2   124  CYS124      0.2296
     79  O         -7.0940  -35.1110   13.8620 O.2   124  CYS124     -0.2864
     80  CB        -8.8320  -34.0150   10.9860 C.3   124  CYS124      0.0983
     81  SG        -8.5860  -33.9420    9.1920 S.3   124  CYS124     -0.0798
     82  N         -7.1480  -37.8590   15.5360 N.3   127  HIS127     -0.1226
     83  CA        -5.7660  -38.2200   15.2250 C.3   127  HIS127      0.1752
     84  C         -4.8030  -37.2320   15.8830 C.2   127  HIS127      0.2595
     85  O         -3.8000  -37.6300   16.4810 O.2   127  HIS127     -0.2718
     86  CB        -5.5850  -38.2170   13.7140 C.3   127  HIS127      0.0759
     87  CG        -4.2000  -38.5450   13.2480 C.ar  127  HIS127      0.0818
     88  ND1       -3.9300  -39.6600   12.4860 N.ar  127  HIS127     -0.2268
     89  CD2       -3.0240  -37.8830   13.3820 C.ar  127  HIS127      0.1154
     90  CE1       -2.6480  -39.6660   12.1610 C.ar  127  HIS127      0.1986
     91  NE2       -2.0730  -38.6090   12.7030 N.ar  127  HIS127     -0.2212
     92  N         -5.0850  -35.9380   15.7640 N.am  128  GLU128     -0.1979
     93  CA        -4.1540  -34.9490   16.3350 C.3   128  GLU128      0.1602
     94  C         -4.1640  -34.9320   17.8510 C.2   128  GLU128      0.2287
     95  O         -3.1190  -34.7640   18.4840 O.2   128  GLU128     -0.2864
     96  CB        -4.3620  -33.5400   15.7670 C.3   128  GLU128      0.0415
     97  CG        -4.2990  -33.4550   14.2410 C.3   128  GLU128      0.1163
     98  CD        -3.0560  -34.0680   13.6350 C.2   128  GLU128      0.3649
     99  OE1       -3.1270  -34.5230   12.4720 O.co2 128  GLU128     -0.2457
    100  OE2       -2.0090  -34.0880   14.3280 O.co2 128  GLU128     -0.2457
@<TRIPOS>BOND
     1    64    62    1
     2    11     9    1
     3     1     2    1
     4    28    27    1
     5    28    29    1
     6    27    24    1
     7     4     3    2
     8     2     3    1
     9     3     5   am
    10    29    23    1
    11    62    61    1
    12    62    63    1
    13     9     6    1
    14     9    10    1
    15    61    58    1
    16    26    25    2
    17    12    10    1
    18    56    54    1
    19     5     6    1
    20    24    25    1
    21    24    23    1
    22     6     7    1
    23    25    30   am
    24    39    40    1
    25    39    32   am
    26    40    41    1
    27    23    19   am
    28    30    31    1
    29    32    33    2
    30    32    31    1
    31    58    57    1
    32    58    59    1
    33    31    34    1
    34    54    55    1
    35    54    53    1
    36    46    45    2
    37    41    43   am
    38    41    42    2
    39    43    44    1
    40     7     8    2
    41     7    13   am
    42    19    18    1
    43    19    20    2
    44    50    53    1
    45    50    49    1
    46    50    51    1
    47    52    51    2
    48    73    71   ar
    49    73    75   ar
    50    59    60    2
    51    45    49   am
    52    45    44    1
    53    18    17    1
    54    18    21    1
    55    13    14    1
    56    71    70   ar
    57    81    80    1
    58    44    47    1
    59    34    35    1
    60    22    21    1
    61    75    74   ar
    62    35    36    1
    63    16    15    2
    64    70    69    1
    65    70    72   ar
    66    14    15    1
    67    47    48    1
    68    69    66    1
    69    80    77    1
    70    74    72   ar
    71    36    38   ar
    72    36    37   ar
    73    76    77    1
    74    76    67   am
    75    77    78    1
    76    65    66    1
    77    90    88   ar
    78    90    91   ar
    79    66    67    1
    80    67    68    2
    81    99    98   ar
    82    88    87   ar
    83    91    89   ar
    84    78    79    2
    85    87    89   ar
    86    87    86    1
    87    98    97    1
    88    98   100   ar
    89    86    83    1
    90    97    96    1
    91    83    82    1
    92    83    84    1
    93    92    84   am
    94    92    93    1
    95    96    93    1
    96    84    85    2
    97    93    94    1
    98    94    95    2
