@<TRIPOS>MOLECULE
tmp/5mteB00.pdb
 144 140 0 0 0
SMALL
GASTEIGER

@<TRIPOS>ATOM
      1  N          2.7080  -11.7940  -17.4420 N.3    38  ALA38      -0.1231
      2  CA         1.8730  -11.2540  -16.3710 C.3    38  ALA38       0.1694
      3  C          2.6260  -10.2890  -15.4450 C.2    38  ALA38       0.2593
      4  O          2.0200   -9.6670  -14.5720 O.2    38  ALA38      -0.2718
      5  CB         1.2450  -12.3930  -15.5810 C.3    38  ALA38       0.0304
      6  N          3.9360  -10.1570  -15.6460 N.am   39  GLY39      -0.1942
      7  CA         4.7760   -9.2600  -14.8440 C.3    39  GLY39       0.2014
      8  C          5.1730   -9.7600  -13.4630 C.2    39  GLY39       0.2639
      9  O          5.4020   -8.9560  -12.5520 O.2    39  GLY39      -0.2714
     10  N          5.2600  -11.0800  -13.2970 N.am   40  GLY40      -0.1939
     11  CA         5.6540  -11.6690  -12.0100 C.3    40  GLY40       0.2014
     12  C          7.1280  -12.0280  -11.9010 C.2    40  GLY40       0.2639
     13  O          7.8580  -12.0420  -12.9070 O.2    40  GLY40      -0.2714
     14  N          7.5780  -12.3150  -10.6800 N.am   41  ILE41      -0.1963
     15  CA         8.9770  -12.7190  -10.4650 C.3    41  ILE41       0.1727
     16  C          9.0990  -14.1800  -10.0160 C.2    41  ILE41       0.2616
     17  O         10.2030  -14.6590   -9.7330 O.2    41  ILE41      -0.2715
     18  CB         9.7320  -11.7770   -9.4890 C.3    41  ILE41       0.0290
     19  CG1        9.1000  -11.8220   -8.0930 C.3    41  ILE41       0.0022
     20  CG2        9.7940  -10.3440  -10.0700 C.3    41  ILE41       0.0023
     21  CD1        9.8240  -10.9410   -7.0590 C.3    41  ILE41       0.0001
     22  N          7.9740  -14.8830   -9.9800 N.am   42  GLY42      -0.1955
     23  CA         7.9630  -16.3200   -9.7020 C.3    42  GLY42       0.1869
     24  C          6.6660  -16.9350  -10.1960 C.2    42  GLY42       0.2309
     25  O          5.7100  -16.2180  -10.4790 O.2    42  GLY42      -0.2863
     26  N         -0.3870  -22.8160  -10.5760 N.3    47  GLN47      -0.1245
     27  CA        -0.9440  -21.5820  -11.1170 C.3    47  GLN47       0.1566
     28  C         -1.2200  -21.6820  -12.6040 C.2    47  GLN47       0.2260
     29  O         -1.9100  -20.8250  -13.1530 O.2    47  GLN47      -0.2867
     30  CB        -0.0200  -20.4010  -10.8750 C.3    47  GLN47       0.0367
     31  CG         0.1200  -20.0230   -9.4110 C.3    47  GLN47       0.0905
     32  CD         1.0900  -18.8860   -9.2590 C.2    47  GLN47       0.2608
     33  OE1        2.3030  -19.1020   -9.2340 O.2    47  GLN47      -0.2717
     34  NE2        0.5620  -17.6510   -9.2180 N.am   47  GLN47      -0.0878
     35  N          7.0050   -9.3630    4.8480 N.3    81  SER81      -0.1203
     36  CA         7.1310   -9.4460    3.3980 C.3    81  SER81       0.2005
     37  C          5.8000   -9.0550    2.7330 C.2    81  SER81       0.2461
     38  O          4.8730   -9.8490    2.7140 O.2    81  SER81      -0.2732
     39  CB         7.5370  -10.8670    2.9830 C.3    81  SER81       0.2103
     40  OG         7.4980  -11.0370    1.5720 O.3    81  SER81      -0.2182
     41  N          5.7080   -7.8240    2.1930 N.am   82  PRO82      -0.2717
     42  CA         4.5100   -7.4250    1.4490 C.3    82  PRO82       0.1535
     43  C          4.4870   -8.1120    0.0900 C.2    82  PRO82       0.2598
     44  O          5.4480   -7.9890   -0.6870 O.2    82  PRO82      -0.2715
     45  CB         4.6800   -5.9140    1.2900 C.3    82  PRO82       0.0310
     46  CG         6.1240   -5.6610    1.3900 C.3    82  PRO82       0.0237
     47  CD         6.7220   -6.7580    2.2350 C.3    82  PRO82       0.0939
     48  N          3.4050   -8.8380   -0.1910 N.am   83  GLU83      -0.1964
     49  CA         3.3290   -9.6690   -1.3930 C.3    83  GLU83       0.1733
     50  C          2.0060   -9.5570   -2.1030 C.2    83  GLU83       0.2617
     51  O          0.9540   -9.5250   -1.4590 O.2    83  GLU83      -0.2715
     52  CB         3.5360  -11.1360   -1.0350 C.3    83  GLU83       0.0429
     53  CG         4.8800  -11.3940   -0.3930 C.3    83  GLU83       0.1163
     54  CD         5.1070  -12.8380   -0.0160 C.2    83  GLU83       0.3649
     55  OE1        4.3990  -13.7180   -0.5420 O.co2  83  GLU83      -0.2457
     56  OE2        6.0210  -13.0880    0.8170 O.co2  83  GLU83      -0.2457
     57  N          2.0740   -9.5030   -3.4290 N.am   84  GLY84      -0.1940
     58  CA         0.9160   -9.7760   -4.2730 C.3    84  GLY84       0.2014
     59  C          1.1100  -11.1310   -4.9270 C.2    84  GLY84       0.2639
     60  O          2.1580  -11.7670   -4.7760 O.2    84  GLY84      -0.2714
     61  N          0.1030  -11.5760   -5.6670 N.am   85  CYS85      -0.1953
     62  CA         0.1360  -12.8660   -6.3310 C.3    85  CYS85       0.1843
     63  C         -0.5650  -12.7280   -7.6670 C.2    85  CYS85       0.2625
     64  O         -1.6250  -12.1130   -7.7420 O.2    85  CYS85      -0.2714
     65  CB        -0.5670  -13.9190   -5.4630 C.3    85  CYS85       0.0997
     66  SG        -0.5860  -15.5940   -6.1780 S.3    85  CYS85      -0.0797
     67  N          0.0330  -13.2830   -8.7180 N.am   86  LEU86      -0.1977
     68  CA        -0.5930  -13.2620  -10.0420 C.3    86  LEU86       0.1596
     69  C         -1.9570  -13.9640  -10.0910 C.2    86  LEU86       0.2287
     70  O         -2.7630  -13.6890  -10.9870 O.2    86  LEU86      -0.2864
     71  CB         0.3540  -13.8600  -11.0880 C.3    86  LEU86       0.0297
     72  CG         1.6330  -13.0570  -11.3460 C.3    86  LEU86       0.0022
     73  CD1        2.5380  -13.8180  -12.3210 C.3    86  LEU86       0.0001
     74  CD2        1.3410  -11.6570  -11.8540 C.3    86  LEU86       0.0001
     75  N         -4.7350   -7.7880   -4.9570 N.3    91  LYS91      -0.1231
     76  CA        -4.5760   -8.1140   -3.5390 C.3    91  LYS91       0.1693
     77  C         -3.1210   -7.9920   -3.0950 C.2    91  LYS91       0.2592
     78  O         -2.2070   -8.3960   -3.8230 O.2    91  LYS91      -0.2718
     79  CB        -5.1130   -9.5200   -3.2620 C.3    91  LYS91       0.0285
     80  CG        -4.8750  -10.0750   -1.8700 C.3    91  LYS91       0.0035
     81  CD        -5.6350  -11.3850   -1.7200 C.3    91  LYS91       0.0206
     82  CE        -5.0320  -12.2550   -0.6350 C.3    91  LYS91       0.1093
     83  NZ        -5.9560  -13.3590   -0.2130 N.3    91  LYS91      -0.1314
     84  N         -2.9150   -7.4130   -1.9170 N.am   92  THR92      -0.1953
     85  CA        -1.5920   -7.4090   -1.2840 C.3    92  THR92       0.1897
     86  C         -1.7490   -7.9130    0.1400 C.2    92  THR92       0.2313
     87  O         -2.7270   -7.5870    0.8210 O.2    92  THR92      -0.2863
     88  CB        -0.9710   -6.0080   -1.2680 C.3    92  THR92       0.1794
     89  OG1       -1.0300   -5.4460   -2.5850 O.3    92  THR92      -0.2208
     90  CG2        0.4860   -6.0580   -0.8010 C.3    92  THR92       0.0378
     91  N         14.2320  -10.7110   -0.4340 N.3   120  LEU120     -0.1245
     92  CA        13.2620  -10.9230   -1.5120 C.3   120  LEU120      0.1561
     93  C         13.3310  -12.3190   -2.1680 C.2   120  LEU120      0.2260
     94  O         12.3070  -12.9690   -2.3620 O.2   120  LEU120     -0.2867
     95  CB        13.3420   -9.8120   -2.5730 C.3   120  LEU120      0.0270
     96  CG        12.3170   -9.8960   -3.7160 C.3   120  LEU120      0.0019
     97  CD1       10.8700   -9.8160   -3.2170 C.3   120  LEU120      0.0001
     98  CD2       12.5750   -8.8060   -4.7550 C.3   120  LEU120      0.0001
     99  N         11.8380  -14.7440    0.0560 N.3   123  PHE123     -0.1227
    100  CA        10.3730  -14.5930    0.0580 C.3   123  PHE123      0.1736
    101  C          9.7470  -15.2420   -1.1740 C.2   123  PHE123      0.2595
    102  O          8.7450  -15.9300   -1.0580 O.2   123  PHE123     -0.2718
    103  CB         9.9400  -13.1190    0.1530 C.3   123  PHE123      0.0547
    104  CG        10.5600  -12.3440    1.3080 C.ar  123  PHE123     -0.0202
    105  CD1       10.7010  -10.9590    1.2200 C.ar  123  PHE123     -0.0042
    106  CD2       10.9820  -12.9830    2.4750 C.ar  123  PHE123     -0.0042
    107  CE1       11.2630  -10.2100    2.2760 C.ar  123  PHE123     -0.0003
    108  CE2       11.5350  -12.2630    3.5350 C.ar  123  PHE123     -0.0003
    109  CZ        11.6900  -10.8740    3.4390 C.ar  123  PHE123     -0.0000
    110  N         10.3650  -15.0190   -2.3340 N.am  124  CYS124     -0.1970
    111  CA         9.9840  -15.6280   -3.6330 C.3   124  CYS124      0.1712
    112  C          9.8760  -17.1540   -3.4620 C.2   124  CYS124      0.2296
    113  O          8.8630  -17.7890   -3.8090 O.2   124  CYS124     -0.2864
    114  CB        11.1430  -15.3480   -4.6150 C.3   124  CYS124      0.0983
    115  SG        11.2580  -13.7000   -5.3320 S.3   124  CYS124     -0.0798
    116  N          7.0000  -18.1820   -1.2370 N.3   127  HIS127     -0.1226
    117  CA         5.7260  -17.9230   -1.9150 C.3   127  HIS127      0.1752
    118  C          5.4080  -19.0290   -2.9310 C.2   127  HIS127      0.2595
    119  O          4.2800  -19.5470   -2.9590 O.2   127  HIS127     -0.2718
    120  CB         5.8060  -16.5400   -2.5770 C.3   127  HIS127      0.0759
    121  CG         4.5780  -16.1300   -3.3250 C.ar  127  HIS127      0.0818
    122  ND1        3.7730  -15.0860   -2.9190 N.ar  127  HIS127     -0.2268
    123  CD2        4.0260  -16.6160   -4.4580 C.ar  127  HIS127      0.1154
    124  CE1        2.7790  -14.9420   -3.7810 C.ar  127  HIS127      0.1986
    125  NE2        2.9090  -15.8560   -4.7250 N.ar  127  HIS127     -0.2212
    126  N          6.4060  -19.4050   -3.7410 N.am  128  GLU128     -0.1979
    127  CA         6.1540  -20.4180   -4.7770 C.3   128  GLU128      0.1602
    128  C          6.0020  -21.8080   -4.1900 C.2   128  GLU128      0.2287
    129  O          5.1390  -22.5770   -4.6290 O.2   128  GLU128     -0.2864
    130  CB         7.2300  -20.4320   -5.8710 C.3   128  GLU128      0.0415
    131  CG         7.5080  -19.0930   -6.5270 C.3   128  GLU128      0.1163
    132  CD         6.2680  -18.3740   -7.0120 C.2   128  GLU128      0.3649
    133  OE1        5.2230  -19.0230   -7.2600 O.co2 128  GLU128     -0.2457
    134  OE2        6.3550  -17.1470   -7.1450 O.co2 128  GLU128     -0.2457
    135  N          2.6050  -22.2610   -2.8660 N.3   131  HIS131     -0.1241
    136  CA         1.6380  -22.6160   -3.9120 C.3   131  HIS131      0.1621
    137  C          1.5870  -24.1190   -4.1370 C.2   131  HIS131      0.2264
    138  O          0.5060  -24.6770   -4.3280 O.2   131  HIS131     -0.2867
    139  CB         1.9910  -21.9690   -5.2530 C.3   131  HIS131      0.0745
    140  CG         1.4610  -20.5750   -5.4490 C.ar  131  HIS131      0.0817
    141  ND1        0.1050  -20.2830   -5.5160 N.ar  131  HIS131     -0.2268
    142  CD2        2.1070  -19.4080   -5.6860 C.ar  131  HIS131      0.1154
    143  CE1       -0.0460  -18.9850   -5.7410 C.ar  131  HIS131      0.1986
    144  NE2        1.1510  -18.4320   -5.8390 N.ar  131  HIS131     -0.2212
@<TRIPOS>BOND
     1     1     2    1
     2     2     5    1
     3     2     3    1
     4     6     3   am
     5     6     7    1
     6     3     4    2
     7     7     8    1
     8     8    10   am
     9     8     9    2
    10    10    11    1
    11    29    28    2
    12    13    12    2
    13    28    27    1
    14    73    72    1
    15    11    12    1
    16    12    14   am
    17    74    72    1
    18    72    71    1
    19    27    30    1
    20    27    26    1
    21    71    68    1
    22    70    69    2
    23    30    31    1
    24    14    15    1
    25    25    24    2
    26    15    16    1
    27    15    18    1
    28    24    23    1
    29    69    68    1
    30    20    18    1
    31    68    67    1
    32    16    22   am
    33    16    17    2
    34    22    23    1
    35    18    19    1
    36    31    32    1
    37    32    33    2
    38    32    34   am
    39    67    63   am
    40    19    21    1
    41    64    63    2
    42    63    62    1
    43   133   132   ar
    44   134   132   ar
    45   132   131    1
    46   131   130    1
    47    62    61    1
    48    62    65    1
    49    66    65    1
    50   130   127    1
    51   144   143   ar
    52   144   142   ar
    53   143   141   ar
    54   142   140   ar
    55    61    59   am
    56   141   140   ar
    57   140   139    1
    58   115   114    1
    59   139   136    1
    60    75    76    1
    61    59    60    2
    62    59    58    1
    63   127   128    1
    64   127   126    1
    65    98    96    1
    66   125   123   ar
    67   125   124   ar
    68   129   128    2
    69   114   111    1
    70   123   121   ar
    71   138   137    2
    72    58    57    1
    73   137   136    1
    74   136   135    1
    75    78    77    2
    76   113   112    2
    77   124   122   ar
    78   126   118   am
    79    96    97    1
    80    96    95    1
    81   111   112    1
    82   111   110    1
    83    76    79    1
    84    76    77    1
    85    57    50   am
    86   121   122   ar
    87   121   120    1
    88    79    80    1
    89    77    84   am
    90   119   118    2
    91   118   117    1
    92    89    88    1
    93   120   117    1
    94    95    92    1
    95    94    93    2
    96   110   101   am
    97    93    92    1
    98    50    51    2
    99    50    49    1
   100    84    85    1
   101   117   116    1
   102    80    81    1
   103    81    82    1
   104    92    91    1
   105    49    52    1
   106    49    48    1
   107    85    88    1
   108    85    86    1
   109    88    90    1
   110   101   102    2
   111   101   100    1
   112    52    53    1
   113    44    43    2
   114    82    83    1
   115    55    54   ar
   116    53    54    1
   117    48    43   am
   118    54    56   ar
   119    99   100    1
   120   100   103    1
   121    43    42    1
   122    86    87    2
   123   103   104    1
   124   105   104   ar
   125   105   107   ar
   126    45    46    1
   127    45    42    1
   128   104   106   ar
   129    46    47    1
   130    42    41    1
   131    40    39    1
   132    41    47    1
   133    41    37   am
   134   107   109   ar
   135   106   108   ar
   136    38    37    2
   137    37    36    1
   138    39    36    1
   139    36    35    1
   140   109   108   ar
