@<TRIPOS>MOLECULE
tmp/5mtfA01.pdb
 85 82 0 0 0
SMALL
GASTEIGER

@<TRIPOS>ATOM
      1  N        -20.3700    3.2300  -27.2330 N.3     9  VAL9       -0.1245
      2  CA       -21.4440    3.5290  -26.2980 C.3     9  VAL9        0.1561
      3  C        -21.2710    2.8550  -24.9670 C.2     9  VAL9        0.2260
      4  O        -21.5690    3.4570  -23.9280 O.2     9  VAL9       -0.2867
      5  CB       -22.8450    3.3270  -26.8990 C.3     9  VAL9        0.0252
      6  CG1      -23.2800    1.8850  -26.8590 C.3     9  VAL9        0.0019
      7  CG2      -23.8500    4.1480  -26.1050 C.3     9  VAL9        0.0019
      8  N        -18.5900    4.9930  -23.1410 N.3    12  ILE12      -0.1231
      9  CA       -19.1710    6.2340  -22.6600 C.3    12  ILE12       0.1692
     10  C        -20.0990    5.9860  -21.4800 C.2    12  ILE12       0.2591
     11  O        -20.0700    6.7080  -20.5000 O.2    12  ILE12      -0.2718
     12  CB       -20.0290    6.8710  -23.8250 C.3    12  ILE12       0.0266
     13  CG1      -19.0630    7.5830  -24.7590 C.3    12  ILE12       0.0019
     14  CG2      -21.1200    7.8060  -23.3210 C.3    12  ILE12       0.0020
     15  CD1      -18.3560    8.8000  -24.1390 C.3    12  ILE12       0.0001
     16  N        -20.9600    4.9760  -21.5900 N.am   13  ALA13      -0.1980
     17  CA       -21.8230    4.6170  -20.4580 C.3    13  ALA13       0.1597
     18  C        -21.0350    4.3040  -19.1780 C.2    13  ALA13       0.2287
     19  O        -21.3780    4.7520  -18.0750 O.2    13  ALA13      -0.2864
     20  CB       -22.7440    3.4260  -20.8320 C.3    13  ALA13       0.0319
     21  N        -19.6670    7.6650  -17.7870 N.3    16  VAL16      -0.1231
     22  CA       -20.7720    8.4610  -17.2680 C.3    16  VAL16       0.1692
     23  C        -21.1730    7.9190  -15.8930 C.2    16  VAL16       0.2591
     24  O        -21.3180    8.6880  -14.9350 O.2    16  VAL16      -0.2718
     25  CB       -21.9530    8.5130  -18.2520 C.3    16  VAL16       0.0266
     26  CG1      -23.2420    9.0120  -17.6020 C.3    16  VAL16       0.0020
     27  CG2      -21.5810    9.3770  -19.4560 C.3    16  VAL16       0.0020
     28  N        -21.2920    6.5780  -15.7720 N.am   17  VAL17      -0.1980
     29  CA       -21.5370    5.9660  -14.4750 C.3    17  VAL17       0.1595
     30  C        -20.4310    6.2110  -13.4820 C.2    17  VAL17       0.2287
     31  O        -20.6960    6.5400  -12.3140 O.2    17  VAL17      -0.2864
     32  CB       -21.8720    4.4500  -14.6100 C.3    17  VAL17       0.0276
     33  CG1      -21.9760    3.8040  -13.2390 C.3    17  VAL17       0.0022
     34  CG2      -23.1840    4.2720  -15.3840 C.3    17  VAL17       0.0022
     35  N        -29.1550    2.2020   -7.2070 N.3    32  TRP32      -0.1227
     36  CA       -29.8850    2.3560   -8.4550 C.3    32  TRP32       0.1737
     37  C        -29.5460    1.2180   -9.4350 C.2    32  TRP32       0.2595
     38  O        -30.4250    0.7390  -10.1450 O.2    32  TRP32      -0.2718
     39  CB       -29.5190    3.6980   -9.0730 C.3    32  TRP32       0.0564
     40  CG       -30.1150    4.1220  -10.4350 C.ar   32  TRP32       0.0003
     41  CD1      -31.4250    3.9350  -10.8960 C.ar   32  TRP32       0.0946
     42  CD2      -29.4410    4.8960  -11.4650 C.ar   32  TRP32       0.0152
     43  NE1      -31.5770    4.5070  -12.1560 N.ar   32  TRP32      -0.2442
     44  CE2      -30.3910    5.1110  -12.5240 C.ar   32  TRP32       0.0810
     45  CE3      -28.1340    5.4520  -11.5900 C.ar   32  TRP32       0.0012
     46  CZ2      -30.0600    5.8320  -13.7120 C.ar   32  TRP32       0.0191
     47  CZ3      -27.7990    6.1570  -12.7880 C.ar   32  TRP32       0.0001
     48  CH2      -28.7660    6.3280  -13.8280 C.ar   32  TRP32       0.0015
     49  N        -28.2810    0.8230   -9.4690 N.am   33  LEU33      -0.1980
     50  CA       -27.7920   -0.0350  -10.6090 C.3    33  LEU33       0.1596
     51  C        -27.3900   -1.4510  -10.2670 C.2    33  LEU33       0.2287
     52  O        -27.1660   -2.2570  -11.2100 O.2    33  LEU33      -0.2864
     53  CB       -26.6380    0.6250  -11.3300 C.3    33  LEU33       0.0297
     54  CG       -26.8740    1.9770  -12.0170 C.3    33  LEU33       0.0022
     55  CD1      -25.5650    2.4310  -12.7050 C.3    33  LEU33       0.0001
     56  CD2      -28.0710    1.9510  -12.9800 C.3    33  LEU33       0.0001
     57  N        -33.4040   -3.6190  -15.6570 N.3    46  TRP46      -0.1241
     58  CA       -32.0890   -3.0840  -15.9740 C.3    46  TRP46       0.1605
     59  C        -31.0070   -3.5980  -15.0460 C.2    46  TRP46       0.2264
     60  O        -29.8780   -3.7690  -15.4890 O.2    46  TRP46      -0.2867
     61  CB       -32.0750   -1.5370  -15.9870 C.3    46  TRP46       0.0550
     62  CG       -32.2440   -0.8940  -14.6190 C.ar   46  TRP46       0.0003
     63  CD1      -31.2700   -0.5760  -13.7110 C.ar   46  TRP46       0.0946
     64  CD2      -33.4730   -0.4510  -14.0480 C.ar   46  TRP46       0.0152
     65  NE1      -31.8290   -0.0160  -12.6060 N.ar   46  TRP46      -0.2442
     66  CE2      -33.1740    0.0990  -12.7990 C.ar   46  TRP46       0.0810
     67  CE3      -34.7930   -0.4230  -14.5100 C.ar   46  TRP46       0.0012
     68  CZ2      -34.1500    0.6510  -11.9770 C.ar   46  TRP46       0.0191
     69  CZ3      -35.7960    0.1340  -13.6720 C.ar   46  TRP46       0.0001
     70  CH2      -35.4670    0.6410  -12.4270 C.ar   46  TRP46       0.0015
     71  N        -26.9820   -3.8080  -15.3990 N.3    50  THR50      -0.1218
     72  CA       -26.2460   -2.5460  -15.1250 C.3    50  THR50       0.1862
     73  C        -25.1610   -2.6770  -14.0870 C.2    50  THR50       0.2287
     74  O        -24.3740   -1.7610  -13.9180 O.2    50  THR50      -0.2866
     75  CB       -27.2040   -1.3860  -14.7380 C.3    50  THR50       0.1770
     76  OG1      -28.0590   -1.8140  -13.6930 O.3    50  THR50      -0.2211
     77  CG2      -28.0120   -0.9560  -15.9400 C.3    50  THR50       0.0375
     78  N        -21.7320   -1.8890  -15.4910 N.3    53  LEU53      -0.1245
     79  CA       -21.3530   -0.4800  -15.7040 C.3    53  LEU53       0.1561
     80  C        -20.6440    0.1830  -14.6050 C.2    53  LEU53       0.2260
     81  O        -20.1520    1.3220  -14.7960 O.2    53  LEU53      -0.2867
     82  CB       -22.5760    0.3600  -16.0500 C.3    53  LEU53       0.0270
     83  CG       -23.3830   -0.0770  -17.2680 C.3    53  LEU53       0.0019
     84  CD1      -24.6130    0.7920  -17.5380 C.3    53  LEU53       0.0001
     85  CD2      -22.5620   -0.3310  -18.5100 C.3    53  LEU53       0.0001
@<TRIPOS>BOND
     1     1     2    1
     2     5     6    1
     3     5     2    1
     4     5     7    1
     5     2     3    1
     6     3     4    2
     7    13    15    1
     8    13    12    1
     9    12    14    1
    10    12     9    1
    11     8     9    1
    12     9    10    1
    13    16    10   am
    14    16    17    1
    15    10    11    2
    16    20    17    1
    17    17    18    1
    18    27    25    1
    19    18    19    2
    20    85    83    1
    21    25    26    1
    22    25    22    1
    23    21    22    1
    24    84    83    1
    25    83    82    1
    26    22    23    1
    27    82    79    1
    28    61    58    1
    29    61    62    1
    30    58    57    1
    31    58    59    1
    32    77    75    1
    33    23    28   am
    34    23    24    2
    35    28    29    1
    36    79    78    1
    37    79    80    1
    38    60    59    2
    39    71    72    1
    40    34    32    1
    41    72    75    1
    42    72    73    1
    43    81    80    2
    44    75    76    1
    45    62    64   ar
    46    62    63   ar
    47    32    29    1
    48    32    33    1
    49    67    64   ar
    50    67    69   ar
    51    29    30    1
    52    73    74    2
    53    64    66   ar
    54    48    46   ar
    55    48    47   ar
    56    46    44   ar
    57    63    65   ar
    58    69    70   ar
    59    30    31    2
    60    56    54    1
    61    66    65   ar
    62    66    68   ar
    63    47    45   ar
    64    55    54    1
    65    44    43   ar
    66    44    42   ar
    67    70    68   ar
    68    43    41   ar
    69    54    53    1
    70    45    42   ar
    71    42    40   ar
    72    53    50    1
    73    52    51    2
    74    41    40   ar
    75    50    51    1
    76    50    49    1
    77    40    39    1
    78    38    37    2
    79    49    37   am
    80    37    36    1
    81    39    36    1
    82    36    35    1
