@<TRIPOS>MOLECULE
tmp/5mtfA02.pdb
 79 73 0 0 0
SMALL
GASTEIGER

@<TRIPOS>ATOM
      1  N        -12.7530  -12.6130  -24.1170 N.3   118  MET118     -0.1230
      2  CA       -11.4970  -13.3110  -24.2300 C.3   118  MET118      0.1702
      3  C        -11.7130  -14.7300  -24.7540 C.2   118  MET118      0.2592
      4  O        -11.0720  -15.1680  -25.7410 O.2   118  MET118     -0.2718
      5  CB       -10.8180  -13.3520  -22.8790 C.3   118  MET118      0.0401
      6  CG       -10.2020  -12.0470  -22.4880 C.3   118  MET118      0.0596
      7  SD        -9.4630  -12.1410  -20.8360 S.3   118  MET118     -0.1393
      8  CE        -8.7700  -10.4910  -20.7360 C.3   118  MET118      0.0692
      9  N        -12.6010  -15.4490  -24.0960 N.am  119  GLY119     -0.1957
     10  CA       -12.9190  -16.8260  -24.4750 C.3   119  GLY119      0.1869
     11  C        -13.4850  -16.8830  -25.8900 C.2   119  GLY119      0.2309
     12  O        -13.1590  -17.7890  -26.6930 O.2   119  GLY119     -0.2863
     13  N        -10.8550  -15.8950  -28.7170 N.3   122  TRP122     -0.1241
     14  CA        -9.8140  -16.9380  -28.8330 C.3   122  TRP122      0.1605
     15  C        -10.3880  -18.2010  -29.5040 C.2   122  TRP122      0.2264
     16  O         -9.8430  -18.7220  -30.4830 O.2   122  TRP122     -0.2867
     17  CB        -9.2600  -17.3290  -27.4620 C.3   122  TRP122      0.0550
     18  CG        -8.3970  -18.5420  -27.5360 C.ar  122  TRP122      0.0003
     19  CD1       -7.1740  -18.6500  -28.1620 C.ar  122  TRP122      0.0946
     20  CD2       -8.7040  -19.8420  -27.0230 C.ar  122  TRP122      0.0152
     21  NE1       -6.6940  -19.9430  -28.0400 N.ar  122  TRP122     -0.2442
     22  CE2       -7.6210  -20.6980  -27.3740 C.ar  122  TRP122      0.0810
     23  CE3       -9.8020  -20.3860  -26.3230 C.ar  122  TRP122      0.0012
     24  CZ2       -7.6080  -22.0220  -27.0380 C.ar  122  TRP122      0.0191
     25  CZ3       -9.7690  -21.7020  -25.9700 C.ar  122  TRP122      0.0001
     26  CH2       -8.6700  -22.5100  -26.3070 C.ar  122  TRP122      0.0015
     27  N         -7.5720  -14.1910  -31.6840 N.3   135  LEU135     -0.1245
     28  CA        -6.8140  -13.5530  -30.5890 C.3   135  LEU135      0.1561
     29  C         -5.3190  -13.7210  -30.9240 C.2   135  LEU135      0.2260
     30  O         -4.8120  -14.8660  -30.9340 O.2   135  LEU135     -0.2867
     31  CB        -7.1420  -14.1940  -29.2030 C.3   135  LEU135      0.0270
     32  CG        -6.6540  -13.3790  -27.9910 C.3   135  LEU135      0.0019
     33  CD1       -7.1880  -11.9460  -27.9710 C.3   135  LEU135      0.0001
     34  CD2       -7.0230  -14.1180  -26.7020 C.3   135  LEU135      0.0001
     35  N         -3.0240  -13.5900  -26.3840 N.3   140  ILE140     -0.1245
     36  CA        -3.3860  -14.8200  -25.7000 C.3   140  ILE140      0.1561
     37  C         -2.6580  -14.9100  -24.3650 C.2   140  ILE140      0.2260
     38  O         -3.2480  -15.3030  -23.3560 O.2   140  ILE140     -0.2867
     39  CB        -3.0780  -16.0740  -26.5630 C.3   140  ILE140      0.0252
     40  CG1       -4.0400  -16.1810  -27.7680 C.3   140  ILE140      0.0019
     41  CG2       -3.2250  -17.3670  -25.7860 C.3   140  ILE140      0.0019
     42  CD1       -3.6780  -17.2910  -28.7640 C.3   140  ILE140      0.0001
     43  N         -4.0690  -12.2930  -21.9730 N.3   143  ALA143     -0.1231
     44  CA        -5.4370  -12.7530  -21.5620 C.3   143  ALA143      0.1694
     45  C         -5.3340  -13.8740  -20.5800 C.2   143  ALA143      0.2591
     46  O         -5.9810  -13.8750  -19.5480 O.2   143  ALA143     -0.2718
     47  CB        -6.2470  -13.2260  -22.7680 C.3   143  ALA143      0.0304
     48  N         -4.4410  -14.8380  -20.8580 N.am  144  LEU144     -0.1980
     49  CA        -4.2030  -15.9280  -19.9150 C.3   144  LEU144      0.1596
     50  C         -3.7410  -15.4610  -18.5470 C.2   144  LEU144      0.2287
     51  O         -4.1950  -15.9670  -17.5180 O.2   144  LEU144     -0.2864
     52  CB        -3.1860  -16.9410  -20.4640 C.3   144  LEU144      0.0297
     53  CG        -3.6480  -18.1240  -21.2360 C.3   144  LEU144      0.0022
     54  CD1       -2.3960  -18.8920  -21.6760 C.3   144  LEU144      0.0001
     55  CD2       -4.5640  -19.0190  -20.4000 C.3   144  LEU144      0.0001
     56  N         -6.6600  -14.0140  -16.7070 N.3   147  ILE147     -0.1245
     57  CA        -7.4760  -15.1380  -16.1580 C.3   147  ILE147      0.1561
     58  C         -6.8960  -15.7150  -14.8800 C.2   147  ILE147      0.2260
     59  O         -7.5650  -15.8500  -13.8620 O.2   147  ILE147     -0.2867
     60  CB        -7.7310  -16.2120  -17.2460 C.3   147  ILE147      0.0252
     61  CG1       -8.6340  -15.6210  -18.3770 C.3   147  ILE147      0.0019
     62  CG2       -8.3200  -17.4840  -16.6680 C.3   147  ILE147      0.0019
     63  CD1       -8.6880  -16.4450  -19.6570 C.3   147  ILE147      0.0001
     64  N        -16.4090  -16.3390  -18.7060 N.3   168  LEU168     -0.1245
     65  CA       -15.4860  -17.1040  -19.5740 C.3   168  LEU168      0.1561
     66  C        -16.2440  -18.2970  -20.1840 C.2   168  LEU168      0.2260
     67  O        -16.1830  -18.5200  -21.4020 O.2   168  LEU168     -0.2867
     68  CB       -14.2470  -17.5430  -18.7690 C.3   168  LEU168      0.0270
     69  CG       -13.2360  -18.4070  -19.5590 C.3   168  LEU168      0.0019
     70  CD1      -12.7420  -17.6230  -20.7430 C.3   168  LEU168      0.0001
     71  CD2      -12.0560  -18.7440  -18.6460 C.3   168  LEU168      0.0001
     72  N        -16.8950  -18.9280  -24.2840 N.3   172  LEU172     -0.1245
     73  CA       -16.4840  -20.1920  -24.9340 C.3   172  LEU172      0.1561
     74  C        -17.6920  -20.8940  -25.5710 C.2   172  LEU172      0.2260
     75  O        -17.6120  -21.3130  -26.7150 O.2   172  LEU172     -0.2867
     76  CB       -15.7980  -21.1360  -23.9280 C.3   172  LEU172      0.0270
     77  CG       -14.4880  -20.5890  -23.3110 C.3   172  LEU172      0.0019
     78  CD1      -14.1360  -21.4080  -22.0680 C.3   172  LEU172      0.0001
     79  CD2      -13.4010  -20.5880  -24.3800 C.3   172  LEU172      0.0001
@<TRIPOS>BOND
     1    27    28    1
     2    30    29    2
     3    29    28    1
     4    28    31    1
     5    16    15    2
     6    15    14    1
     7    31    32    1
     8    14    13    1
     9    14    17    1
    10    42    40    1
    11    19    21   ar
    12    19    18   ar
    13    21    22   ar
    14    32    33    1
    15    32    34    1
    16    40    39    1
    17    18    17    1
    18    18    20   ar
    19    22    24   ar
    20    22    20   ar
    21    24    26   ar
    22    20    23   ar
    23    75    74    2
    24    12    11    2
    25    39    41    1
    26    39    36    1
    27    35    36    1
    28    23    25   ar
    29    26    25   ar
    30    11    10    1
    31     4     3    2
    32    36    37    1
    33    74    73    1
    34    73    72    1
    35    73    76    1
    36     3     2    1
    37     3     9   am
    38    10     9    1
    39    79    77    1
    40    37    38    2
    41     2     1    1
    42     2     5    1
    43    76    77    1
    44    77    78    1
    45     5     6    1
    46    47    44    1
    47     6     7    1
    48    43    44    1
    49    54    53    1
    50    44    45    1
    51    67    66    2
    52    53    52    1
    53    53    55    1
    54    48    45   am
    55    48    49    1
    56     7     8    1
    57    70    69    1
    58    45    46    2
    59    52    49    1
    60    66    65    1
    61    49    50    1
    62    63    61    1
    63    65    68    1
    64    65    64    1
    65    69    68    1
    66    69    71    1
    67    50    51    2
    68    61    60    1
    69    60    62    1
    70    60    57    1
    71    56    57    1
    72    57    58    1
    73    58    59    2
