@<TRIPOS>MOLECULE
tmp/5mthB00.pdb
 95 90 0 0 0
SMALL
GASTEIGER

@<TRIPOS>ATOM
      1  N          5.0350    2.3750   48.9580 N.3    45  LYS45      -0.1231
      2  CA         5.5660    3.1200   50.1100 C.3    45  LYS45       0.1678
      3  C          6.7070    2.3990   50.8360 C.2    45  LYS45       0.2434
      4  O          6.7790    1.1590   50.8730 O.2    45  LYS45      -0.2733
      5  CB         4.4500    3.4370   51.0860 C.3    45  LYS45       0.0284
      6  CG         3.3470    4.2740   50.4730 C.3    45  LYS45       0.0035
      7  CD         2.2090    4.6000   51.4150 C.3    45  LYS45       0.0206
      8  CE         1.2880    5.5090   50.6440 C.3    45  LYS45       0.1093
      9  NZ         0.0150    5.8250   51.3130 N.3    45  LYS45      -0.1314
     10  N          7.6010    3.1600   51.4670 N.am   46  PRO46      -0.2729
     11  CA         8.7330    2.5260   52.1810 C.3    46  PRO46       0.1401
     12  C          8.3660    1.3900   53.1510 C.2    46  PRO46       0.2269
     13  O          7.4710    1.5430   53.9740 O.2    46  PRO46      -0.2865
     14  CB         9.3450    3.7130   52.9620 C.3    46  PRO46       0.0296
     15  CG         9.0130    4.9060   52.0950 C.3    46  PRO46       0.0237
     16  CD         7.6440    4.6360   51.5580 C.3    46  PRO46       0.0939
     17  N          6.6710   -1.3520   52.6290 N.3    48  GLN48      -0.1245
     18  CA         5.4020   -1.9670   52.2870 C.3    48  GLN48       0.1566
     19  C          5.4740   -2.6940   50.9290 C.2    48  GLN48       0.2260
     20  O          6.3400   -2.4100   50.0790 O.2    48  GLN48      -0.2867
     21  CB         4.2550   -0.9240   52.2490 C.3    48  GLN48       0.0367
     22  CG         3.9840   -0.2040   53.5640 C.3    48  GLN48       0.0905
     23  CD         2.6560    0.5380   53.5760 C.2    48  GLN48       0.2608
     24  OE1        1.6440    0.0880   53.0090 O.2    48  GLN48      -0.2717
     25  NE2        2.6640    1.7130   54.1850 N.am   48  GLN48      -0.0878
     26  N          0.9390   11.9240   52.3800 N.3    87  GLU87      -0.1245
     27  CA         0.8040   10.4570   52.4200 C.3    87  GLU87       0.1567
     28  C          1.0580    9.8010   51.0460 C.2    87  GLU87       0.2260
     29  O          1.2360    8.5910   50.9810 O.2    87  GLU87      -0.2867
     30  CB        -0.5770   10.0390   52.9540 C.3    87  GLU87       0.0388
     31  CG        -1.7140   10.3230   51.9760 C.3    87  GLU87       0.1160
     32  CD        -3.0030   10.8150   52.6580 C.2    87  GLU87       0.3649
     33  OE1       -3.4830   10.1260   53.5990 O.co2  87  GLU87      -0.2457
     34  OE2       -3.5320   11.8960   52.2750 O.co2  87  GLU87      -0.2457
     35  N          3.8280   10.0520   49.4140 N.3    89  LEU89      -0.1245
     36  CA         5.2490    9.7040   49.3670 C.3    89  LEU89       0.1561
     37  C          5.4380    8.2160   49.0840 C.2    89  LEU89       0.2260
     38  O          5.0530    7.3860   49.9070 O.2    89  LEU89      -0.2867
     39  CB         6.0070   10.0670   50.6570 C.3    89  LEU89       0.0270
     40  CG         6.1930   11.5390   50.9510 C.3    89  LEU89       0.0019
     41  CD1        6.6420   11.7320   52.3720 C.3    89  LEU89       0.0001
     42  CD2        7.2100   12.1290   50.0270 C.3    89  LEU89       0.0001
     43  N         16.6100    8.7590   57.4000 N.3   169  THR169     -0.1203
     44  CA        15.2660    8.1930   57.1920 C.3   169  THR169      0.1994
     45  C         14.7330    8.5820   55.8160 C.2   169  THR169      0.2618
     46  O         15.2220    9.5500   55.1700 O.2   169  THR169     -0.2717
     47  CB        14.2660    8.6260   58.2200 C.3   169  THR169      0.1784
     48  OG1       14.2780   10.0860   58.2920 O.3   169  THR169     -0.2211
     49  CG2       14.5910    7.9460   59.5660 C.3   169  THR169      0.0376
     50  N         13.7090    7.8480   55.3960 N.am  170  ASP170     -0.1959
     51  CA        12.8420    8.3150   54.2900 C.3   170  ASP170      0.1840
     52  C         12.1150    9.5820   54.7340 C.2   170  ASP170      0.2622
     53  O         11.7940    9.7240   55.8940 O.2   170  ASP170     -0.2715
     54  CB        11.7680    7.2790   53.9790 C.3   170  ASP170      0.1450
     55  CG        12.3620    5.9740   53.5220 C.2   170  ASP170      0.3671
     56  OD1       13.0560    5.9930   52.4850 O.co2 170  ASP170     -0.2456
     57  OD2       12.1550    4.9730   54.2340 O.co2 170  ASP170     -0.2456
     58  N         11.7820   10.4370   53.8100 N.am  171  GLN171     -0.1963
     59  CA        10.8860   11.5610   54.0990 C.3   171  GLN171      0.1733
     60  C          9.5940   11.0830   54.8150 C.2   171  GLN171      0.2616
     61  O          8.9660   10.1100   54.3660 O.2   171  GLN171     -0.2715
     62  CB        10.5990   12.3060   52.7890 C.3   171  GLN171      0.0408
     63  CG         9.9820   13.6400   53.0420 C.3   171  GLN171      0.0908
     64  CD         9.8510   14.4450   51.7670 C.2   171  GLN171      0.2608
     65  OE1        9.8410   13.9190   50.6510 O.2   171  GLN171     -0.2717
     66  NE2        9.7470   15.7390   51.9270 N.am  171  GLN171     -0.0878
     67  N          9.2060   11.7550   55.8960 N.am  172  ASP172     -0.1957
     68  CA         8.0700   11.2950   56.7480 C.3   172  ASP172      0.1840
     69  C          6.7630   11.7900   56.0850 C.2   172  ASP172      0.2623
     70  O          6.6490   12.9640   55.8270 O.2   172  ASP172     -0.2715
     71  CB         8.2180   11.8850   58.1560 C.3   172  ASP172      0.1450
     72  CG         7.3580   11.1770   59.2220 C.2   172  ASP172      0.3671
     73  OD1        6.3320   10.4660   58.9140 O.co2 172  ASP172     -0.2456
     74  OD2        7.6970   11.3620   60.3930 O.co2 172  ASP172     -0.2456
     75  N          5.7520   10.9590   55.9230 N.am  173  SER173     -0.1936
     76  CA         4.4090   11.4580   55.5470 C.3   173  SER173      0.2055
     77  C          3.7750   12.3310   56.6530 C.2   173  SER173      0.2642
     78  O          2.9050   13.1270   56.3700 O.2   173  SER173     -0.2714
     79  CB         3.4560   10.3000   55.2520 C.3   173  SER173      0.2130
     80  OG         3.4920    9.3770   56.3350 O.3   173  SER173     -0.2179
     81  N          4.1610   12.1810   57.9050 N.am  174  LYS174     -0.1977
     82  CA         3.4650   12.9610   58.9460 C.3   174  LYS174      0.1596
     83  C          3.7340   14.4370   58.7680 C.2   174  LYS174      0.2287
     84  O          2.7950   15.2390   58.7970 O.2   174  LYS174     -0.2864
     85  CB         3.7910   12.4940   60.3660 C.3   174  LYS174      0.0298
     86  CG         3.5150   10.9970   60.6090 C.3   174  LYS174      0.0038
     87  CD         2.1840   10.4860   60.0440 C.3   174  LYS174      0.0206
     88  CE         0.9840   11.2440   60.5970 C.3   174  LYS174      0.1093
     89  NZ        -0.2290   10.3900   60.6610 N.3   174  LYS174     -0.1314
     90  N         15.0950   12.8800   58.8800 N.3   179  SER179     -0.1217
     91  CA        15.8740   12.7120   60.0970 C.3   179  SER179      0.1889
     92  C         17.1260   11.9840   59.8040 C.2   179  SER179      0.2288
     93  O         17.2500   11.2830   58.7870 O.2   179  SER179     -0.2866
     94  CB        15.0770   12.0390   61.2450 C.3   179  SER179      0.2089
     95  OG        13.8920   12.7520   61.6550 O.3   179  SER179     -0.2183
@<TRIPOS>BOND
     1     1     2    1
     2    37    36    1
     3    37    38    2
     4    36    35    1
     5    36    39    1
     6    42    40    1
     7    20    19    2
     8     2     3    1
     9     2     5    1
    10     6     5    1
    11     6     7    1
    12     8     9    1
    13     8     7    1
    14    65    64    2
    15    39    40    1
    16     3     4    2
    17     3    10   am
    18    19    18    1
    19    40    41    1
    20    29    28    2
    21    28    27    1
    22    10    16    1
    23    10    11    1
    24    16    15    1
    25    64    66   am
    26    64    63    1
    27    31    32    1
    28    31    30    1
    29    15    14    1
    30    11    14    1
    31    11    12    1
    32    21    18    1
    33    21    22    1
    34    34    32   ar
    35    18    17    1
    36    26    27    1
    37    27    30    1
    38    56    55   ar
    39    32    33   ar
    40    62    63    1
    41    62    59    1
    42    24    23    2
    43    12    13    2
    44    55    54    1
    45    55    57   ar
    46    22    23    1
    47    23    25   am
    48    58    59    1
    49    58    52   am
    50    54    51    1
    51    59    60    1
    52    51    52    1
    53    51    50    1
    54    61    60    2
    55    52    53    2
    56    60    67   am
    57    46    45    2
    58    79    76    1
    59    79    80    1
    60    50    45   am
    61    76    75    1
    62    76    77    1
    63    45    44    1
    64    70    69    2
    65    67    68    1
    66    75    69   am
    67    69    68    1
    68    78    77    2
    69    77    81   am
    70    68    71    1
    71    44    43    1
    72    44    47    1
    73    81    82    1
    74    71    72    1
    75    47    48    1
    76    47    49    1
    77    83    84    2
    78    83    82    1
    79    93    92    2
    80    90    91    1
    81    73    72   ar
    82    82    85    1
    83    72    74   ar
    84    92    91    1
    85    87    88    1
    86    87    86    1
    87    91    94    1
    88    85    86    1
    89    88    89    1
    90    94    95    1
