@<TRIPOS>MOLECULE
tmp/5mtkB00.pdb
 87 87 0 0 0
SMALL
GASTEIGER

@<TRIPOS>ATOM
      1  N         -6.5070  -24.3190   -9.7990 N.3    21  VAL21      -0.1231
      2  CA        -5.5160  -25.1390   -9.0790 C.3    21  VAL21       0.1692
      3  C         -4.1730  -24.4250   -8.8250 C.2    21  VAL21       0.2593
      4  O         -3.7560  -23.5780   -9.6190 O.2    21  VAL21      -0.2718
      5  CB        -5.2840  -26.5270   -9.7460 C.3    21  VAL21       0.0266
      6  CG1       -6.5100  -27.4240   -9.6100 C.3    21  VAL21       0.0020
      7  CG2       -4.8590  -26.3960  -11.2090 C.3    21  VAL21       0.0020
      8  N         -3.4940  -24.8100   -7.7210 N.am   22  SER22      -0.1938
      9  CA        -2.1620  -24.3360   -7.3280 C.3    22  SER22       0.2055
     10  C         -1.1330  -25.3800   -7.7800 C.2    22  SER22       0.2643
     11  O         -1.4320  -26.5760   -7.7660 O.2    22  SER22      -0.2714
     12  CB        -2.0730  -24.1650   -5.8140 C.3    22  SER22       0.2130
     13  OG        -3.0030  -23.2110   -5.3290 O.3    22  SER22      -0.2179
     14  N          0.0750  -24.9350   -8.1710 N.am   23  TRP23      -0.1959
     15  CA         1.1320  -25.8360   -8.6380 C.3    23  TRP23       0.1771
     16  C          2.2130  -26.0880   -7.5820 C.2    23  TRP23       0.2620
     17  O          2.7800  -25.1380   -7.0360 O.2    23  TRP23      -0.2715
     18  CB         1.7310  -25.3480   -9.9670 C.3    23  TRP23       0.0590
     19  CG         0.7460  -25.3680  -11.0950 C.ar   23  TRP23       0.0006
     20  CD1       -0.0240  -24.3310  -11.5280 C.ar   23  TRP23       0.0946
     21  CD2        0.3750  -26.5030  -11.8870 C.ar   23  TRP23       0.0152
     22  NE1       -0.8280  -24.7390  -12.5670 N.ar   23  TRP23      -0.2442
     23  CE2       -0.6080  -26.0710  -12.8050 C.ar   23  TRP23       0.0810
     24  CE3        0.7880  -27.8460  -11.9210 C.ar   23  TRP23       0.0012
     25  CZ2       -1.1860  -26.9310  -13.7440 C.ar   23  TRP23       0.0191
     26  CZ3        0.2170  -28.6960  -12.8540 C.ar   23  TRP23       0.0001
     27  CH2       -0.7570  -28.2390  -13.7520 C.ar   23  TRP23       0.0015
     28  N          2.4790  -27.3810   -7.2980 N.am   24  ARG24      -0.1963
     29  CA         3.4580  -27.8510   -6.3150 C.3    24  ARG24       0.1729
     30  C          4.4990  -28.7720   -6.9750 C.2    24  ARG24       0.2616
     31  O          4.1290  -29.7480   -7.6310 O.2    24  ARG24      -0.2715
     32  CB         2.7260  -28.5540   -5.1470 C.3    24  ARG24       0.0348
     33  CG         3.5890  -29.4710   -4.2650 C.3    24  ARG24       0.0492
     34  CD         2.7740  -30.3410   -3.3110 C.3    24  ARG24       0.2205
     35  NE         1.5810  -30.9250   -3.9360 N.pl3  24  ARG24      -0.0865
     36  CZ         1.5510  -32.0730   -4.6060 C.cat  24  ARG24       0.5346
     37  NH1        2.6570  -32.7920   -4.7580 N.pl3  24  ARG24       0.1354
     38  NH2        0.4150  -32.5100   -5.1330 N.pl3  24  ARG24       0.1354
     39  N          5.7950  -28.4630   -6.7840 N.am   25  HIS25      -0.1960
     40  CA         6.8970  -29.2560   -7.3360 C.3    25  HIS25       0.1772
     41  C          7.1680  -30.5010   -6.4670 C.2    25  HIS25       0.2462
     42  O          7.2430  -30.3730   -5.2390 O.2    25  HIS25      -0.2730
     43  CB         8.1680  -28.4080   -7.5000 C.3    25  HIS25       0.0785
     44  CG         9.1460  -28.9800   -8.4790 C.ar   25  HIS25       0.0821
     45  ND1       10.0490  -29.9630   -8.1110 N.ar   25  HIS25      -0.2267
     46  CD2        9.3240  -28.6930   -9.7890 C.ar   25  HIS25       0.1154
     47  CE1       10.7460  -30.2370   -9.2020 C.ar   25  HIS25       0.1986
     48  NE2       10.3440  -29.5010  -10.2380 N.ar   25  HIS25      -0.2212
     49  N          7.3190  -31.7070   -7.0780 N.am   26  PRO26      -0.2727
     50  CA         7.5370  -32.9210   -6.2690 C.3    26  PRO26       0.1402
     51  C          8.8510  -32.9880   -5.4850 C.2    26  PRO26       0.2269
     52  O          8.8990  -33.7020   -4.4850 O.2    26  PRO26      -0.2865
     53  CB         7.4290  -34.0570   -7.2900 C.3    26  PRO26       0.0296
     54  CG         7.7500  -33.4320   -8.5910 C.3    26  PRO26       0.0237
     55  CD         7.2280  -32.0320   -8.5160 C.3    26  PRO26       0.0939
     56  N         11.2270  -29.8020   -5.4450 N.3    28  MET28      -0.1245
     57  CA        11.5910  -28.4260   -5.0900 C.3    28  MET28       0.1570
     58  C         10.6150  -27.7690   -4.1110 C.2    28  MET28       0.2261
     59  O         11.0360  -26.9550   -3.2880 O.2    28  MET28      -0.2867
     60  CB        11.7980  -27.5520   -6.3410 C.3    28  MET28       0.0387
     61  CG        13.0090  -27.9660   -7.1750 C.3    28  MET28       0.0595
     62  SD        13.6510  -26.6830   -8.2890 S.3    28  MET28      -0.1393
     63  CE        12.4930  -26.8030   -9.6410 C.3    28  MET28       0.0692
     64  N          6.2280  -26.2590   -3.4270 N.3    30  SER30      -0.1202
     65  CA         5.2070  -25.3230   -3.9130 C.3    30  SER30       0.2020
     66  C          5.8050  -24.0110   -4.3990 C.2    30  SER30       0.2618
     67  O          6.5880  -23.3860   -3.6790 O.2    30  SER30      -0.2717
     68  CB         4.1660  -25.0470   -2.8300 C.3    30  SER30       0.2103
     69  OG         3.4270  -26.2130   -2.5010 O.3    30  SER30      -0.2182
     70  N          5.4560  -23.6220   -5.6410 N.am   31  VAL31      -0.1979
     71  CA         5.9260  -22.4040   -6.3100 C.3    31  VAL31       0.1595
     72  C          5.5490  -21.1650   -5.4940 C.2    31  VAL31       0.2287
     73  O          6.3910  -20.2890   -5.3070 O.2    31  VAL31      -0.2864
     74  CB         5.4530  -22.3130   -7.7940 C.3    31  VAL31       0.0276
     75  CG1        6.0080  -21.0690   -8.4860 C.3    31  VAL31       0.0022
     76  CG2        5.8380  -23.5650   -8.5790 C.3    31  VAL31       0.0022
     77  N          2.2980  -23.7840  -16.8040 N.3    66  ARG66      -0.1245
     78  CA         1.5110  -23.8150  -15.5700 C.3    66  ARG66       0.1563
     79  C          1.2220  -22.3740  -15.1540 C.2    66  ARG66       0.2260
     80  O          2.1390  -21.5500  -15.1250 O.2    66  ARG66      -0.2867
     81  CB         2.2710  -24.5500  -14.4510 C.3    66  ARG66       0.0307
     82  CG         2.5720  -26.0200  -14.7490 C.3    66  ARG66       0.0489
     83  CD         3.7100  -26.5660  -13.8960 C.3    66  ARG66       0.2205
     84  NE         4.9930  -25.9230  -14.1990 N.pl3  66  ARG66      -0.0865
     85  CZ         5.8390  -26.3290  -15.1430 C.cat  66  ARG66       0.5346
     86  NH1        5.5590  -27.3960  -15.8820 N.pl3  66  ARG66       0.1354
     87  NH2        6.9770  -25.6800  -15.3450 N.pl3  66  ARG66       0.1354
@<TRIPOS>BOND
     1    77    78    1
     2    86    85    1
     3    78    79    1
     4    78    81    1
     5    87    85    1
     6    79    80    2
     7    85    84    2
     8    82    81    1
     9    82    83    1
    10    84    83    1
    11    27    25   ar
    12    27    26   ar
    13    25    23   ar
    14    26    24   ar
    15    23    22   ar
    16    23    21   ar
    17    22    20   ar
    18    24    21   ar
    19    21    19   ar
    20    20    19   ar
    21     7     5    1
    22    19    18    1
    23    48    46   ar
    24    48    47   ar
    25    18    15    1
    26     1     2    1
    27    46    44   ar
    28     5     6    1
    29     5     2    1
    30    63    62    1
    31     4     3    2
    32    47    45   ar
    33     2     3    1
    34     3     8   am
    35    15    14    1
    36    15    16    1
    37    54    55    1
    38    54    53    1
    39    76    74    1
    40    55    49    1
    41    75    74    1
    42    44    45   ar
    43    44    43    1
    44    62    61    1
    45    14    10   am
    46    74    71    1
    47    10    11    2
    48    10     9    1
    49     8     9    1
    50    31    30    2
    51    16    28   am
    52    16    17    2
    53    43    40    1
    54    40    39    1
    55    40    41    1
    56     9    12    1
    57    28    29    1
    58    53    50    1
    59    61    60    1
    60    49    41   am
    61    49    50    1
    62    30    39   am
    63    30    29    1
    64    41    42    2
    65    60    57    1
    66    29    32    1
    67    71    70    1
    68    71    72    1
    69    50    51    1
    70    12    13    1
    71    70    66   am
    72    72    73    2
    73    51    52    2
    74    56    57    1
    75    32    33    1
    76    38    36    1
    77    57    58    1
    78    37    36    1
    79    36    35    2
    80    66    65    1
    81    66    67    2
    82    33    34    1
    83    58    59    2
    84    35    34    1
    85    65    64    1
    86    65    68    1
    87    68    69    1
