@<TRIPOS>MOLECULE
tmp/5mtrE01.pdb
 188 180 0 0 0
SMALL
GASTEIGER

@<TRIPOS>ATOM
      1  N         66.7920   50.4340  127.5710 N.3    93  SER93      -0.1202
      2  CA        65.5880   49.8910  128.1990 C.3    93  SER93       0.2020
      3  C         64.3680   50.4140  127.4540 C.2    93  SER93       0.2619
      4  O         63.5970   51.1660  127.9940 O.2    93  SER93      -0.2717
      5  CB        65.5570   50.2100  129.6910 C.3    93  SER93       0.2103
      6  OG        64.4220   49.6720  130.3450 O.3    93  SER93      -0.2182
      7  N         64.2430   49.9960  126.2150 N.am   94  ILE94      -0.1965
      8  CA        63.3890   50.6350  125.2440 C.3    94  ILE94       0.1727
      9  C         62.6910   49.5920  124.3990 C.2    94  ILE94       0.2617
     10  O         63.3260   48.6280  124.0290 O.2    94  ILE94      -0.2715
     11  CB        64.2650   51.5700  124.3780 C.3    94  ILE94       0.0290
     12  CG1       64.4670   52.8860  125.0790 C.3    94  ILE94       0.0022
     13  CG2       63.7320   51.8290  123.0080 C.3    94  ILE94       0.0023
     14  CD1       65.5190   53.7140  124.3180 C.3    94  ILE94       0.0001
     15  N         61.4300   49.7970  124.1010 N.am   95  GLY95      -0.1940
     16  CA        60.6820   48.8450  123.3120 C.3    95  GLY95       0.2014
     17  C         59.3710   49.4190  122.8360 C.2    95  GLY95       0.2639
     18  O         58.8960   50.3970  123.4200 O.2    95  GLY95      -0.2714
     19  N         58.8470   48.8750  121.7410 N.am   96  PHE96      -0.1959
     20  CA        57.5960   49.2720  121.2160 C.3    96  PHE96       0.1771
     21  C         57.0900   48.2300  120.2230 C.2    96  PHE96       0.2619
     22  O         57.8760   47.6690  119.4920 O.2    96  PHE96      -0.2715
     23  CB        57.6520   50.6150  120.5220 C.3    96  PHE96       0.0574
     24  CG        56.2960   51.0630  120.0210 C.ar   96  PHE96      -0.0200
     25  CD1       55.2530   51.4060  120.9340 C.ar   96  PHE96      -0.0042
     26  CD2       55.9960   51.0190  118.6790 C.ar   96  PHE96      -0.0042
     27  CE1       54.0200   51.7790  120.4710 C.ar   96  PHE96      -0.0003
     28  CE2       54.7400   51.3690  118.2000 C.ar   96  PHE96      -0.0003
     29  CZ        53.7440   51.7610  119.0980 C.ar   96  PHE96      -0.0000
     30  N         55.7930   47.9640  120.2220 N.am   97  MET97      -0.1977
     31  CA        55.1500   47.2600  119.1470 C.3    97  MET97       0.1605
     32  C         53.7410   47.7660  118.9790 C.2    97  MET97       0.2287
     33  O         53.0390   47.8800  119.9590 O.2    97  MET97      -0.2864
     34  CB        55.1120   45.7760  119.4380 C.3    97  MET97       0.0413
     35  CG        54.5770   44.9280  118.2480 C.3    97  MET97       0.0598
     36  SD        55.6380   44.9300  116.7820 S.3    97  MET97      -0.1393
     37  CE        57.1170   44.2220  117.4300 C.3    97  MET97       0.0692
     38  N         50.3410   42.3610  118.7260 N.3   102  MET102     -0.1245
     39  CA        50.3080   41.8790  120.1420 C.3   102  MET102      0.1570
     40  C         48.8910   41.4480  120.5270 C.2   102  MET102      0.2261
     41  O         47.9500   41.8130  119.8990 O.2   102  MET102     -0.2867
     42  CB        50.6530   42.9900  121.1080 C.3   102  MET102      0.0387
     43  CG        51.8390   43.7880  120.8120 C.3   102  MET102      0.0595
     44  SD        53.2390   42.7720  121.1730 S.3   102  MET102     -0.1393
     45  CE        52.9900   42.5600  122.9480 C.3   102  MET102      0.0692
     46  N         63.2990   39.8190  126.8650 N.3   148  PHE148     -0.1241
     47  CA        62.3150   38.9100  127.4020 C.3   148  PHE148      0.1605
     48  C         62.4250   37.6270  126.5760 C.2   148  PHE148      0.2264
     49  O         62.2320   37.6710  125.3560 O.2   148  PHE148     -0.2867
     50  CB        60.8970   39.5020  127.3160 C.3   148  PHE148      0.0534
     51  CG        59.8560   38.7320  128.0850 C.ar  148  PHE148     -0.0203
     52  CD1       59.8820   38.6870  129.4560 C.ar  148  PHE148     -0.0042
     53  CD2       58.8350   38.0520  127.4200 C.ar  148  PHE148     -0.0042
     54  CE1       58.9200   37.9950  130.1690 C.ar  148  PHE148     -0.0003
     55  CE2       57.8660   37.3470  128.1150 C.ar  148  PHE148     -0.0003
     56  CZ        57.9130   37.3260  129.4920 C.ar  148  PHE148     -0.0000
     57  N         54.7770   32.0500  122.5000 N.3   154  MET154     -0.1231
     58  CA        53.8920   32.1950  123.6500 C.3   154  MET154      0.1687
     59  C         52.6310   32.9580  123.2740 C.2   154  MET154      0.2434
     60  O         52.6230   33.6460  122.2890 O.2   154  MET154     -0.2733
     61  CB        54.6570   32.8840  124.8180 C.3   154  MET154      0.0400
     62  CG        54.9790   34.3130  124.5470 C.3   154  MET154      0.0596
     63  SD        56.0360   34.9630  125.8990 S.3   154  MET154     -0.1393
     64  CE        57.6460   34.4320  125.3700 C.3   154  MET154      0.0692
     65  N         51.5650   32.8530  124.0840 N.am  155  PRO155     -0.2718
     66  CA        50.4160   33.7230  123.7870 C.3   155  PRO155      0.1535
     67  C         50.7800   35.2090  123.9280 C.2   155  PRO155      0.2598
     68  O         51.6640   35.5680  124.7030 O.2   155  PRO155     -0.2715
     69  CB        49.3950   33.3440  124.8630 C.3   155  PRO155      0.0310
     70  CG        49.9240   32.1080  125.5340 C.3   155  PRO155      0.0237
     71  CD        51.4230   32.1240  125.3650 C.3   155  PRO155      0.0939
     72  N         50.1060   36.0360  123.1150 N.am  156  ALA156     -0.1964
     73  CA        50.0470   37.5040  123.2780 C.3   156  ALA156      0.1728
     74  C         51.2850   38.2830  122.8930 C.2   156  ALA156      0.2616
     75  O         51.1430   39.3390  122.2730 O.2   156  ALA156     -0.2715
     76  CB        49.6340   37.8980  124.7020 C.3   156  ALA156      0.0334
     77  N         52.4630   37.8040  123.2680 N.am  157  TYR157     -0.1974
     78  CA        53.7040   38.5410  122.9990 C.3   157  TYR157      0.1639
     79  C         53.9990   38.6430  121.4990 C.2   157  TYR157      0.2290
     80  O         54.5790   39.5980  121.0290 O.2   157  TYR157     -0.2864
     81  CB        54.8780   37.9240  123.7740 C.3   157  TYR157      0.0560
     82  CG        56.0310   38.8510  124.0630 C.ar  157  TYR157     -0.0198
     83  CD1       55.8480   40.0210  124.7880 C.ar  157  TYR157     -0.0009
     84  CD2       57.3230   38.5180  123.7100 C.ar  157  TYR157     -0.0009
     85  CE1       56.8970   40.8640  125.1100 C.ar  157  TYR157      0.0417
     86  CE2       58.3760   39.3390  123.9960 C.ar  157  TYR157      0.0417
     87  CZ        58.1670   40.5250  124.7150 C.ar  157  TYR157      0.1957
     88  OH        59.2110   41.3400  125.0070 O.3   157  TYR157     -0.2866
     89  N         56.3330   40.9860  119.2120 N.3   160  MET160     -0.1245
     90  CA        57.3970   41.4590  120.0970 C.3   160  MET160      0.1570
     91  C         58.3730   40.3250  120.3760 C.2   160  MET160      0.2261
     92  O         59.5340   40.5760  120.5440 O.2   160  MET160     -0.2867
     93  CB        56.8520   42.0010  121.4270 C.3   160  MET160      0.0387
     94  CG        57.8970   42.7620  122.2350 C.3   160  MET160      0.0595
     95  SD        58.4940   44.2220  121.3310 S.3   160  MET160     -0.1393
     96  CE        59.6110   44.8940  122.5980 C.3   160  MET160      0.0692
     97  N         62.3680   40.5820  119.9910 N.3   164  LYS164     -0.1245
     98  CA        63.3560   40.1700  121.0160 C.3   164  LYS164      0.1561
     99  C         64.3800   39.1650  120.4430 C.2   164  LYS164      0.2260
    100  O         65.5440   39.2660  120.7180 O.2   164  LYS164     -0.2867
    101  CB        62.6660   39.6090  122.2900 C.3   164  LYS164      0.0271
    102  CG        61.9430   40.6420  123.1250 C.3   164  LYS164      0.0035
    103  CD        62.8440   41.8280  123.5320 C.3   164  LYS164      0.0206
    104  CE        62.1950   42.6920  124.5960 C.3   164  LYS164      0.1093
    105  NZ        62.8980   43.9570  124.8230 N.3   164  LYS164     -0.1314
    106  N         58.6970   38.9890  134.2490 N.3   192  PRO192     -0.2102
    107  CA        57.6790   40.0080  134.0460 C.3   192  PRO192      0.1504
    108  C         57.6090   41.0080  135.2120 C.2   192  PRO192      0.2575
    109  O         57.6770   40.6080  136.3750 O.2   192  PRO192     -0.2718
    110  CB        56.4040   39.2210  133.8730 C.3   192  PRO192      0.0282
    111  CG        56.6500   37.9420  134.6280 C.3   192  PRO192      0.0208
    112  CD        58.0890   37.6710  134.4760 C.3   192  PRO192      0.0893
    113  N         57.5190   42.2750  134.8530 N.am  193  ILE193     -0.1980
    114  CA        57.4670   43.3860  135.7970 C.3   193  ILE193      0.1595
    115  C         56.3160   44.3020  135.3660 C.2   193  ILE193      0.2287
    116  O         56.1790   44.6460  134.2080 O.2   193  ILE193     -0.2864
    117  CB        58.7700   44.1950  135.8150 C.3   193  ILE193      0.0276
    118  CG1       59.9790   43.3320  136.2390 C.3   193  ILE193      0.0022
    119  CG2       58.6670   45.4170  136.7200 C.3   193  ILE193      0.0022
    120  CD1       59.9560   42.8450  137.6650 C.3   193  ILE193      0.0001
    121  N         54.7640   47.3000  134.4390 N.3   195  THR195     -0.1218
    122  CA        55.1730   48.5600  133.9130 C.3   195  THR195      0.1862
    123  C         54.1230   49.1110  132.9720 C.2   195  THR195      0.2287
    124  O         53.2030   48.4190  132.6250 O.2   195  THR195     -0.2866
    125  CB        56.4680   48.3780  133.0580 C.3   195  THR195      0.1770
    126  OG1       56.1570   47.4610  131.9920 O.3   195  THR195     -0.2211
    127  CG2       57.6000   47.8730  133.9030 C.3   195  THR195      0.0375
    128  N         54.4670   49.5880  129.7490 N.3   197  ALA197     -0.1231
    129  CA        54.4320   48.7060  128.5560 C.3   197  ALA197      0.1694
    130  C         53.6530   47.4360  128.8040 C.2   197  ALA197      0.2591
    131  O         52.8640   46.9890  127.9620 O.2   197  ALA197     -0.2718
    132  CB        55.8200   48.3610  128.0510 C.3   197  ALA197      0.0304
    133  N         53.8180   46.8620  129.9750 N.am  198  MET198     -0.1979
    134  CA        53.0410   45.6580  130.2960 C.3   198  MET198      0.1605
    135  C         51.5310   45.9210  130.2310 C.2   198  MET198      0.2287
    136  O         50.7720   45.1660  129.7460 O.2   198  MET198     -0.2864
    137  CB        53.3890   45.0810  131.6730 C.3   198  MET198      0.0413
    138  CG        52.4750   43.8700  131.9260 C.3   198  MET198      0.0598
    139  SD        52.5840   43.1140  133.5280 S.3   198  MET198     -0.1393
    140  CE        54.2100   42.2880  133.4890 C.3   198  MET198      0.0692
    141  N         50.6810   48.2710  126.5400 N.3   201  ILE201     -0.1231
    142  CA        50.9580   47.5590  125.2280 C.3   201  ILE201      0.1692
    143  C         50.3580   46.1500  125.3040 C.2   201  ILE201      0.2591
    144  O         49.5770   45.7460  124.4160 O.2   201  ILE201     -0.2718
    145  CB        52.3930   47.5110  124.7840 C.3   201  ILE201      0.0266
    146  CG1       52.9660   48.9590  124.7440 C.3   201  ILE201      0.0019
    147  CG2       52.4090   46.8300  123.4150 C.3   201  ILE201      0.0020
    148  CD1       54.2800   49.2200  123.9890 C.3   201  ILE201      0.0001
    149  N         50.7770   45.3510  126.2620 N.am  202  VAL202     -0.1980
    150  CA        50.4260   43.9120  126.2490 C.3   202  VAL202      0.1595
    151  C         48.9720   43.7420  126.7320 C.2   202  VAL202      0.2287
    152  O         48.1080   43.1760  126.0220 O.2   202  VAL202     -0.2864
    153  CB        51.3250   43.0750  127.1150 C.3   202  VAL202      0.0276
    154  CG1       50.9640   41.5910  127.0070 C.3   202  VAL202      0.0022
    155  CG2       52.7960   43.2340  126.8220 C.3   202  VAL202      0.0022
    156  N         45.4090   42.6310  124.6630 N.3   206  LEU206     -0.1245
    157  CA        44.6520   41.4910  125.1240 C.3   206  LEU206      0.1561
    158  C         43.1320   41.7240  125.4260 C.2   206  LEU206      0.2260
    159  O         42.3820   40.7490  125.6890 O.2   206  LEU206     -0.2867
    160  CB        45.3000   41.0050  126.4130 C.3   206  LEU206      0.0270
    161  CG        46.4530   39.9690  126.2410 C.3   206  LEU206      0.0019
    162  CD1       47.0860   39.6810  127.5900 C.3   206  LEU206      0.0001
    163  CD2       46.0730   38.6230  125.5560 C.3   206  LEU206      0.0001
    164  N         44.9990   36.4070  131.7100 N.3   213  GLN213     -0.1231
    165  CA        46.2720   36.0750  131.0510 C.3   213  GLN213      0.1698
    166  C         47.4180   36.4870  131.9640 C.2   213  GLN213      0.2592
    167  O         48.3340   35.6620  132.2440 O.2   213  GLN213     -0.2718
    168  CB        46.4630   36.8380  129.7250 C.3   213  GLN213      0.0381
    169  CG        47.6720   36.1920  128.9890 C.3   213  GLN213      0.0905
    170  CD        47.4860   34.6720  128.4430 C.2   213  GLN213      0.2608
    171  OE1       46.8490   34.4460  127.3740 O.2   213  GLN213     -0.2717
    172  NE2       48.0700   33.6320  129.1940 N.am  213  GLN213     -0.0878
    173  N         47.3890   37.7150  132.4730 N.am  214  ILE214     -0.1980
    174  CA        48.5120   38.1460  133.2980 C.3   214  ILE214      0.1595
    175  C         48.6020   37.3550  134.5940 C.2   214  ILE214      0.2287
    176  O         49.6550   37.0810  135.1140 O.2   214  ILE214     -0.2864
    177  CB        48.4280   39.6460  133.6370 C.3   214  ILE214      0.0276
    178  CG1       48.4710   40.4790  132.3400 C.3   214  ILE214      0.0022
    179  CG2       49.6210   40.0990  134.3980 C.3   214  ILE214      0.0022
    180  CD1       49.4980   40.2090  131.2630 C.3   214  ILE214      0.0001
    181  N         50.2190   33.9710  133.8650 N.3   217  LEU217     -0.1245
    182  CA        51.6450   34.1710  133.6480 C.3   217  LEU217      0.1561
    183  C         52.4280   34.4480  134.9880 C.2   217  LEU217      0.2260
    184  O         53.5230   33.9710  135.1580 O.2   217  LEU217     -0.2867
    185  CB        51.8500   35.3400  132.7010 C.3   217  LEU217      0.0270
    186  CG        53.1920   36.0720  132.8310 C.3   217  LEU217      0.0019
    187  CD1       54.0310   35.2600  131.8380 C.3   217  LEU217      0.0001
    188  CD2       53.2940   37.5290  132.4730 C.3   217  LEU217      0.0001
@<TRIPOS>BOND
     1    36    37    1
     2    36    35    1
     3    28    26   ar
     4    28    29   ar
     5    35    34    1
     6    26    24   ar
     7    38    39    1
     8    32    31    1
     9    32    33    2
    10    29    27   ar
    11    31    34    1
    12    31    30    1
    13    89    90    1
    14    22    21    2
    15    41    40    2
    16    97    98    1
    17    24    23    1
    18    24    25   ar
    19    90    91    1
    20    90    93    1
    21    39    40    1
    22    39    42    1
    23    30    21   am
    24    21    20    1
    25    91    92    2
    26    99   100    2
    27    99    98    1
    28    27    25   ar
    29    23    20    1
    30    43    42    1
    31    43    44    1
    32    98   101    1
    33    80    79    2
    34    44    45    1
    35    20    19    1
    36    95    94    1
    37    95    96    1
    38    93    94    1
    39    79    78    1
    40    19    17   am
    41    75    74    2
    42    60    59    2
    43   101   102    1
    44    57    58    1
    45    17    16    1
    46    17    18    2
    47    74    77   am
    48    74    73    1
    49    78    77    1
    50    78    81    1
    51    13    11    1
    52    72    73    1
    53    72    67   am
    54   102   103    1
    55    59    58    1
    56    59    65   am
    57    73    76    1
    58    16    15    1
    59   147   145    1
    60   103   104    1
    61    58    61    1
    62    84    86   ar
    63    84    82   ar
    64    81    82    1
    65    66    67    1
    66    66    65    1
    67    66    69    1
    68    67    68    2
    69   148   146    1
    70    86    87   ar
    71    10     9    2
    72    82    83   ar
    73    65    71    1
    74    15     9   am
    75    14    12    1
    76    11    12    1
    77    11     8    1
    78     9     8    1
    79   144   143    2
    80    62    61    1
    81    62    63    1
    82   104   105    1
    83   156   157    1
    84    87    88    1
    85    87    85   ar
    86   146   145    1
    87   145   142    1
    88    83    85   ar
    89    69    70    1
    90   157   158    1
    91   157   160    1
    92   142   143    1
    93   142   141    1
    94     8     7    1
    95   143   149   am
    96    49    48    2
    97    71    70    1
    98    64    63    1
    99   158   159    2
   100   163   161    1
   101   152   151    2
   102     7     3   am
   103   161   160    1
   104   161   162    1
   105   150   149    1
   106   150   151    1
   107   150   153    1
   108    48    47    1
   109   155   153    1
   110    46    47    1
   111   154   153    1
   112    50    47    1
   113    50    51    1
   114   171   170    2
   115    53    51   ar
   116    53    55   ar
   117     3     4    2
   118     3     2    1
   119     1     2    1
   120   131   130    2
   121   132   129    1
   122    51    52   ar
   123    55    56   ar
   124     2     5    1
   125   170   169    1
   126   170   172   am
   127   129   130    1
   128   129   128    1
   129   130   133   am
   130   169   168    1
   131    52    54   ar
   132    56    54   ar
   133     5     6    1
   134   168   165    1
   135   136   135    2
   136   133   134    1
   137   135   134    1
   138   134   137    1
   139   165   164    1
   140   165   166    1
   141   180   178    1
   142   137   138    1
   143   187   186    1
   144   138   139    1
   145   166   167    2
   146   166   173   am
   147   126   125    1
   148   178   177    1
   149   173   174    1
   150   188   186    1
   151   124   123    2
   152   185   186    1
   153   185   182    1
   154   123   122    1
   155   125   127    1
   156   125   122    1
   157   174   177    1
   158   174   175    1
   159   140   139    1
   160   177   179    1
   161   182   181    1
   162   182   183    1
   163   110   107    1
   164   110   111    1
   165   122   121    1
   166   107   106    1
   167   107   108    1
   168   116   115    2
   169   106   112    1
   170   112   111    1
   171   175   176    2
   172   113   108   am
   173   113   114    1
   174   183   184    2
   175   108   109    2
   176   115   114    1
   177   114   117    1
   178   117   118    1
   179   117   119    1
   180   118   120    1
