@<TRIPOS>MOLECULE
tmp/5mtsA00.pdb
 130 124 0 0 0
SMALL
GASTEIGER

@<TRIPOS>ATOM
      1  N        -34.6400    2.2930   10.0460 N.3     1  PHE1       -0.1241
      2  CA       -33.7120    2.0480    8.9540 C.3     1  PHE1        0.1605
      3  C        -33.6270    3.2370    7.9820 C.2     1  PHE1        0.2264
      4  O        -34.6350    3.6550    7.3990 O.2     1  PHE1       -0.2867
      5  CB       -34.1100    0.7890    8.1940 C.3     1  PHE1        0.0534
      6  CG       -33.1940    0.4710    7.0530 C.ar    1  PHE1       -0.0203
      7  CD1      -33.3290    1.1160    5.8240 C.ar    1  PHE1       -0.0042
      8  CD2      -32.1830   -0.4610    7.2090 C.ar    1  PHE1       -0.0042
      9  CE1      -32.4760    0.8340    4.7760 C.ar    1  PHE1       -0.0003
     10  CE2      -31.3220   -0.7470    6.1550 C.ar    1  PHE1       -0.0003
     11  CZ       -31.4750   -0.1020    4.9370 C.ar    1  PHE1       -0.0000
     12  N        -35.8580    7.4290    7.0820 N.3    13  ILE13      -0.1231
     13  CA       -36.7420    6.3040    7.3690 C.3    13  ILE13       0.1692
     14  C        -37.9520    6.3540    6.4490 C.2    13  ILE13       0.2592
     15  O        -38.6330    7.3810    6.3450 O.2    13  ILE13      -0.2718
     16  CB       -37.1610    6.3280    8.8550 C.3    13  ILE13       0.0266
     17  CG1      -36.0920    5.6660    9.7280 C.3    13  ILE13       0.0019
     18  CG2      -38.5190    5.6630    9.0590 C.3    13  ILE13       0.0020
     19  CD1      -36.3320    5.8100   11.2020 C.3    13  ILE13       0.0001
     20  N        -38.2290    5.2350    5.7830 N.am   14  GLY14      -0.1957
     21  CA       -39.3540    5.1240    4.8770 C.3    14  GLY14       0.1869
     22  C        -38.9830    5.1340    3.4110 C.2    14  GLY14       0.2309
     23  O        -39.8350    4.8100    2.5720 O.2    14  GLY14      -0.2863
     24  N        -29.6080   -0.5430   10.8550 N.3    46  ASN46      -0.1225
     25  CA       -30.8100   -0.9030   11.5870 C.3    46  ASN46       0.1785
     26  C        -31.0360    0.0960   12.7230 C.2    46  ASN46       0.2597
     27  O        -30.0950    0.4440   13.4460 O.2    46  ASN46      -0.2718
     28  CB       -30.6420   -2.3150   12.1280 C.3    46  ASN46       0.1169
     29  CG       -31.9130   -2.8950   12.6460 C.2    46  ASN46       0.2627
     30  OD1      -32.7110   -2.2250   13.3120 O.2    46  ASN46      -0.2716
     31  ND2      -32.1130   -4.1740   12.3530 N.am   46  ASN46      -0.0877
     32  N        -32.2800    0.5630   12.8820 N.am   47  ASP47      -0.1960
     33  CA       -32.6020    1.6070   13.8500 C.3    47  ASP47       0.1840
     34  C        -33.1740    1.0590   15.1530 C.2    47  ASP47       0.2622
     35  O        -33.4730    1.8400   16.0570 O.2    47  ASP47      -0.2715
     36  CB       -33.5790    2.6240   13.2450 C.3    47  ASP47       0.1450
     37  CG       -32.8670    3.7740   12.5330 C.2    47  ASP47       0.3671
     38  OD1      -32.1450    4.5390   13.2130 O.co2  47  ASP47      -0.2456
     39  OD2      -33.0410    3.9310   11.3000 O.co2  47  ASP47      -0.2456
     40  N        -33.3330   -0.2560   15.2710 N.am   48  TYR48      -0.1974
     41  CA       -33.7300   -0.8800   16.5250 C.3    48  TYR48       0.1639
     42  C        -33.4180   -2.3650   16.4700 C.2    48  TYR48       0.2290
     43  O        -34.3350   -3.1870   16.5510 O.2    48  TYR48      -0.2864
     44  CB       -35.2210   -0.6830   16.8130 C.3    48  TYR48       0.0560
     45  CG       -35.5760   -0.9180   18.2650 C.ar   48  TYR48      -0.0198
     46  CD1      -35.3830    0.0840   19.2130 C.ar   48  TYR48      -0.0009
     47  CD2      -36.0790   -2.1440   18.6990 C.ar   48  TYR48      -0.0009
     48  CE1      -35.6980   -0.1210   20.5560 C.ar   48  TYR48       0.0417
     49  CE2      -36.3920   -2.3620   20.0410 C.ar   48  TYR48       0.0417
     50  CZ       -36.2040   -1.3430   20.9650 C.ar   48  TYR48       0.1957
     51  OH       -36.5140   -1.5380   22.2960 O.3    48  TYR48      -0.2866
     52  N        -35.0010   -5.6830   18.6210 N.3    51  THR51      -0.1203
     53  CA       -36.1620   -6.4650   18.2590 C.3    51  THR51       0.1994
     54  C        -36.1840   -6.8190   16.7830 C.2    51  THR51       0.2617
     55  O        -36.5680   -7.9370   16.4150 O.2    51  THR51      -0.2717
     56  CB       -37.3970   -5.6520   18.6460 C.3    51  THR51       0.1784
     57  OG1      -37.5470   -5.6960   20.0730 O.3    51  THR51      -0.2211
     58  CG2      -38.6320   -6.1760   17.9850 C.3    51  THR51       0.0376
     59  N        -35.6920   -5.9150   15.9410 N.am   52  ILE52      -0.1979
     60  CA       -35.9080   -5.9470   14.5060 C.3    52  ILE52       0.1595
     61  C        -34.6280   -6.3340   13.7820 C.2    52  ILE52       0.2287
     62  O        -33.5100   -6.0140   14.2070 O.2    52  ILE52      -0.2864
     63  CB       -36.4290   -4.5760   14.0340 C.3    52  ILE52       0.0276
     64  CG1      -37.6870   -4.2060   14.8220 C.3    52  ILE52       0.0022
     65  CG2      -36.7070   -4.5950   12.5420 C.3    52  ILE52       0.0022
     66  CD1      -38.3200   -2.9480   14.3790 C.3    52  ILE52       0.0001
     67  N        -33.2920   -6.0900    9.7140 N.3    54  ASP54      -0.1239
     68  CA       -33.6120   -5.4900    8.4230 C.3    54  ASP54       0.1674
     69  C        -32.9840   -6.2840    7.2740 C.2    54  ASP54       0.2266
     70  O        -31.8270   -6.7060    7.3480 O.2    54  ASP54      -0.2867
     71  CB       -33.1540   -4.0270    8.3780 C.3    54  ASP54       0.1410
     72  CG       -34.0210   -3.1070    9.2360 C.2    54  ASP54       0.3668
     73  OD1      -35.2510   -3.3080    9.2710 O.co2  54  ASP54      -0.2456
     74  OD2      -33.4840   -2.1690    9.8670 O.co2  54  ASP54      -0.2456
     75  N        -35.6800   -2.2910    1.1490 N.3   133  GLN133     -0.1245
     76  CA       -35.5500   -2.7160    2.5360 C.3   133  GLN133      0.1566
     77  C        -36.8950   -3.2140    3.0480 C.2   133  GLN133      0.2260
     78  O        -37.8870   -2.4680    3.0440 O.2   133  GLN133     -0.2867
     79  CB       -35.0490   -1.5710    3.4220 C.3   133  GLN133      0.0367
     80  CG       -35.0930   -1.8950    4.9310 C.3   133  GLN133      0.0905
     81  CD       -36.1260   -1.0780    5.7070 C.2   133  GLN133      0.2608
     82  OE1      -36.6410   -0.0750    5.2120 O.2   133  GLN133     -0.2717
     83  NE2      -36.4400   -1.5170    6.9270 N.am  133  GLN133     -0.0878
     84  N        -38.1620   -6.2340    6.3860 N.3   135  ASN135     -0.1240
     85  CA       -37.5940   -6.6690    7.6610 C.3   135  ASN135      0.1653
     86  C        -38.2280   -7.9920    8.0860 C.2   135  ASN135      0.2266
     87  O        -38.8380   -8.6940    7.2720 O.2   135  ASN135     -0.2867
     88  CB       -37.7480   -5.5700    8.7310 C.3   135  ASN135      0.1155
     89  CG       -39.1920   -5.2800    9.0760 C.2   135  ASN135      0.2627
     90  OD1      -40.0590   -6.1580    9.0090 O.2   135  ASN135     -0.2716
     91  ND2      -39.4620   -4.0350    9.4500 N.am  135  ASN135     -0.0877
     92  N        -40.2160   -8.0440   10.9940 N.3   137  TYR137     -0.1227
     93  CA       -40.9780   -7.5270   12.1190 C.3   137  TYR137      0.1736
     94  C        -42.3610   -7.0340   11.7050 C.2   137  TYR137      0.2595
     95  O        -43.3720   -7.4710   12.2650 O.2   137  TYR137     -0.2718
     96  CB       -40.1690   -6.4090   12.7810 C.3   137  TYR137      0.0548
     97  CG       -40.8440   -5.7220   13.9480 C.ar  137  TYR137     -0.0200
     98  CD1      -40.9150   -6.3270   15.1960 C.ar  137  TYR137     -0.0009
     99  CD2      -41.3790   -4.4510   13.8060 C.ar  137  TYR137     -0.0009
    100  CE1      -41.5350   -5.6880   16.2620 C.ar  137  TYR137      0.0417
    101  CE2      -41.9860   -3.8020   14.8670 C.ar  137  TYR137      0.0417
    102  CZ       -42.0560   -4.4220   16.0900 C.ar  137  TYR137      0.1957
    103  OH       -42.6530   -3.7610   17.1310 O.3   137  TYR137     -0.2866
    104  N        -42.4300   -6.1220   10.7390 N.am  138  ASN138     -0.1974
    105  CA       -43.7330   -5.6650   10.2710 C.3   138  ASN138      0.1688
    106  C        -43.8120   -5.7380    8.7520 C.2   138  ASN138      0.2292
    107  O        -42.9940   -6.4140    8.1160 O.2   138  ASN138     -0.2864
    108  CB       -44.0320   -4.2560   10.7840 C.3   138  ASN138      0.1181
    109  CG       -42.9730   -3.2530   10.3980 C.2   138  ASN138      0.2629
    110  OD1      -42.0520   -3.5590    9.6360 O.2   138  ASN138     -0.2716
    111  ND2      -43.0850   -2.0440   10.9370 N.am  138  ASN138     -0.0877
    112  N        -43.4080   -3.3980    6.4920 N.3   140  ASP140     -0.1239
    113  CA       -42.6960   -2.3470    5.7810 C.3   140  ASP140      0.1674
    114  C        -41.9760   -2.8960    4.5530 C.2   140  ASP140      0.2266
    115  O        -41.4370   -4.0070    4.5630 O.2   140  ASP140     -0.2867
    116  CB       -41.7120   -1.6640    6.7320 C.3   140  ASP140      0.1410
    117  CG       -42.4190   -0.9060    7.8550 C.2   140  ASP140      0.3668
    118  OD1      -43.6550   -1.0600    7.9820 O.co2 140  ASP140     -0.2456
    119  OD2      -41.7450   -0.1720    8.6190 O.co2 140  ASP140     -0.2456
    120  N        -39.8130   -0.6540    1.6100 N.3   142  PHE142     -0.1241
    121  CA       -39.4410    0.6850    1.1840 C.3   142  PHE142      0.1605
    122  C        -38.3340    0.6080    0.1560 C.2   142  PHE142      0.2264
    123  O        -37.4110   -0.2090    0.2750 O.2   142  PHE142     -0.2867
    124  CB       -38.9820    1.5560    2.3590 C.3   142  PHE142      0.0534
    125  CG       -39.9770    1.6360    3.4690 C.ar  142  PHE142     -0.0203
    126  CD1      -41.2470    2.1300    3.2400 C.ar  142  PHE142     -0.0042
    127  CD2      -39.6500    1.2170    4.7370 C.ar  142  PHE142     -0.0042
    128  CE1      -42.1720    2.2050    4.2500 C.ar  142  PHE142     -0.0003
    129  CE2      -40.5690    1.3010    5.7550 C.ar  142  PHE142     -0.0003
    130  CZ       -41.8380    1.7880    5.5030 C.ar  142  PHE142     -0.0000
@<TRIPOS>BOND
     1   122   123    2
     2   122   121    1
     3    75    76    1
     4   121   120    1
     5   121   124    1
     6   124   125    1
     7    76    77    1
     8    76    79    1
     9    23    22    2
    10    78    77    2
    11   126   125   ar
    12   126   128   ar
    13    22    21    1
    14    79    80    1
    15   125   127   ar
    16   128   130   ar
    17   114   115    2
    18   114   113    1
    19   127   129   ar
    20     9    11   ar
    21     9     7   ar
    22    21    20    1
    23    80    81    1
    24    11    10   ar
    25    82    81    2
    26   130   129   ar
    27    81    83   am
    28   113   112    1
    29   113   116    1
    30    20    14   am
    31     7     6   ar
    32    10     8   ar
    33    15    14    2
    34    84    85    1
    35    14    13    1
    36   116   117    1
    37     6     8   ar
    38     6     5    1
    39    12    13    1
    40    87    86    2
    41    69    70    2
    42    69    68    1
    43    13    16    1
    44     4     3    2
    45    85    86    1
    46    85    88    1
    47   117   118   ar
    48   117   119   ar
    49     3     2    1
    50   107   106    2
    51     5     2    1
    52    71    68    1
    53    71    72    1
    54    68    67    1
    55    88    89    1
    56   106   105    1
    57    16    18    1
    58    16    17    1
    59     2     1    1
    60    90    89    2
    61    89    91   am
    62    72    73   ar
    63    72    74   ar
    64   110   109    2
    65    17    19    1
    66   105   104    1
    67   105   108    1
    68   109   108    1
    69   109   111   am
    70   104    94   am
    71    24    25    1
    72    92    93    1
    73    39    37   ar
    74    25    28    1
    75    25    26    1
    76    94    93    1
    77    94    95    2
    78    93    96    1
    79    28    29    1
    80    31    29   am
    81    37    38   ar
    82    37    36    1
    83    65    63    1
    84    29    30    2
    85    26    32   am
    86    26    27    2
    87    96    97    1
    88    32    33    1
    89    36    33    1
    90    61    62    2
    91    61    60    1
    92    99    97   ar
    93    99   101   ar
    94    33    34    1
    95    97    98   ar
    96    63    60    1
    97    63    64    1
    98    66    64    1
    99    60    59    1
   100   101   102   ar
   101    34    40   am
   102    34    35    2
   103    98   100   ar
   104    40    41    1
   105    59    54   am
   106   102   100   ar
   107   102   103    1
   108    55    54    2
   109    42    41    1
   110    42    43    2
   111    41    44    1
   112    54    53    1
   113    44    45    1
   114    58    56    1
   115    53    52    1
   116    53    56    1
   117    45    47   ar
   118    45    46   ar
   119    56    57    1
   120    47    49   ar
   121    46    48   ar
   122    49    50   ar
   123    48    50   ar
   124    50    51    1
