@<TRIPOS>MOLECULE
tmp/5mttA03.pdb
 82 76 0 0 0
SMALL
GASTEIGER

@<TRIPOS>ATOM
      1  N          6.2960    7.1850   42.9810 N.3    11  ASP11      -0.1239
      2  CA         6.2280    8.6390   42.9600 C.3    11  ASP11       0.1674
      3  C          4.8280    9.1070   43.3930 C.2    11  ASP11       0.2266
      4  O          3.8330    8.3900   43.2760 O.2    11  ASP11      -0.2867
      5  CB         6.6290    9.1720   41.5790 C.3    11  ASP11       0.1410
      6  CG         8.1030    8.8580   41.2120 C.2    11  ASP11       0.3668
      7  OD1        8.9270    8.4940   42.0970 O.co2  11  ASP11      -0.2456
      8  OD2        8.4620    8.9240   40.0320 O.co2  11  ASP11      -0.2456
      9  N          1.4550    8.4840   41.6210 N.3    14  GLN14      -0.1245
     10  CA         1.2960    7.1190   41.1590 C.3    14  GLN14       0.1566
     11  C          0.6580    6.2000   42.1910 C.2    14  GLN14       0.2260
     12  O          0.2010    5.1130   41.8410 O.2    14  GLN14      -0.2867
     13  CB         2.6640    6.5560   40.7910 C.3    14  GLN14       0.0367
     14  CG         3.3770    7.3360   39.7030 C.3    14  GLN14       0.0905
     15  CD         4.7410    6.7870   39.3790 C.2    14  GLN14       0.2608
     16  OE1        5.2630    6.9050   38.2430 O.2    14  GLN14      -0.2717
     17  NE2        5.3730    6.2370   40.3580 N.am   14  GLN14      -0.0878
     18  N         11.3800   10.5880   45.4210 N.3    42  GLY42      -0.1210
     19  CA        11.0000   10.1580   44.0890 C.3    42  GLY42       0.1956
     20  C         12.0750    9.3800   43.3450 C.2    42  GLY42       0.2613
     21  O         13.2510    9.3300   43.7270 O.2    42  GLY42      -0.2717
     22  N         11.6360    8.8060   42.2180 N.am   43  SER43      -0.1938
     23  CA        12.4440    7.9180   41.3850 C.3    43  SER43       0.2055
     24  C         13.6810    8.5900   40.8170 C.2    43  SER43       0.2642
     25  O         14.6760    7.9100   40.5170 O.2    43  SER43      -0.2714
     26  CB        11.5670    7.3960   40.2690 C.3    43  SER43       0.2130
     27  OG        11.0520    8.4640   39.4860 O.3    43  SER43      -0.2179
     28  N         13.6300    9.9190   40.6130 N.am   44  ALA44      -0.1977
     29  CA        14.7890   10.6370   40.1190 C.3    44  ALA44       0.1597
     30  C         15.8350   10.8370   41.1960 C.2    44  ALA44       0.2287
     31  O         16.9410   11.3110   40.8970 O.2    44  ALA44      -0.2864
     32  CB        14.3690   11.9950   39.5690 C.3    44  ALA44       0.0319
     33  N         11.0430    2.5160   42.8260 N.3    62  GLU62      -0.1245
     34  CA        11.1310    3.0340   41.4720 C.3    62  GLU62       0.1567
     35  C         12.4430    3.7880   41.2810 C.2    62  GLU62       0.2260
     36  O         12.8620    4.5460   42.1540 O.2    62  GLU62      -0.2867
     37  CB         9.9210    3.9490   41.2100 C.3    62  GLU62       0.0388
     38  CG         9.6700    4.2270   39.7480 C.3    62  GLU62       0.1160
     39  CD         8.3960    4.9910   39.5140 C.2    62  GLU62       0.3649
     40  OE1        7.5670    4.9910   40.4640 O.co2  62  GLU62      -0.2457
     41  OE2        8.1600    5.5550   38.4300 O.co2  62  GLU62      -0.2457
     42  N         10.9220    6.3690   28.3400 N.3   114  GLN114     -0.1245
     43  CA        10.7480    7.8060   28.5260 C.3   114  GLN114      0.1566
     44  C         11.6360    8.5910   27.5680 C.2   114  GLN114      0.2260
     45  O         12.8540    8.5100   27.6340 O.2   114  GLN114     -0.2867
     46  CB        11.0820    8.1940   29.9630 C.3   114  GLN114      0.0367
     47  CG        10.1880    7.5460   30.9870 C.3   114  GLN114      0.0905
     48  CD        10.5400    7.8990   32.4240 C.2   114  GLN114      0.2608
     49  OE1       11.6450    8.3750   32.7080 O.2   114  GLN114     -0.2717
     50  NE2        9.6050    7.6630   33.3340 N.am  114  GLN114     -0.0878
     51  N          5.5380   10.9230   31.6790 N.3   220  TRP220     -0.1241
     52  CA         4.9650   10.9420   33.0200 C.3   220  TRP220      0.1605
     53  C          3.9300   12.0520   33.1690 C.2   220  TRP220      0.2264
     54  O          3.0960   11.9920   34.0810 O.2   220  TRP220     -0.2867
     55  CB         6.0680   11.0610   34.0970 C.3   220  TRP220      0.0550
     56  CG         6.9690   12.2530   33.8610 C.ar  220  TRP220      0.0003
     57  CD1        6.7710   13.5250   34.2960 C.ar  220  TRP220      0.0946
     58  CD2        8.1760   12.2790   33.0830 C.ar  220  TRP220      0.0152
     59  NE1        7.7740   14.3430   33.8290 N.ar  220  TRP220     -0.2442
     60  CE2        8.6500   13.6020   33.0880 C.ar  220  TRP220      0.0810
     61  CE3        8.9260   11.3000   32.4280 C.ar  220  TRP220      0.0012
     62  CZ2        9.8130   13.9850   32.4380 C.ar  220  TRP220      0.0191
     63  CZ3       10.1080   11.6750   31.7950 C.ar  220  TRP220      0.0001
     64  CH2       10.5260   13.0080   31.7950 C.ar  220  TRP220      0.0015
     65  N         12.3980    3.6080   32.8330 N.3   257  GLU257     -0.1245
     66  CA        11.9530    3.6120   34.2160 C.3   257  GLU257      0.1567
     67  C         11.8300    2.1640   34.6710 C.2   257  GLU257      0.2260
     68  O         11.3600    1.3070   33.9110 O.2   257  GLU257     -0.2867
     69  CB        10.6090    4.3340   34.3530 C.3   257  GLU257      0.0388
     70  CG        10.3250    4.7310   35.7860 C.3   257  GLU257      0.1160
     71  CD        11.2860    5.7590   36.2710 C.2   257  GLU257      0.3649
     72  OE1       11.4970    6.7480   35.5880 O.co2 257  GLU257     -0.2457
     73  OE2       11.8610    5.5810   37.3350 O.co2 257  GLU257     -0.2457
     74  N          2.2320    7.0020   30.4440 N.3   295  GLN295     -0.1245
     75  CA         3.5780    6.4980   30.2320 C.3   295  GLN295      0.1566
     76  C          3.5590    5.3250   29.2480 C.2   295  GLN295      0.2260
     77  O          2.6070    4.5410   29.1850 O.2   295  GLN295     -0.2867
     78  CB         4.2380    6.0930   31.5360 C.3   295  GLN295      0.0367
     79  CG         4.6070    7.2810   32.4180 C.3   295  GLN295      0.0905
     80  CD         5.9450    7.1140   33.0920 C.2   295  GLN295      0.2608
     81  OE1        6.9790    6.8800   32.4300 O.2   295  GLN295     -0.2717
     82  NE2        5.9610    7.2690   34.4170 N.am  295  GLN295     -0.0878
@<TRIPOS>BOND
     1    44    45    2
     2    44    43    1
     3    42    43    1
     4    43    46    1
     5    77    76    2
     6    76    75    1
     7    46    47    1
     8    75    74    1
     9    75    78    1
    10    47    48    1
    11    78    79    1
    12    51    52    1
    13    64    63   ar
    14    64    62   ar
    15    63    61   ar
    16    79    80    1
    17    48    49    2
    18    48    50   am
    19    61    58   ar
    20    81    80    2
    21    62    60   ar
    22    65    66    1
    23    52    53    1
    24    52    55    1
    25    58    60   ar
    26    58    56   ar
    27    60    59   ar
    28    80    82   am
    29    53    54    2
    30    59    57   ar
    31    56    55    1
    32    56    57   ar
    33    68    67    2
    34    66    69    1
    35    66    67    1
    36    69    70    1
    37    72    71   ar
    38    70    71    1
    39    71    73   ar
    40    16    15    2
    41    41    39   ar
    42    15    14    1
    43    15    17   am
    44    27    26    1
    45    39    38    1
    46    39    40   ar
    47    32    29    1
    48    14    13    1
    49    38    37    1
    50     8     6   ar
    51    29    28    1
    52    29    30    1
    53    26    23    1
    54    25    24    2
    55    28    24   am
    56    13    10    1
    57    24    23    1
    58    31    30    2
    59    10     9    1
    60    10    11    1
    61    37    34    1
    62     6     5    1
    63     6     7   ar
    64    35    34    1
    65    35    36    2
    66    23    22    1
    67    34    33    1
    68     5     2    1
    69    12    11    2
    70    22    20   am
    71     2     1    1
    72     2     3    1
    73     4     3    2
    74    20    21    2
    75    20    19    1
    76    19    18    1
