@<TRIPOS>MOLECULE
tmp/5mttA01.pdb
 91 87 0 0 0
SMALL
GASTEIGER

@<TRIPOS>ATOM
      1  N         13.6300    9.9190   40.6130 N.3    44  ALA44      -0.1231
      2  CA        14.7890   10.6370   40.1190 C.3    44  ALA44       0.1694
      3  C         15.8350   10.8370   41.1960 C.2    44  ALA44       0.2592
      4  O         16.9410   11.3110   40.8970 O.2    44  ALA44      -0.2718
      5  CB        14.3690   11.9950   39.5690 C.3    44  ALA44       0.0304
      6  N         15.5300   10.4240   42.4280 N.am   45  ASN45      -0.1974
      7  CA        16.4010   10.5710   43.5900 C.3    45  ASN45       0.1688
      8  C         16.5590    9.2580   44.3610 C.2    45  ASN45       0.2292
      9  O         16.9510    9.2670   45.5350 O.2    45  ASN45      -0.2864
     10  CB        15.8830   11.6620   44.5190 C.3    45  ASN45       0.1181
     11  CG        15.9160   13.0220   43.8650 C.2    45  ASN45       0.2629
     12  OD1       16.9810   13.5290   43.5530 O.2    45  ASN45      -0.2716
     13  ND2       14.7630   13.6130   43.6660 N.am   45  ASN45      -0.0877
     14  N         18.7870    6.8850   44.1600 N.3    47  LYS47      -0.1245
     15  CA        20.1970    6.7640   44.5370 C.3    47  LYS47       0.1561
     16  C         20.4470    7.2580   45.9560 C.2    47  LYS47       0.2260
     17  O         21.0200    6.5540   46.7950 O.2    47  LYS47      -0.2867
     18  CB        21.0640    7.5500   43.5290 C.3    47  LYS47       0.0271
     19  CG        20.5330    8.8900   43.0690 C.3    47  LYS47       0.0035
     20  CD        21.4740    9.4550   42.0240 C.3    47  LYS47       0.0206
     21  CE        20.7120   10.2460   41.1790 C.3    47  LYS47       0.1093
     22  NZ        21.4690   10.9530   40.1260 N.3    47  LYS47      -0.1314
     23  N         15.1380    5.4020   37.9430 N.3    64  ALA64      -0.1245
     24  CA        15.5010    5.5950   36.5550 C.3    64  ALA64       0.1562
     25  C         16.8170    4.8740   36.2230 C.2    64  ALA64       0.2260
     26  O         17.6980    4.7310   37.0700 O.2    64  ALA64      -0.2867
     27  CB        15.6350    7.0930   36.2870 C.3    64  ALA64       0.0290
     28  N         19.6190    5.4190   34.7520 N.3    66  ASP66      -0.1225
     29  CA        20.9440    6.0160   34.8910 C.3    66  ASP66       0.1805
     30  C         21.5610    5.7610   36.2520 C.2    66  ASP66       0.2597
     31  O         22.7880    5.8270   36.3680 O.2    66  ASP66      -0.2718
     32  CB        20.9170    7.5230   34.6190 C.3    66  ASP66       0.1424
     33  CG        20.0720    8.2730   35.6200 C.2    66  ASP66       0.3668
     34  OD1       18.8540    7.9970   35.6630 O.co2  66  ASP66      -0.2456
     35  OD2       20.6240    9.1420   36.3520 O.co2  66  ASP66      -0.2456
     36  N         20.7440    5.5190   37.2840 N.am   67  GLN67      -0.1979
     37  CA        21.2430    5.3540   38.6380 C.3    67  GLN67       0.1601
     38  C         21.7400    3.9370   38.9110 C.2    67  GLN67       0.2287
     39  O         22.3130    3.6820   39.9780 O.2    67  GLN67      -0.2864
     40  CB        20.1400    5.7190   39.6260 C.3    67  GLN67       0.0394
     41  CG        19.7560    7.1890   39.5050 C.3    67  GLN67       0.0908
     42  CD        18.5460    7.5250   40.2900 C.2    67  GLN67       0.2608
     43  OE1       18.3550    7.1030   41.4290 O.2    67  GLN67      -0.2717
     44  NE2       17.6270    8.2140   39.6400 N.am   67  GLN67      -0.0878
     45  N         18.0070   22.3730   34.5520 N.3   148  ASN148     -0.1225
     46  CA        17.8210   20.9260   34.6020 C.3   148  ASN148      0.1785
     47  C         18.5980   20.3410   33.4240 C.2   148  ASN148      0.2597
     48  O         18.2140   20.5120   32.2610 O.2   148  ASN148     -0.2718
     49  CB        16.3480   20.5580   34.5680 C.3   148  ASN148      0.1169
     50  CG        16.1260   19.0640   34.8160 C.2   148  ASN148      0.2627
     51  OD1       17.0380   18.2220   34.6300 O.2   148  ASN148     -0.2716
     52  ND2       14.9330   18.7220   35.2100 N.am  148  ASN148     -0.0877
     53  N         19.7070   19.6700   33.7230 N.am  149  ALA149     -0.1966
     54  CA        20.5580   19.1320   32.6680 C.3   149  ALA149      0.1728
     55  C         19.9040   17.9880   31.8930 C.2   149  ALA149      0.2616
     56  O         20.3260   17.6860   30.7700 O.2   149  ALA149     -0.2715
     57  CB        21.9040   18.6760   33.2230 C.3   149  ALA149      0.0334
     58  N         18.8820   17.3530   32.4560 N.am  150  TYR150     -0.1974
     59  CA        18.1280   16.3550   31.7010 C.3   150  TYR150      0.1639
     60  C         17.4510   16.9900   30.4950 C.2   150  TYR150      0.2290
     61  O         17.2790   16.3380   29.4640 O.2   150  TYR150     -0.2864
     62  CB        17.1530   15.6480   32.6280 C.3   150  TYR150      0.0560
     63  CG        16.2820   14.5940   32.0040 C.ar  150  TYR150     -0.0198
     64  CD1       16.7080   13.2900   31.8990 C.ar  150  TYR150     -0.0009
     65  CD2       15.0140   14.9030   31.5500 C.ar  150  TYR150     -0.0009
     66  CE1       15.8860   12.3000   31.3730 C.ar  150  TYR150      0.0417
     67  CE2       14.1840   13.9240   31.0220 C.ar  150  TYR150      0.0417
     68  CZ        14.6190   12.6220   30.9620 C.ar  150  TYR150      0.1957
     69  OH        13.7790   11.6400   30.4590 O.3   150  TYR150     -0.2866
     70  N         20.2970    7.0710   28.3520 N.3   329  MET329     -0.1245
     71  CA        21.0830    7.6150   29.4610 C.3   329  MET329      0.1570
     72  C         22.1280    6.5900   29.8880 C.2   329  MET329      0.2261
     73  O         21.7640    5.4490   30.2090 O.2   329  MET329     -0.2867
     74  CB        20.2400    7.9180   30.6990 C.3   329  MET329      0.0387
     75  CG        19.2790    9.0620   30.5600 C.3   329  MET329      0.0595
     76  SD        18.6180    9.6630   32.1280 S.3   329  MET329     -0.1393
     77  CE        17.5220    8.3170   32.5610 C.3   329  MET329      0.0692
     78  N         25.3510   14.7980   36.6140 N.3   339  TRP339     -0.1241
     79  CA        24.1640   15.6410   36.6570 C.3   339  TRP339      0.1605
     80  C         24.4260   16.9000   37.4570 C.2   339  TRP339      0.2264
     81  O         23.9620   17.9830   37.0980 O.2   339  TRP339     -0.2867
     82  CB        22.9910   14.9110   37.2960 C.3   339  TRP339      0.0550
     83  CG        22.4900   13.7400   36.4970 C.ar  339  TRP339      0.0003
     84  CD1       22.5020   12.4290   36.8750 C.ar  339  TRP339      0.0946
     85  CD2       21.8770   13.7740   35.1970 C.ar  339  TRP339      0.0152
     86  NE1       21.9520   11.6450   35.8910 N.ar  339  TRP339     -0.2442
     87  CE2       21.5490   12.4490   34.8630 C.ar  339  TRP339      0.0810
     88  CE3       21.5680   14.7910   34.2890 C.ar  339  TRP339      0.0012
     89  CZ2       20.9370   12.1210   33.6710 C.ar  339  TRP339      0.0191
     90  CZ3       20.9600   14.4410   33.1030 C.ar  339  TRP339      0.0001
     91  CH2       20.6520   13.1260   32.8020 C.ar  339  TRP339      0.0015
@<TRIPOS>BOND
     1    70    71    1
     2    71    72    1
     3    71    74    1
     4    61    60    2
     5    72    73    2
     6    69    68    1
     7    60    59    1
     8    75    74    1
     9    75    76    1
    10    56    55    2
    11    68    67   ar
    12    68    66   ar
    13    67    65   ar
    14    66    64   ar
    15    65    63   ar
    16    59    58    1
    17    59    62    1
    18    55    58   am
    19    55    54    1
    20    64    63   ar
    21    63    62    1
    22    76    77    1
    23    48    47    2
    24    54    57    1
    25    54    53    1
    26    91    90   ar
    27    91    89   ar
    28    90    88   ar
    29    47    53   am
    30    47    46    1
    31    89    87   ar
    32    88    85   ar
    33    45    46    1
    34    49    46    1
    35    49    50    1
    36    32    29    1
    37    32    33    1
    38    51    50    2
    39    28    29    1
    40    50    52   am
    41    87    85   ar
    42    87    86   ar
    43    29    30    1
    44    85    83   ar
    45    33    34   ar
    46    33    35   ar
    47    86    84   ar
    48    25    24    1
    49    25    26    2
    50    30    31    2
    51    30    36   am
    52    27    24    1
    53    83    84   ar
    54    83    82    1
    55    24    23    1
    56    78    79    1
    57    79    82    1
    58    79    80    1
    59    81    80    2
    60    36    37    1
    61    37    38    1
    62    37    40    1
    63    38    39    2
    64    41    40    1
    65    41    42    1
    66     5     2    1
    67    44    42   am
    68     2     1    1
    69     2     3    1
    70    22    21    1
    71    42    43    2
    72     4     3    2
    73    21    20    1
    74     3     6   am
    75    20    19    1
    76     6     7    1
    77    19    18    1
    78    18    15    1
    79    12    11    2
    80     7     8    1
    81     7    10    1
    82    13    11   am
    83    11    10    1
    84    14    15    1
    85     8     9    2
    86    15    16    1
    87    16    17    2
