@<TRIPOS>MOLECULE
tmp/5mttA07.pdb
 82 80 0 0 0
SMALL
GASTEIGER

@<TRIPOS>ATOM
      1  N          6.2960    7.1850   42.9810 N.3    11  ASP11      -0.1225
      2  CA         6.2280    8.6390   42.9600 C.3    11  ASP11       0.1805
      3  C          4.8280    9.1070   43.3930 C.2    11  ASP11       0.2598
      4  O          3.8330    8.3900   43.2760 O.2    11  ASP11      -0.2718
      5  CB         6.6290    9.1720   41.5790 C.3    11  ASP11       0.1424
      6  CG         8.1030    8.8580   41.2120 C.2    11  ASP11       0.3668
      7  OD1        8.9270    8.4940   42.0970 O.co2  11  ASP11      -0.2456
      8  OD2        8.4620    8.9240   40.0320 O.co2  11  ASP11      -0.2456
      9  N          4.7520   10.3460   43.8640 N.am   12  THR12      -0.1939
     10  CA         3.5530   10.8430   44.5640 C.3    12  THR12       0.2028
     11  C          2.2030   10.4950   43.8850 C.2    12  THR12       0.2642
     12  O          1.3070    9.8750   44.4820 O.2    12  THR12      -0.2714
     13  CB         3.7080   12.3450   44.7860 C.3    12  THR12       0.1808
     14  OG1        4.9240   12.5780   45.5140 O.3    12  THR12      -0.2208
     15  CG2        2.5460   12.8690   45.5940 C.3    12  THR12       0.0379
     16  N          2.0100   10.9330   42.6760 N.am   13  THR13      -0.1950
     17  CA         0.6860   10.7710   42.0620 C.3    13  THR13       0.1897
     18  C          0.4640    9.3630   41.5220 C.2    13  THR13       0.2313
     19  O         -0.6230    9.0730   41.0120 O.2    13  THR13      -0.2863
     20  CB         0.4650   11.8050   40.9750 C.3    13  THR13       0.1794
     21  OG1        1.3220   11.5310   39.8680 O.3    13  THR13      -0.2208
     22  CG2        0.6830   13.2440   41.5300 C.3    13  THR13       0.0378
     23  N          4.5380    6.7280   48.9070 N.3    38  GLN38      -0.1231
     24  CA         5.4660    7.5200   48.1250 C.3    38  GLN38       0.1698
     25  C          6.8660    7.3440   48.7000 C.2    38  GLN38       0.2592
     26  O          7.0300    6.9930   49.8720 O.2    38  GLN38      -0.2718
     27  CB         4.9920    8.9960   48.0190 C.3    38  GLN38       0.0381
     28  CG         5.1010    9.7720   49.2270 C.3    38  GLN38       0.0905
     29  CD         4.3340   11.1020   49.1090 C.2    38  GLN38       0.2608
     30  OE1        4.9250   12.1410   49.0770 O.2    38  GLN38      -0.2717
     31  NE2        3.0080   11.0270   49.0370 N.am   38  GLN38      -0.0878
     32  N          7.8790    7.5380   47.8700 N.am   39  SER39      -0.1952
     33  CA         9.2480    7.6070   48.3590 C.3    39  SER39       0.1924
     34  C          9.5300    8.9880   48.9410 C.2    39  SER39       0.2314
     35  O          8.8080    9.9450   48.6750 O.2    39  SER39      -0.2863
     36  CB        10.2250    7.3720   47.2270 C.3    39  SER39       0.2116
     37  OG         9.9660    8.2880   46.1830 O.3    39  SER39      -0.2180
     38  N         11.8410   11.2470   48.0730 N.3    41  ASN41      -0.1225
     39  CA        12.1330   12.2610   47.0600 C.3    41  ASN41       0.1785
     40  C         11.9360   11.7690   45.6270 C.2    41  ASN41       0.2598
     41  O         12.3020   12.4810   44.6790 O.2    41  ASN41      -0.2718
     42  CB        13.5480   12.8300   47.2550 C.3    41  ASN41       0.1169
     43  CG        13.6910   13.5530   48.5750 C.2    41  ASN41       0.2627
     44  OD1       13.2260   14.6770   48.7310 O.2    41  ASN41      -0.2716
     45  ND2       14.3110   12.8980   49.5520 N.am   41  ASN41      -0.0877
     46  N         11.3800   10.5880   45.4210 N.am   42  GLY42      -0.1942
     47  CA        11.0000   10.1580   44.0890 C.3    42  GLY42       0.2014
     48  C         12.0750    9.3800   43.3450 C.2    42  GLY42       0.2640
     49  O         13.2510    9.3300   43.7270 O.2    42  GLY42      -0.2714
     50  N         11.6360    8.8060   42.2180 N.am   43  SER43      -0.1935
     51  CA        12.4440    7.9180   41.3850 C.3    43  SER43       0.2055
     52  C         13.6810    8.5900   40.8170 C.2    43  SER43       0.2643
     53  O         14.6760    7.9100   40.5170 O.2    43  SER43      -0.2714
     54  CB        11.5670    7.3960   40.2690 C.3    43  SER43       0.2130
     55  OG        11.0520    8.4640   39.4860 O.3    43  SER43      -0.2179
     56  N         13.6300    9.9190   40.6130 N.am   44  ALA44      -0.1963
     57  CA        14.7890   10.6370   40.1190 C.3    44  ALA44       0.1728
     58  C         15.8350   10.8370   41.1960 C.2    44  ALA44       0.2616
     59  O         16.9410   11.3110   40.8970 O.2    44  ALA44      -0.2715
     60  CB        14.3690   11.9950   39.5690 C.3    44  ALA44       0.0334
     61  N         15.5300   10.4240   42.4280 N.am   45  ASN45      -0.1972
     62  CA        16.4010   10.5710   43.5900 C.3    45  ASN45       0.1688
     63  C         16.5590    9.2580   44.3610 C.2    45  ASN45       0.2292
     64  O         16.9510    9.2670   45.5350 O.2    45  ASN45      -0.2864
     65  CB        15.8830   11.6620   44.5190 C.3    45  ASN45       0.1181
     66  CG        15.9160   13.0220   43.8650 C.2    45  ASN45       0.2629
     67  OD1       16.9810   13.5290   43.5530 O.2    45  ASN45      -0.2716
     68  ND2       14.7630   13.6130   43.6660 N.am   45  ASN45      -0.0877
     69  N          5.5380   10.9230   31.6790 N.3   220  TRP220     -0.1241
     70  CA         4.9650   10.9420   33.0200 C.3   220  TRP220      0.1605
     71  C          3.9300   12.0520   33.1690 C.2   220  TRP220      0.2264
     72  O          3.0960   11.9920   34.0810 O.2   220  TRP220     -0.2867
     73  CB         6.0680   11.0610   34.0970 C.3   220  TRP220      0.0550
     74  CG         6.9690   12.2530   33.8610 C.ar  220  TRP220      0.0003
     75  CD1        6.7710   13.5250   34.2960 C.ar  220  TRP220      0.0946
     76  CD2        8.1760   12.2790   33.0830 C.ar  220  TRP220      0.0152
     77  NE1        7.7740   14.3430   33.8290 N.ar  220  TRP220     -0.2442
     78  CE2        8.6500   13.6020   33.0880 C.ar  220  TRP220      0.0810
     79  CE3        8.9260   11.3000   32.4280 C.ar  220  TRP220      0.0012
     80  CZ2        9.8130   13.9850   32.4380 C.ar  220  TRP220      0.0191
     81  CZ3       10.1080   11.6750   31.7950 C.ar  220  TRP220      0.0001
     82  CH2       10.5260   13.0080   31.7950 C.ar  220  TRP220      0.0015
@<TRIPOS>BOND
     1    69    70    1
     2    82    81   ar
     3    82    80   ar
     4    81    79   ar
     5    79    76   ar
     6    80    78   ar
     7    70    71    1
     8    70    73    1
     9    76    78   ar
    10    76    74   ar
    11    78    77   ar
    12    71    72    2
    13    77    75   ar
    14    74    73    1
    15    74    75   ar
    16    55    54    1
    17    60    57    1
    18    21    20    1
    19     8     6   ar
    20    57    56    1
    21    57    58    1
    22    54    51    1
    23    53    52    2
    24    56    52   am
    25    52    51    1
    26    59    58    2
    27    20    22    1
    28    20    17    1
    29    19    18    2
    30    58    61   am
    31     6     5    1
    32     6     7   ar
    33    51    50    1
    34    18    17    1
    35     5     2    1
    36    17    16    1
    37    50    48   am
    38    61    62    1
    39    16    11   am
    40     2     1    1
    41     2     3    1
    42     4     3    2
    43    48    49    2
    44    48    47    1
    45     3     9   am
    46    67    66    2
    47    62    63    1
    48    62    65    1
    49    68    66   am
    50     9    10    1
    51    66    65    1
    52    11    12    2
    53    11    10    1
    54    47    46    1
    55    63    64    2
    56    10    13    1
    57    41    40    2
    58    13    14    1
    59    13    15    1
    60    46    40   am
    61    40    39    1
    62    37    36    1
    63    39    42    1
    64    39    38    1
    65    36    33    1
    66    42    43    1
    67    32    33    1
    68    32    25   am
    69    27    24    1
    70    27    28    1
    71    24    25    1
    72    24    23    1
    73    33    34    1
    74    43    44    2
    75    43    45   am
    76    35    34    2
    77    25    26    2
    78    31    29   am
    79    30    29    2
    80    29    28    1
