@<TRIPOS>MOLECULE
tmp/5mtuA03.pdb
 107 101 0 0 0
SMALL
GASTEIGER

@<TRIPOS>ATOM
      1  N        -15.8650   -9.5410   -0.2110 N.3    43  SER43      -0.1202
      2  CA       -15.0410   -8.5630    0.5010 C.3    43  SER43       0.2020
      3  C        -13.6880   -9.1410    0.9070 C.2    43  SER43       0.2618
      4  O        -12.6970   -8.4090    0.9630 O.2    43  SER43      -0.2717
      5  CB       -15.7800   -8.0150    1.7260 C.3    43  SER43       0.2103
      6  OG       -16.9970   -7.3980    1.3410 O.3    43  SER43      -0.2182
      7  N        -13.6280  -10.4460    1.2120 N.am   44  ALA44      -0.1979
      8  CA       -12.3740  -11.0890    1.6010 C.3    44  ALA44       0.1597
      9  C        -11.2910  -10.9580    0.5420 C.2    44  ALA44       0.2287
     10  O        -10.1120  -11.0830    0.8800 O.2    44  ALA44      -0.2864
     11  CB       -12.6270  -12.5630    1.9010 C.3    44  ALA44       0.0319
     12  N        -12.0180   -5.3290    4.6830 N.3    64  ALA64      -0.1245
     13  CA       -11.6690   -5.4540    6.0940 C.3    64  ALA64       0.1562
     14  C        -10.3370   -4.7590    6.3950 C.2    64  ALA64       0.2260
     15  O         -9.4760   -4.5930    5.5290 O.2    64  ALA64      -0.2867
     16  CB       -11.6010   -6.9280    6.5040 C.3    64  ALA64       0.0290
     17  N         -7.5380   -5.4130    7.7940 N.3    66  ASP66      -0.1239
     18  CA        -6.2170   -6.0020    7.6130 C.3    66  ASP66       0.1674
     19  C         -5.6160   -5.6930    6.2500 C.2    66  ASP66       0.2266
     20  O         -4.4040   -5.7570    6.1050 O.2    66  ASP66      -0.2867
     21  CB        -6.2370   -7.5200    7.8110 C.3    66  ASP66       0.1410
     22  CG        -7.1030   -8.2520    6.8060 C.2    66  ASP66       0.3668
     23  OD1       -8.3120   -7.9590    6.7850 O.co2  66  ASP66      -0.2456
     24  OD2       -6.5660   -9.1250    6.0630 O.co2  66  ASP66      -0.2456
     25  N        -16.2360   -6.3310   14.3220 N.3   114  GLN114     -0.1245
     26  CA       -16.3780   -7.7750   14.1430 C.3   114  GLN114      0.1566
     27  C        -15.5040   -8.5350   15.1230 C.2   114  GLN114      0.2260
     28  O        -14.2930   -8.3890   15.1340 O.2   114  GLN114     -0.2867
     29  CB       -16.0100   -8.1840   12.7130 C.3   114  GLN114      0.0367
     30  CG       -16.8950   -7.5300   11.6670 C.3   114  GLN114      0.0905
     31  CD       -16.5460   -7.9440   10.2590 C.2   114  GLN114      0.2608
     32  OE1      -15.4520   -8.4340    9.9720 O.2   114  GLN114     -0.2717
     33  NE2      -17.4790   -7.7400    9.3590 N.am  114  GLN114     -0.0878
     34  N        -15.6050  -12.7740   16.4380 N.3   116  GLN116     -0.1245
     35  CA       -16.3290  -14.0220   16.5420 C.3   116  GLN116      0.1566
     36  C        -16.6780  -14.3080   17.9990 C.2   116  GLN116      0.2260
     37  O        -16.0250  -13.8590   18.9460 O.2   116  GLN116     -0.2867
     38  CB       -15.5640  -15.1760   15.9010 C.3   116  GLN116      0.0367
     39  CG       -15.4790  -14.9800   14.3960 C.3   116  GLN116      0.0905
     40  CD       -15.0770  -16.1840   13.5710 C.2   116  GLN116      0.2608
     41  OE1      -15.2870  -16.1560   12.3530 O.2   116  GLN116     -0.2717
     42  NE2      -14.5140  -17.2140   14.1800 N.am  116  GLN116     -0.0878
     43  N         -8.9840  -22.5090    8.3440 N.3   148  ASN148     -0.1240
     44  CA        -9.2270  -21.0690    8.3180 C.3   148  ASN148      0.1653
     45  C         -8.3930  -20.4120    9.4220 C.2   148  ASN148      0.2266
     46  O         -8.6470  -20.6020   10.6190 O.2   148  ASN148     -0.2867
     47  CB       -10.7310  -20.7980    8.4470 C.3   148  ASN148      0.1155
     48  CG       -11.0570  -19.3440    8.3900 C.2   148  ASN148      0.2627
     49  OD1      -10.4950  -18.5600    9.1480 O.2   148  ASN148     -0.2716
     50  ND2      -11.9990  -18.9610    7.5390 N.am  148  ASN148     -0.0877
     51  N         -8.1260  -17.2590   10.1860 N.3   150  TYR150     -0.1241
     52  CA        -8.8580  -16.2570   10.9480 C.3   150  TYR150      0.1605
     53  C         -9.5320  -16.8820   12.1670 C.2   150  TYR150      0.2264
     54  O         -9.6250  -16.2520   13.2220 O.2   150  TYR150     -0.2867
     55  CB        -9.8510  -15.5540   10.0310 C.3   150  TYR150      0.0534
     56  CG       -10.7270  -14.5140   10.6880 C.ar  150  TYR150     -0.0201
     57  CD1      -10.3190  -13.1910   10.7910 C.ar  150  TYR150     -0.0009
     58  CD2      -12.0020  -14.8390   11.1380 C.ar  150  TYR150     -0.0009
     59  CE1      -11.1710  -12.2240   11.3230 C.ar  150  TYR150      0.0417
     60  CE2      -12.8560  -13.8870   11.6610 C.ar  150  TYR150      0.0417
     61  CZ       -12.4460  -12.5800   11.7400 C.ar  150  TYR150      0.1957
     62  OH       -13.3130  -11.6240   12.2330 O.3   150  TYR150     -0.2866
     63  N        -21.6420  -11.0240   11.0290 N.3   220  TRP220     -0.1241
     64  CA       -22.2260  -11.0910    9.6910 C.3   220  TRP220      0.1605
     65  C        -23.2810  -12.1800    9.5930 C.2   220  TRP220      0.2264
     66  O        -24.1380  -12.1120    8.7130 O.2   220  TRP220     -0.2867
     67  CB       -21.1360  -11.3030    8.6380 C.3   220  TRP220      0.0550
     68  CG       -20.2290  -12.4580    8.9820 C.ar  220  TRP220      0.0003
     69  CD1      -20.4660  -13.7680    8.7570 C.ar  220  TRP220      0.0946
     70  CD2      -18.9680  -12.3990    9.6850 C.ar  220  TRP220      0.0152
     71  NE1      -19.4480  -14.5390    9.2650 N.ar  220  TRP220     -0.2442
     72  CE2      -18.5100  -13.7120    9.8300 C.ar  220  TRP220      0.0810
     73  CE3      -18.1730  -11.3560   10.1740 C.ar  220  TRP220      0.0012
     74  CZ2      -17.2970  -14.0130   10.4450 C.ar  220  TRP220      0.0191
     75  CZ3      -16.9890  -11.6520   10.7990 C.ar  220  TRP220      0.0001
     76  CH2      -16.5610  -12.9560   10.9300 C.ar  220  TRP220      0.0015
     77  N        -14.7450   -3.6900    9.7170 N.3   257  GLU257     -0.1245
     78  CA       -15.1560   -3.6710    8.3130 C.3   257  GLU257      0.1567
     79  C        -15.3210   -2.2250    7.8780 C.2   257  GLU257      0.2260
     80  O        -15.8110   -1.3870    8.6500 O.2   257  GLU257     -0.2867
     81  CB       -16.4660   -4.4270    8.0880 C.3   257  GLU257      0.0388
     82  CG       -16.6050   -4.9050    6.6720 C.3   257  GLU257      0.1160
     83  CD       -15.7020   -6.0890    6.3690 C.2   257  GLU257      0.3649
     84  OE1      -15.1120   -6.6910    7.2950 O.co2 257  GLU257     -0.2457
     85  OE2      -15.5920   -6.4600    5.1620 O.co2 257  GLU257     -0.2457
     86  N         -6.8790   -7.0900   14.1890 N.3   329  MET329     -0.1245
     87  CA        -6.1160   -7.6320   13.0670 C.3   329  MET329      0.1570
     88  C         -5.0820   -6.6120   12.6230 C.2   329  MET329      0.2261
     89  O         -5.4580   -5.4740   12.2880 O.2   329  MET329     -0.2867
     90  CB        -6.9450   -7.9050   11.8280 C.3   329  MET329      0.0387
     91  CG        -7.8840   -9.0930   11.9160 C.3   329  MET329      0.0595
     92  SD        -8.5360   -9.6240   10.3300 S.3   329  MET329     -0.1393
     93  CE        -9.6640   -8.2620    9.9390 C.3   329  MET329      0.0692
     94  N         -1.4970  -14.6010    5.9430 N.3   339  TRP339     -0.1241
     95  CA        -2.6660  -15.4670    5.8610 C.3   339  TRP339      0.1605
     96  C         -2.3480  -16.7290    5.0700 C.2   339  TRP339      0.2264
     97  O         -2.8210  -17.8200    5.4050 O.2   339  TRP339     -0.2867
     98  CB        -3.8440  -14.7360    5.2210 C.3   339  TRP339      0.0550
     99  CG        -4.4090  -13.6080    6.0080 C.ar  339  TRP339      0.0003
    100  CD1       -4.5060  -12.3020    5.6090 C.ar  339  TRP339      0.0946
    101  CD2       -5.0120  -13.6670    7.3130 C.ar  339  TRP339      0.0152
    102  NE1       -5.1040  -11.5500    6.5820 N.ar  339  TRP339     -0.2442
    103  CE2       -5.4490  -12.3610    7.6280 C.ar  339  TRP339      0.0810
    104  CE3       -5.2440  -14.6980    8.2340 C.ar  339  TRP339      0.0012
    105  CZ2       -6.0750  -12.0630    8.8310 C.ar  339  TRP339      0.0191
    106  CZ3       -5.8730  -14.3990    9.4110 C.ar  339  TRP339      0.0001
    107  CH2       -6.2870  -13.1050    9.7030 C.ar  339  TRP339      0.0015
@<TRIPOS>BOND
     1     1     2    1
     2     2     3    1
     3     2     5    1
     4     9    10    2
     5     9     8    1
     6     3     4    2
     7     3     7   am
     8     7     8    1
     9     6     5    1
    10     8    11    1
    11    12    13    1
    12    96    97    2
    13    96    95    1
    14    85    83   ar
    15    98    95    1
    16    98    99    1
    17    15    14    2
    18   100    99   ar
    19   100   102   ar
    20    95    94    1
    21    99   101   ar
    22    24    22   ar
    23    13    14    1
    24    13    16    1
    25    20    19    2
    26    19    18    1
    27    83    82    1
    28    83    84   ar
    29   102   103   ar
    30    82    81    1
    31    23    22   ar
    32    22    21    1
    33   101   103   ar
    34   101   104   ar
    35    50    48   am
    36    18    17    1
    37    18    21    1
    38   103   105   ar
    39    79    78    1
    40    79    80    2
    41    81    78    1
    42   104   106   ar
    43    78    77    1
    44    44    43    1
    45    44    47    1
    46    44    45    1
    47    48    47    1
    48    48    49    2
    49    67    68    1
    50    67    64    1
    51    66    65    2
    52    69    68   ar
    53    69    71   ar
    54   105   107   ar
    55    68    70   ar
    56    71    72   ar
    57    33    31   am
    58   106   107   ar
    59    45    46    2
    60    65    64    1
    61    70    72   ar
    62    70    73   ar
    63    64    63    1
    64    72    74   ar
    65    93    92    1
    66    32    31    2
    67    55    56    1
    68    55    52    1
    69    73    75   ar
    70    51    52    1
    71    31    30    1
    72    92    91    1
    73    74    76   ar
    74    56    57   ar
    75    56    58   ar
    76    57    59   ar
    77    75    76   ar
    78    52    53    1
    79    58    60   ar
    80    59    61   ar
    81    60    61   ar
    82    30    29    1
    83    61    62    1
    84    90    91    1
    85    90    87    1
    86    53    54    2
    87    89    88    2
    88    41    40    2
    89    88    87    1
    90    29    26    1
    91    87    86    1
    92    40    42   am
    93    40    39    1
    94    26    25    1
    95    26    27    1
    96    39    38    1
    97    27    28    2
    98    38    35    1
    99    34    35    1
   100    35    36    1
   101    36    37    2
