@<TRIPOS>MOLECULE
tmp/5mtuA02.pdb
 83 79 0 0 0
SMALL
GASTEIGER

@<TRIPOS>ATOM
      1  N        -13.6280  -10.4460    1.2120 N.3    44  ALA44      -0.1245
      2  CA       -12.3740  -11.0890    1.6010 C.3    44  ALA44       0.1562
      3  C        -11.2910  -10.9580    0.5420 C.2    44  ALA44       0.2260
      4  O        -10.1120  -11.0830    0.8800 O.2    44  ALA44      -0.2867
      5  CB       -12.6270  -12.5630    1.9010 C.3    44  ALA44       0.0290
      6  N         -8.5670   -6.5210   -1.9270 N.3    47  LYS47      -0.1245
      7  CA        -7.3280   -5.9370   -2.4250 C.3    47  LYS47       0.1561
      8  C         -6.9460   -6.5120   -3.7790 C.2    47  LYS47       0.2260
      9  O         -6.3350   -5.8130   -4.6040 O.2    47  LYS47      -0.2867
     10  CB        -6.2130   -6.0790   -1.3980 C.3    47  LYS47       0.0271
     11  CG        -5.8270   -7.5050   -1.1090 C.3    47  LYS47       0.0035
     12  CD        -4.7920   -7.5600    0.0030 C.3    47  LYS47       0.0206
     13  CE        -4.2490   -8.9590    0.2670 C.3    47  LYS47       0.1093
     14  NZ        -5.2590   -9.8970    0.8000 N.3    47  LYS47      -0.1314
     15  N        -12.0180   -5.3290    4.6830 N.3    64  ALA64      -0.1245
     16  CA       -11.6690   -5.4540    6.0940 C.3    64  ALA64       0.1562
     17  C        -10.3370   -4.7590    6.3950 C.2    64  ALA64       0.2260
     18  O         -9.4760   -4.5930    5.5290 O.2    64  ALA64      -0.2867
     19  CB       -11.6010   -6.9280    6.5040 C.3    64  ALA64       0.0290
     20  N         -7.5380   -5.4130    7.7940 N.3    66  ASP66      -0.1225
     21  CA        -6.2170   -6.0020    7.6130 C.3    66  ASP66       0.1805
     22  C         -5.6160   -5.6930    6.2500 C.2    66  ASP66       0.2597
     23  O         -4.4040   -5.7570    6.1050 O.2    66  ASP66      -0.2718
     24  CB        -6.2370   -7.5200    7.8110 C.3    66  ASP66       0.1424
     25  CG        -7.1030   -8.2520    6.8060 C.2    66  ASP66       0.3668
     26  OD1       -8.3120   -7.9590    6.7850 O.co2  66  ASP66      -0.2456
     27  OD2       -6.5660   -9.1250    6.0630 O.co2  66  ASP66      -0.2456
     28  N         -6.4470   -5.4260    5.2370 N.am   67  GLN67      -0.1979
     29  CA        -5.9590   -5.2410    3.8720 C.3    67  GLN67       0.1601
     30  C         -5.4670   -3.8250    3.6080 C.2    67  GLN67       0.2287
     31  O         -4.9150   -3.5600    2.5380 O.2    67  GLN67      -0.2864
     32  CB        -7.0690   -5.6210    2.8720 C.3    67  GLN67       0.0394
     33  CG        -7.5230   -7.0310    3.0870 C.3    67  GLN67       0.0908
     34  CD        -8.2230   -7.6450    1.8920 C.2    67  GLN67       0.2608
     35  OE1       -8.4600   -6.9910    0.8680 O.2    67  GLN67      -0.2717
     36  NE2       -8.5210   -8.9350    2.0010 N.am   67  GLN67      -0.0878
     37  N         -8.9840  -22.5090    8.3440 N.3   148  ASN148     -0.1225
     38  CA        -9.2270  -21.0690    8.3180 C.3   148  ASN148      0.1785
     39  C         -8.3930  -20.4120    9.4220 C.2   148  ASN148      0.2597
     40  O         -8.6470  -20.6020   10.6190 O.2   148  ASN148     -0.2718
     41  CB       -10.7310  -20.7980    8.4470 C.3   148  ASN148      0.1169
     42  CG       -11.0570  -19.3440    8.3900 C.2   148  ASN148      0.2627
     43  OD1      -10.4950  -18.5600    9.1480 O.2   148  ASN148     -0.2716
     44  ND2      -11.9990  -18.9610    7.5390 N.am  148  ASN148     -0.0877
     45  N         -7.3750  -19.6560    9.0090 N.am  149  ALA149     -0.1966
     46  CA        -6.4580  -19.0480    9.9650 C.3   149  ALA149      0.1728
     47  C         -7.0970  -17.9010   10.7370 C.2   149  ALA149      0.2616
     48  O         -6.6360  -17.5570   11.8280 O.2   149  ALA149     -0.2715
     49  CB        -5.2350  -18.5300    9.2300 C.3   149  ALA149      0.0334
     50  N         -8.1260  -17.2590   10.1860 N.am  150  TYR150     -0.1974
     51  CA        -8.8580  -16.2570   10.9480 C.3   150  TYR150      0.1639
     52  C         -9.5320  -16.8820   12.1670 C.2   150  TYR150      0.2290
     53  O         -9.6250  -16.2520   13.2220 O.2   150  TYR150     -0.2864
     54  CB        -9.8510  -15.5540   10.0310 C.3   150  TYR150      0.0560
     55  CG       -10.7270  -14.5140   10.6880 C.ar  150  TYR150     -0.0198
     56  CD1      -10.3190  -13.1910   10.7910 C.ar  150  TYR150     -0.0009
     57  CD2      -12.0020  -14.8390   11.1380 C.ar  150  TYR150     -0.0009
     58  CE1      -11.1710  -12.2240   11.3230 C.ar  150  TYR150      0.0417
     59  CE2      -12.8560  -13.8870   11.6610 C.ar  150  TYR150      0.0417
     60  CZ       -12.4460  -12.5800   11.7400 C.ar  150  TYR150      0.1957
     61  OH       -13.3130  -11.6240   12.2330 O.3   150  TYR150     -0.2866
     62  N         -6.8790   -7.0900   14.1890 N.3   329  MET329     -0.1245
     63  CA        -6.1160   -7.6320   13.0670 C.3   329  MET329      0.1570
     64  C         -5.0820   -6.6120   12.6230 C.2   329  MET329      0.2261
     65  O         -5.4580   -5.4740   12.2880 O.2   329  MET329     -0.2867
     66  CB        -6.9450   -7.9050   11.8280 C.3   329  MET329      0.0387
     67  CG        -7.8840   -9.0930   11.9160 C.3   329  MET329      0.0595
     68  SD        -8.5360   -9.6240   10.3300 S.3   329  MET329     -0.1393
     69  CE        -9.6640   -8.2620    9.9390 C.3   329  MET329      0.0692
     70  N         -1.4970  -14.6010    5.9430 N.3   339  TRP339     -0.1241
     71  CA        -2.6660  -15.4670    5.8610 C.3   339  TRP339      0.1605
     72  C         -2.3480  -16.7290    5.0700 C.2   339  TRP339      0.2264
     73  O         -2.8210  -17.8200    5.4050 O.2   339  TRP339     -0.2867
     74  CB        -3.8440  -14.7360    5.2210 C.3   339  TRP339      0.0550
     75  CG        -4.4090  -13.6080    6.0080 C.ar  339  TRP339      0.0003
     76  CD1       -4.5060  -12.3020    5.6090 C.ar  339  TRP339      0.0946
     77  CD2       -5.0120  -13.6670    7.3130 C.ar  339  TRP339      0.0152
     78  NE1       -5.1040  -11.5500    6.5820 N.ar  339  TRP339     -0.2442
     79  CE2       -5.4490  -12.3610    7.6280 C.ar  339  TRP339      0.0810
     80  CE3       -5.2440  -14.6980    8.2340 C.ar  339  TRP339      0.0012
     81  CZ2       -6.0750  -12.0630    8.8310 C.ar  339  TRP339      0.0191
     82  CZ3       -5.8730  -14.3990    9.4110 C.ar  339  TRP339      0.0001
     83  CH2       -6.2870  -13.1050    9.7030 C.ar  339  TRP339      0.0015
@<TRIPOS>BOND
     1     9     8    2
     2     8     7    1
     3     7     6    1
     4     7    10    1
     5    10    11    1
     6    11    12    1
     7    12    13    1
     8    13    14    1
     9     3     4    2
    10     3     2    1
    11    35    34    2
    12     1     2    1
    13     2     5    1
    14    34    36   am
    15    34    33    1
    16    31    30    2
    17    32    33    1
    18    32    29    1
    19    30    29    1
    20    29    28    1
    21    15    16    1
    22    72    73    2
    23    72    71    1
    24    74    71    1
    25    74    75    1
    26    28    22   am
    27    18    17    2
    28    76    75   ar
    29    76    78   ar
    30    71    70    1
    31    75    77   ar
    32    27    25   ar
    33    16    17    1
    34    16    19    1
    35    23    22    2
    36    22    21    1
    37    78    79   ar
    38    26    25   ar
    39    25    24    1
    40    77    79   ar
    41    77    80   ar
    42    44    42   am
    43    21    20    1
    44    21    24    1
    45    79    81   ar
    46    80    82   ar
    47    38    37    1
    48    38    41    1
    49    38    39    1
    50    42    41    1
    51    42    43    2
    52    81    83   ar
    53    45    39   am
    54    45    46    1
    55    49    46    1
    56    82    83   ar
    57    39    40    2
    58    69    68    1
    59    46    47    1
    60    54    55    1
    61    54    51    1
    62    50    47   am
    63    50    51    1
    64    68    67    1
    65    55    56   ar
    66    55    57   ar
    67    47    48    2
    68    56    58   ar
    69    51    52    1
    70    57    59   ar
    71    58    60   ar
    72    59    60   ar
    73    60    61    1
    74    66    67    1
    75    66    63    1
    76    52    53    2
    77    65    64    2
    78    64    63    1
    79    63    62    1
