@<TRIPOS>MOLECULE
tmp/5mtvA00.pdb
 188 185 0 0 0
SMALL
GASTEIGER

@<TRIPOS>ATOM
      1  N         53.5860  161.3600   56.6100 N.3    51  GLN51      -0.1231
      2  CA        53.0550  161.0640   57.9280 C.3    51  GLN51       0.1698
      3  C         54.1620  160.5780   58.8590 C.2    51  GLN51       0.2592
      4  O         55.2930  160.3090   58.4480 O.2    51  GLN51      -0.2718
      5  CB        51.9430  160.0240   57.8310 C.3    51  GLN51       0.0381
      6  CG        50.6770  160.5510   57.1850 C.3    51  GLN51       0.0905
      7  CD        49.6400  159.4750   56.9150 C.2    51  GLN51       0.2608
      8  OE1       48.6230  159.7420   56.2790 O.2    51  GLN51      -0.2717
      9  NE2       49.8830  158.2560   57.3930 N.am   51  GLN51      -0.0878
     10  N         53.8130  160.4670   60.1370 N.am   52  TYR52      -0.1962
     11  CA        54.7830  160.0950   61.1540 C.3    52  TYR52       0.1771
     12  C         55.3190  158.6890   60.9030 C.2    52  TYR52       0.2620
     13  O         54.6060  157.7990   60.4330 O.2    52  TYR52      -0.2715
     14  CB        54.1420  160.1780   62.5390 C.3    52  TYR52       0.0574
     15  CG        55.0830  159.8780   63.6830 C.ar   52  TYR52      -0.0198
     16  CD1       55.9560  160.8450   64.1620 C.ar   52  TYR52      -0.0009
     17  CD2       55.0880  158.6300   64.2920 C.ar   52  TYR52      -0.0009
     18  CE1       56.8140  160.5750   65.2100 C.ar   52  TYR52       0.0417
     19  CE2       55.9410  158.3510   65.3400 C.ar   52  TYR52       0.0417
     20  CZ        56.8020  159.3260   65.7950 C.ar   52  TYR52       0.1957
     21  OH        57.6520  159.0480   66.8400 O.3    52  TYR52      -0.2866
     22  N         56.6020  158.5060   61.2120 N.am   53  SER53      -0.1936
     23  CA        57.2510  157.1970   61.1770 C.3    53  SER53       0.2055
     24  C         57.2430  156.5800   59.7800 C.2    53  SER53       0.2644
     25  O         57.2710  155.3560   59.6360 O.2    53  SER53      -0.2714
     26  CB        56.6040  156.2350   62.1770 C.3    53  SER53       0.2130
     27  OG        57.2960  154.9980   62.2130 O.3    53  SER53      -0.2179
     28  N         57.2090  157.4080   58.7360 N.am   54  THR54      -0.1936
     29  CA        57.2970  156.8980   57.3730 C.3    54  THR54       0.2028
     30  C         58.7350  156.7500   56.8960 C.2    54  THR54       0.2643
     31  O         59.0250  155.8450   56.1050 O.2    54  THR54      -0.2714
     32  CB        56.5310  157.8110   56.4090 C.3    54  THR54       0.1808
     33  OG1       55.1590  157.8890   56.8120 O.3    54  THR54      -0.2208
     34  CG2       56.5930  157.2720   54.9820 C.3    54  THR54       0.0379
     35  N         59.6400  157.6170   57.3500 N.am   55  GLY55      -0.1939
     36  CA        61.0420  157.4990   56.9990 C.3    55  GLY55       0.2014
     37  C         61.6440  158.7440   56.3820 C.2    55  GLY55       0.2639
     38  O         62.6740  158.6630   55.7070 O.2    55  GLY55      -0.2714
     39  N         61.0170  159.9020   56.5970 N.am   56  LYS56      -0.1963
     40  CA        61.5480  161.1440   56.0390 C.3    56  LYS56       0.1728
     41  C         62.9640  161.4040   56.5330 C.2    56  LYS56       0.2617
     42  O         63.8850  161.6330   55.7420 O.2    56  LYS56      -0.2715
     43  CB        60.6400  162.3180   56.4130 C.3    56  LYS56       0.0311
     44  CG        59.2720  162.3090   55.7360 C.3    56  LYS56       0.0038
     45  CD        58.6560  163.7010   55.6740 C.3    56  LYS56       0.0206
     46  CE        57.5620  163.8830   56.7060 C.3    56  LYS56       0.1093
     47  NZ        58.0870  163.8190   58.0940 N.3    56  LYS56      -0.1314
     48  N         63.1440  161.3960   57.8500 N.am   57  THR57      -0.1937
     49  CA        64.4260  161.7240   58.4450 C.3    57  THR57       0.2028
     50  C         65.4900  160.6960   58.0640 C.2    57  THR57       0.2642
     51  O         66.6450  161.0570   57.8030 O.2    57  THR57      -0.2714
     52  CB        64.2280  161.8350   59.9540 C.3    57  THR57       0.1808
     53  OG1       65.1170  162.8120   60.4980 O.3    57  THR57      -0.2208
     54  CG2       64.3860  160.5000   60.6120 C.3    57  THR57       0.0379
     55  N         65.1170  159.4120   57.9970 N.am   58  THR58      -0.1950
     56  CA        66.0570  158.3900   57.5410 C.3    58  THR58       0.1897
     57  C         66.3260  158.5220   56.0470 C.2    58  THR58       0.2313
     58  O         67.4500  158.2960   55.5850 O.2    58  THR58      -0.2863
     59  CB        65.5140  156.9960   57.8570 C.3    58  THR58       0.1794
     60  OG1       65.1860  156.9090   59.2490 O.3    58  THR58      -0.2208
     61  CG2       66.5420  155.9200   57.5180 C.3    58  THR58       0.0378
     62  N         69.0240  165.6600   63.9120 N.3    71  MET71      -0.1230
     63  CA        68.1960  164.8080   63.0660 C.3    71  MET71       0.1702
     64  C         67.0940  164.1410   63.8820 C.2    71  MET71       0.2592
     65  O         65.9200  164.1630   63.4940 O.2    71  MET71      -0.2718
     66  CB        69.0640  163.7680   62.3540 C.3    71  MET71       0.0401
     67  CG        69.4910  162.5750   63.2080 C.3    71  MET71       0.0596
     68  SD        70.7160  161.5070   62.4200 S.3    71  MET71      -0.1393
     69  CE        70.2830  161.6660   60.6970 C.3    71  MET71       0.0692
     70  N         67.4520  163.5520   65.0230 N.am   72  ARG72      -0.1966
     71  CA        66.4720  162.9720   65.9320 C.3    72  ARG72       0.1729
     72  C         65.5810  161.9660   65.2080 C.2    72  ARG72       0.2616
     73  O         64.5170  162.3250   64.6960 O.2    72  ARG72      -0.2715
     74  CB        65.6330  164.0860   66.5630 C.3    72  ARG72       0.0348
     75  CG        65.0710  163.7540   67.9340 C.3    72  ARG72       0.0492
     76  CD        64.1680  164.8700   68.4440 C.3    72  ARG72       0.2205
     77  NE        64.9050  166.1040   68.7150 N.pl3  72  ARG72      -0.0865
     78  CZ        65.4870  166.4010   69.8740 C.cat  72  ARG72       0.5346
     79  NH1       65.4310  165.5550   70.8950 N.pl3  72  ARG72       0.1354
     80  NH2       66.1330  167.5520   70.0160 N.pl3  72  ARG72       0.1354
     81  N         66.0090  160.7070   65.1580 N.am   73  ILE73      -0.1963
     82  CA        65.2510  159.6610   64.4780 C.3    73  ILE73       0.1727
     83  C         64.2010  159.1010   65.4280 C.2    73  ILE73       0.2617
     84  O         64.5190  158.6680   66.5420 O.2    73  ILE73      -0.2715
     85  CB        66.1920  158.5570   63.9610 C.3    73  ILE73       0.0290
     86  CG1       66.8230  159.0030   62.6360 C.3    73  ILE73       0.0022
     87  CG2       65.4390  157.2230   63.7840 C.3    73  ILE73       0.0023
     88  CD1       67.6910  157.9720   61.9320 C.3    73  ILE73       0.0001
     89  N         62.9430  159.1020   64.9860 N.am   74  GLY74      -0.1941
     90  CA        61.8490  158.5830   65.7750 C.3    74  GLY74       0.1998
     91  C         61.5670  159.4080   67.0150 C.2    74  GLY74       0.2480
     92  O         61.7210  158.9410   68.1480 O.2    74  GLY74      -0.2729
     93  N         61.1380  160.6630   66.8220 N.am   75  PRO75      -0.2726
     94  CA        60.9390  161.5640   67.9620 C.3    75  PRO75       0.1402
     95  C         59.4960  161.6160   68.4290 C.2    75  PRO75       0.2269
     96  O         58.6150  161.0010   67.8210 O.2    75  PRO75      -0.2865
     97  CB        61.3810  162.9150   67.3960 C.3    75  PRO75       0.0296
     98  CG        60.9100  162.8480   65.9680 C.3    75  PRO75       0.0237
     99  CD        61.0200  161.3860   65.5470 C.3    75  PRO75       0.0939
    100  N         58.9470  166.8870   67.3070 N.3    80  ASP80      -0.1225
    101  CA        59.2010  166.8480   65.8730 C.3    80  ASP80       0.1805
    102  C         58.9920  168.2310   65.2690 C.2    80  ASP80       0.2598
    103  O         58.0520  168.9460   65.6260 O.2    80  ASP80      -0.2718
    104  CB        58.2790  165.8270   65.2060 C.3    80  ASP80       0.1424
    105  CG        58.7610  165.4130   63.8320 C.2    80  ASP80       0.3668
    106  OD1       59.9720  165.5450   63.5600 O.co2  80  ASP80      -0.2456
    107  OD2       57.9280  164.9580   63.0220 O.co2  80  ASP80      -0.2456
    108  N         59.8720  168.6100   64.3420 N.am   81  SER81      -0.1952
    109  CA        59.9060  169.9870   63.8690 C.3    81  SER81       0.1924
    110  C         60.4350  170.0560   62.4430 C.2    81  SER81       0.2314
    111  O         61.0370  169.1090   61.9310 O.2    81  SER81      -0.2863
    112  CB        60.7770  170.8540   64.7840 C.3    81  SER81       0.2116
    113  OG        62.0910  170.3330   64.8730 O.3    81  SER81      -0.2180
    114  N         63.0090  168.9540   55.8070 N.3   138  ASP138     -0.1225
    115  CA        62.2300  167.9150   56.4640 C.3   138  ASP138      0.1805
    116  C         61.0900  168.5640   57.2330 C.2   138  ASP138      0.2598
    117  O         61.3080  169.5170   57.9870 O.2   138  ASP138     -0.2718
    118  CB        63.1020  167.0890   57.4140 C.3   138  ASP138      0.1424
    119  CG        62.4710  165.7420   57.7720 C.2   138  ASP138      0.3668
    120  OD1       61.2420  165.5990   57.6020 O.co2 138  ASP138     -0.2456
    121  OD2       63.1910  164.8230   58.2240 O.co2 138  ASP138     -0.2456
    122  N         59.8810  168.0580   57.0330 N.am  139  SER139     -0.1952
    123  CA        58.7120  168.5720   57.7270 C.3   139  SER139      0.1924
    124  C         58.3250  167.6470   58.8720 C.2   139  SER139      0.2314
    125  O         58.7030  166.4730   58.8930 O.2   139  SER139     -0.2863
    126  CB        57.5330  168.7110   56.7590 C.3   139  SER139      0.2116
    127  OG        57.1120  167.4430   56.2900 O.3   139  SER139     -0.2180
    128  N         56.3500  164.9740   60.9640 N.3   141  GLY141     -0.1225
    129  CA        55.5060  163.8620   60.5810 C.3   141  GLY141      0.1811
    130  C         54.0460  164.1560   60.8480 C.2   141  GLY141      0.2280
    131  O         53.6790  164.5340   61.9640 O.2   141  GLY141     -0.2866
    132  N         57.8260  153.8380   50.5380 N.3   198  ASN198     -0.1225
    133  CA        58.9560  153.4320   51.3550 C.3   198  ASN198      0.1785
    134  C         58.6610  152.1230   52.0790 C.2   198  ASN198      0.2597
    135  O         57.5150  151.6780   52.1730 O.2   198  ASN198     -0.2718
    136  CB        59.2890  154.5330   52.3670 C.3   198  ASN198      0.1169
    137  CG        60.7190  154.4680   52.8540 C.2   198  ASN198      0.2627
    138  OD1       61.5370  153.7220   52.3180 O.2   198  ASN198     -0.2716
    139  ND2       61.0320  155.2620   53.8720 N.am  198  ASN198     -0.0877
    140  N         59.7250  151.5060   52.5950 N.am  199  LYS199     -0.1980
    141  CA        59.6210  150.2580   53.3530 C.3   199  LYS199      0.1596
    142  C         59.0100  149.1370   52.5150 C.2   199  LYS199      0.2287
    143  O         58.4010  148.2080   53.0510 O.2   199  LYS199     -0.2864
    144  CB        58.8030  150.4550   54.6340 C.3   199  LYS199      0.0298
    145  CG        59.2360  151.6320   55.4920 C.3   199  LYS199      0.0038
    146  CD        58.5830  151.5710   56.8660 C.3   199  LYS199      0.0206
    147  CE        58.8970  152.8010   57.7020 C.3   199  LYS199      0.1093
    148  NZ        58.2670  152.7170   59.0510 N.3   199  LYS199     -0.1314
    149  N         59.2530  145.3760   53.4660 N.3   202  GLN202     -0.1245
    150  CA        58.6940  144.8450   54.7030 C.3   202  GLN202      0.1566
    151  C         57.4760  143.9640   54.4640 C.2   202  GLN202      0.2260
    152  O         57.1760  143.1050   55.3010 O.2   202  GLN202     -0.2867
    153  CB        58.3100  145.9930   55.6380 C.3   202  GLN202      0.0367
    154  CG        59.4380  146.9720   55.9260 C.3   202  GLN202      0.0905
    155  CD        60.5020  146.3950   56.8360 C.2   202  GLN202      0.2608
    156  OE1       61.6820  146.3540   56.4860 O.2   202  GLN202     -0.2717
    157  NE2       60.0900  145.9570   58.0200 N.am  202  GLN202     -0.0878
    158  N         63.0330  150.6040   49.4430 N.3   235  SER235     -0.1202
    159  CA        63.3800  150.7530   50.8530 C.3   235  SER235      0.2020
    160  C         64.6290  151.6200   50.9190 C.2   235  SER235      0.2619
    161  O         65.7330  151.1520   50.6190 O.2   235  SER235     -0.2717
    162  CB        63.6150  149.3960   51.5140 C.3   235  SER235      0.2103
    163  OG        63.8090  149.5400   52.9100 O.3   235  SER235     -0.2182
    164  N         64.4560  152.8780   51.3190 N.am  236  PHE236     -0.1961
    165  CA        65.5070  153.8840   51.1920 C.3   236  PHE236      0.1771
    166  C         66.2140  154.0530   52.5340 C.2   236  PHE236      0.2619
    167  O         65.9320  154.9600   53.3180 O.2   236  PHE236     -0.2715
    168  CB        64.9130  155.1890   50.6750 C.3   236  PHE236      0.0574
    169  CG        64.2280  155.0380   49.3490 C.ar  236  PHE236     -0.0200
    170  CD1       62.8750  154.7600   49.2830 C.ar  236  PHE236     -0.0042
    171  CD2       64.9450  155.1340   48.1700 C.ar  236  PHE236     -0.0042
    172  CE1       62.2460  154.6000   48.0640 C.ar  236  PHE236     -0.0003
    173  CE2       64.3210  154.9760   46.9480 C.ar  236  PHE236     -0.0003
    174  CZ        62.9700  154.7100   46.8950 C.ar  236  PHE236     -0.0000
    175  N         67.1510  153.1430   52.7900 N.am  237  TRP237     -0.1974
    176  CA        68.0900  153.2660   53.8980 C.3   237  TRP237      0.1640
    177  C         69.1960  152.2380   53.6880 C.2   237  TRP237      0.2290
    178  O         69.1420  151.4190   52.7670 O.2   237  TRP237     -0.2864
    179  CB        67.4050  153.0960   55.2590 C.3   237  TRP237      0.0576
    180  CG        66.7990  151.7500   55.5230 C.ar  237  TRP237      0.0006
    181  CD1       66.6060  150.7350   54.6300 C.ar  237  TRP237      0.0946
    182  CD2       66.3040  151.2770   56.7800 C.ar  237  TRP237      0.0152
    183  NE1       66.0220  149.6600   55.2560 N.ar  237  TRP237     -0.2442
    184  CE2       65.8250  149.9690   56.5760 C.ar  237  TRP237      0.0810
    185  CE3       66.2200  151.8350   58.0600 C.ar  237  TRP237      0.0012
    186  CZ2       65.2740  149.2090   57.6050 C.ar  237  TRP237      0.0191
    187  CZ3       65.6700  151.0800   59.0780 C.ar  237  TRP237      0.0001
    188  CH2       65.2030  149.7820   58.8450 C.ar  237  TRP237      0.0015
@<TRIPOS>BOND
     1   174   173   ar
     2   174   172   ar
     3   173   171   ar
     4   172   170   ar
     5   171   169   ar
     6   170   169   ar
     7   169   168    1
     8   158   159    1
     9   132   133    1
    10   161   160    2
    11   168   165    1
    12   159   160    1
    13   159   162    1
    14   160   164   am
    15   165   164    1
    16   165   166    1
    17   133   134    1
    18   133   136    1
    19   162   163    1
    20   134   135    2
    21   134   140   am
    22   138   137    2
    23   136   137    1
    24   142   143    2
    25   142   141    1
    26   166   175   am
    27   166   167    2
    28   140   141    1
    29   178   177    2
    30   175   176    1
    31   137   139   am
    32   141   144    1
    33   149   150    1
    34   177   176    1
    35   176   179    1
    36   151   150    1
    37   151   152    2
    38   181   183   ar
    39   181   180   ar
    40   144   145    1
    41   150   153    1
    42    34    32    1
    43   183   184   ar
    44   179   180    1
    45   145   146    1
    46   180   182   ar
    47    58    57    2
    48   153   154    1
    49    45    44    1
    50    45    46    1
    51    38    37    2
    52    44    43    1
    53    42    41    2
    54   114   115    1
    55   154   155    1
    56    40    43    1
    57    40    41    1
    58    40    39    1
    59    57    56    1
    60    31    30    2
    61     8     7    2
    62   127   126    1
    63    37    39   am
    64    37    36    1
    65    32    33    1
    66    32    29    1
    67   115   116    1
    68   115   118    1
    69   156   155    2
    70    41    48   am
    71   184   182   ar
    72   184   186   ar
    73     1     2    1
    74    46    47    1
    75   126   123    1
    76   182   185   ar
    77   155   157   am
    78   146   147    1
    79    30    35   am
    80    30    29    1
    81     7     6    1
    82     7     9   am
    83    36    35    1
    84   122   116   am
    85   122   123    1
    86     6     5    1
    87   116   117    2
    88    29    28    1
    89   118   119    1
    90    61    59    1
    91    56    59    1
    92    56    55    1
    93   120   119   ar
    94   186   188   ar
    95   147   148    1
    96   123   124    1
    97   119   121   ar
    98    51    50    2
    99     5     2    1
   100    48    49    1
   101    59    60    1
   102     2     3    1
   103    55    50   am
   104   185   187   ar
   105    50    49    1
   106    49    52    1
   107     4     3    2
   108    28    24   am
   109   188   187   ar
   110     3    10   am
   111   124   125    2
   112    25    24    2
   113    24    23    1
   114    52    53    1
   115    52    54    1
   116    10    11    1
   117    13    12    2
   118   129   130    1
   119   129   128    1
   120    69    68    1
   121   130   131    2
   122    12    11    1
   123    12    22   am
   124    11    14    1
   125    23    22    1
   126    23    26    1
   127   111   110    2
   128    88    86    1
   129    26    27    1
   130    66    63    1
   131    66    67    1
   132    68    67    1
   133   110   109    1
   134    14    15    1
   135    86    85    1
   136   107   105   ar
   137    63    64    1
   138    63    62    1
   139    65    64    2
   140   106   105   ar
   141    15    16   ar
   142    15    17   ar
   143    87    85    1
   144   105   104    1
   145   109   108    1
   146   109   112    1
   147    64    70   am
   148    85    82    1
   149    16    18   ar
   150    17    19   ar
   151   108   102   am
   152    82    81    1
   153    82    83    1
   154    73    72    2
   155   112   113    1
   156    89    83   am
   157    89    90    1
   158    70    71    1
   159    81    72   am
   160   104   101    1
   161    72    71    1
   162    18    20   ar
   163   102   103    2
   164   102   101    1
   165    19    20   ar
   166    83    84    2
   167    99    98    1
   168    99    93    1
   169    90    91    1
   170    20    21    1
   171   101   100    1
   172    71    74    1
   173    98    97    1
   174    74    75    1
   175    93    91   am
   176    93    94    1
   177    91    92    2
   178    97    94    1
   179    96    95    2
   180    75    76    1
   181    94    95    1
   182    76    77    1
   183    77    78    2
   184    78    80    1
   185    78    79    1
