@<TRIPOS>MOLECULE
tmp/5mtyA02.pdb
 136 134 0 0 0
SMALL
GASTEIGER

@<TRIPOS>ATOM
      1  N          0.7400   -1.5400   -3.3260 N.3   171  LEU171     -0.1231
      2  CA         0.1770   -1.9270   -2.0310 C.3   171  LEU171      0.1693
      3  C          0.9060   -3.0770   -1.3120 C.2   171  LEU171      0.2592
      4  O          0.3790   -3.6350   -0.3620 O.2   171  LEU171     -0.2718
      5  CB        -1.2960   -2.2840   -2.2260 C.3   171  LEU171      0.0284
      6  CG        -2.2000   -1.1120   -2.6040 C.3   171  LEU171      0.0019
      7  CD1       -3.6530   -1.5610   -2.6660 C.3   171  LEU171      0.0001
      8  CD2       -2.0190    0.0370   -1.6020 C.3   171  LEU171      0.0001
      9  N          2.1100   -3.4230   -1.7550 N.am  172  ASN172     -0.1960
     10  CA         2.9120   -4.4650   -1.1310 C.3   172  ASN172      0.1819
     11  C          2.1910   -5.8100   -0.9350 C.2   172  ASN172      0.2621
     12  O          2.3430   -6.4870    0.0740 O.2   172  ASN172     -0.2715
     13  CB         3.4640   -3.9370    0.1910 C.3   172  ASN172      0.1195
     14  CG         4.6680   -4.7050    0.6660 C.2   172  ASN172      0.2630
     15  OD1        5.4200   -5.2580   -0.1330 O.2   172  ASN172     -0.2716
     16  ND2        4.8520   -4.7560    1.9680 N.am  172  ASN172     -0.0877
     17  N          1.4320   -6.1960   -1.9390 N.am  173  TRP173     -0.1960
     18  CA         0.6390   -7.4080   -1.8830 C.3   173  TRP173      0.1771
     19  C          1.4940   -8.6710   -1.6800 C.2   173  TRP173      0.2620
     20  O          1.1630   -9.5090   -0.8680 O.2   173  TRP173     -0.2715
     21  CB        -0.1760   -7.5110   -3.1490 C.3   173  TRP173      0.0590
     22  CG        -1.4800   -8.0980   -2.9840 C.ar  173  TRP173      0.0006
     23  CD1       -1.7560   -9.4020   -2.9020 C.ar  173  TRP173      0.0946
     24  CD2       -2.7180   -7.4140   -2.9200 C.ar  173  TRP173      0.0152
     25  NE1       -3.0900   -9.5950   -2.7860 N.ar  173  TRP173     -0.2442
     26  CE2       -3.7130   -8.3860   -2.7880 C.ar  173  TRP173      0.0810
     27  CE3       -3.0850   -6.0720   -2.9580 C.ar  173  TRP173      0.0012
     28  CZ2       -5.0510   -8.0780   -2.6920 C.ar  173  TRP173      0.0191
     29  CZ3       -4.4270   -5.7600   -2.8640 C.ar  173  TRP173      0.0001
     30  CH2       -5.3910   -6.7580   -2.7330 C.ar  173  TRP173      0.0015
     31  N          2.5920   -8.7880   -2.4050 N.am  174  MET174     -0.1963
     32  CA         3.5750   -9.8640   -2.2280 C.3   174  MET174      0.1736
     33  C          3.4500  -11.1920   -2.9470 C.2   174  MET174      0.2616
     34  O          4.3030  -12.0420   -2.7460 O.2   174  MET174     -0.2715
     35  CB         3.8020  -10.2100   -0.7400 C.3   174  MET174      0.0427
     36  CG         4.8820   -9.3950   -0.0960 C.3   174  MET174      0.0599
     37  SD         6.1680   -8.9250   -1.2610 S.3   174  MET174     -0.1393
     38  CE         6.5570  -10.5120   -2.0060 C.3   174  MET174      0.0692
     39  N          2.4220  -11.4330   -3.7470 N.am  175  HIS175     -0.1973
     40  CA         2.3810  -12.7000   -4.4560 C.3   175  HIS175      0.1656
     41  C          2.0890  -12.3520   -5.8840 C.2   175  HIS175      0.2291
     42  O          1.0040  -12.6270   -6.3530 O.2   175  HIS175     -0.2864
     43  CB         1.2910  -13.6440   -3.9290 C.3   175  HIS175      0.0771
     44  CG         1.1570  -13.6630   -2.4530 C.ar  175  HIS175      0.0820
     45  ND1        0.9910  -12.5130   -1.7120 N.ar  175  HIS175     -0.2267
     46  CD2        1.1160  -14.6920   -1.5720 C.ar  175  HIS175      0.1154
     47  CE1        0.8790  -12.8270   -0.4360 C.ar  175  HIS175      0.1986
     48  NE2        0.9460  -14.1440   -0.3220 N.ar  175  HIS175     -0.2212
     49  N          1.8450    8.5070   -3.8850 N.3   204  HIS204     -0.1226
     50  CA         1.3300    7.1750   -3.7500 C.3   204  HIS204      0.1752
     51  C         -0.1840    7.0940   -3.7000 C.2   204  HIS204      0.2595
     52  O         -0.7840    6.3040   -4.3900 O.2   204  HIS204     -0.2718
     53  CB         1.8790    6.5170   -2.5090 C.3   204  HIS204      0.0759
     54  CG         1.3790    5.1270   -2.3400 C.ar  204  HIS204      0.0818
     55  ND1        0.2640    4.8220   -1.5850 N.ar  204  HIS204     -0.2268
     56  CD2        1.7970    3.9700   -2.8900 C.ar  204  HIS204      0.1154
     57  CE1        0.0510    3.5250   -1.6400 C.ar  204  HIS204      0.1986
     58  NE2        0.9720    2.9830   -2.4150 N.ar  204  HIS204     -0.2212
     59  N         -0.8000    7.8810   -2.8510 N.am  205  ILE205     -0.1980
     60  CA        -2.2430    7.7150   -2.6140 C.3   205  ILE205      0.1595
     61  C         -3.0580    8.2810   -3.7810 C.2   205  ILE205      0.2287
     62  O         -4.1040    7.7600   -4.1100 O.2   205  ILE205     -0.2864
     63  CB        -2.6830    8.2980   -1.2230 C.3   205  ILE205      0.0276
     64  CG1       -4.1210    7.9070   -0.8460 C.3   205  ILE205      0.0022
     65  CG2       -2.5490    9.8190   -1.1690 C.3   205  ILE205      0.0022
     66  CD1       -4.2300    6.5350   -0.2250 C.3   205  ILE205      0.0001
     67  N         -3.4270    5.7260   -6.6110 N.3   208  LEU208     -0.1245
     68  CA        -4.4520    4.7220   -6.3160 C.3   208  LEU208      0.1561
     69  C         -5.8320    5.3250   -6.4620 C.2   208  LEU208      0.2260
     70  O         -6.7640    4.6380   -6.8790 O.2   208  LEU208     -0.2867
     71  CB        -4.2830    4.1660   -4.9040 C.3   208  LEU208      0.0270
     72  CG        -3.0630    3.2790   -4.5970 C.3   208  LEU208      0.0019
     73  CD1       -2.8600    3.1510   -3.1040 C.3   208  LEU208      0.0001
     74  CD2       -3.2090    1.8870   -5.2010 C.3   208  LEU208      0.0001
     75  N         -8.7660    4.0860   -9.2040 N.3   212  LEU212     -0.1245
     76  CA       -10.1100    3.6940   -8.7720 C.3   212  LEU212      0.1561
     77  C        -11.1950    4.4940   -9.4590 C.2   212  LEU212      0.2260
     78  O        -12.2710    3.9760   -9.6890 O.2   212  LEU212     -0.2867
     79  CB       -10.2750    3.8310   -7.2510 C.3   212  LEU212      0.0270
     80  CG        -9.6610    2.7260   -6.4100 C.3   212  LEU212      0.0019
     81  CD1       -9.8530    3.0880   -4.9510 C.3   212  LEU212      0.0001
     82  CD2      -10.2660    1.3570   -6.7190 C.3   212  LEU212      0.0001
     83  N        -11.0680  -11.8610   -1.6270 N.3   225  LYS225     -0.1231
     84  CA        -9.6910  -12.3420   -1.6570 C.3   225  LYS225      0.1693
     85  C         -8.8190  -11.4190   -0.8120 C.2   225  LYS225      0.2592
     86  O         -7.6020  -11.5280   -0.8320 O.2   225  LYS225     -0.2718
     87  CB        -9.1970  -12.4350   -3.1010 C.3   225  LYS225      0.0285
     88  CG       -10.3200  -12.7250   -4.1020 C.3   225  LYS225      0.0035
     89  CD        -9.9330  -13.6980   -5.1940 C.3   225  LYS225      0.0206
     90  CE        -9.1720  -13.0350   -6.3250 C.3   225  LYS225      0.1093
     91  NZ        -9.6240  -13.5250   -7.6670 N.3   225  LYS225     -0.1314
     92  N         -9.4420  -10.5360   -0.0420 N.am  226  ILE226     -0.1966
     93  CA        -8.7350   -9.6260    0.8800 C.3   226  ILE226      0.1727
     94  C         -8.9900   -9.9610    2.3510 C.2   226  ILE226      0.2617
     95  O        -10.0930   -9.7820    2.8600 O.2   226  ILE226     -0.2715
     96  CB        -9.1660   -8.1720    0.6230 C.3   226  ILE226      0.0290
     97  CG1       -8.9850   -7.8910   -0.8870 C.3   226  ILE226      0.0022
     98  CG2       -8.4250   -7.2230    1.5720 C.3   226  ILE226      0.0023
     99  CD1       -9.1180   -6.4390   -1.2900 C.3   226  ILE226      0.0001
    100  N         -7.9410  -10.4090    3.0150 N.am  227  SER227     -0.1936
    101  CA        -7.9860  -10.8420    4.4160 C.3   227  SER227      0.2055
    102  C         -8.3950   -9.7570    5.4160 C.2   227  SER227      0.2643
    103  O         -9.3650   -9.9260    6.1240 O.2   227  SER227     -0.2714
    104  CB        -6.6060  -11.3680    4.8170 C.3   227  SER227      0.2130
    105  OG        -6.6050  -11.7180    6.1710 O.3   227  SER227     -0.2179
    106  N         -7.6330   -8.6690    5.4700 N.am  228  SER228     -0.1949
    107  CA        -7.8800   -7.5750    6.4090 C.3   228  SER228      0.1924
    108  C         -9.2960   -6.9720    6.3270 C.2   228  SER228      0.2314
    109  O         -9.7100   -6.4780    5.2840 O.2   228  SER228     -0.2863
    110  CB        -6.8500   -6.4690    6.1660 C.3   228  SER228      0.2116
    111  OG        -7.1920   -5.2750    6.8420 O.3   228  SER228     -0.2180
    112  N         -8.9670   -3.0580    6.0050 N.3   231  ALA231     -0.1245
    113  CA        -8.7880   -2.7270    4.5900 C.3   231  ALA231      0.1562
    114  C        -10.0920   -2.8380    3.8570 C.2   231  ALA231      0.2260
    115  O        -10.4450   -1.9800    3.0880 O.2   231  ALA231     -0.2867
    116  CB        -7.7710   -3.6580    3.9480 C.3   231  ALA231      0.0290
    117  N        -12.6190   -0.0270    4.9200 N.3   234  TYR234     -0.1227
    118  CA       -12.2390    1.2490    4.3710 C.3   234  TYR234      0.1736
    119  C        -12.7390    1.3350    2.9400 C.2   234  TYR234      0.2595
    120  O        -13.2170    2.3640    2.5110 O.2   234  TYR234     -0.2718
    121  CB       -10.7200    1.4350    4.3970 C.3   234  TYR234      0.0548
    122  CG       -10.3380    2.6330    3.6110 C.ar  234  TYR234     -0.0200
    123  CD1      -10.4010    3.9050    4.1780 C.ar  234  TYR234     -0.0009
    124  CD2      -10.0030    2.5180    2.2650 C.ar  234  TYR234     -0.0009
    125  CE1      -10.0980    5.0270    3.4390 C.ar  234  TYR234      0.0417
    126  CE2       -9.6960    3.6350    1.5220 C.ar  234  TYR234      0.0417
    127  CZ        -9.7520    4.8780    2.1180 C.ar  234  TYR234      0.1957
    128  OH        -9.4470    5.9800    1.4000 O.3   234  TYR234     -0.2866
    129  N        -12.6040    0.2440    2.2090 N.am  235  ILE235     -0.1980
    130  CA       -12.9890    0.2220    0.8100 C.3   235  ILE235      0.1595
    131  C        -14.4960    0.3560    0.6110 C.2   235  ILE235      0.2287
    132  O        -14.9490    1.1840   -0.1680 O.2   235  ILE235     -0.2864
    133  CB       -12.4550   -1.0580    0.1260 C.3   235  ILE235      0.0276
    134  CG1      -10.9360   -0.9340   -0.0560 C.3   235  ILE235      0.0022
    135  CG2      -13.1110   -1.3100   -1.2250 C.3   235  ILE235      0.0022
    136  CD1      -10.1950   -2.2510    0.0290 C.3   235  ILE235      0.0001
@<TRIPOS>BOND
     1    78    77    2
     2    77    76    1
     3    75    76    1
     4    76    79    1
     5    91    90    1
     6    79    80    1
     7    70    69    2
     8    82    80    1
     9    67    68    1
    10    69    68    1
    11    80    81    1
    12    42    41    2
    13    90    89    1
    14    68    71    1
    15    41    40    1
    16    74    72    1
    17    89    88    1
    18    71    72    1
    19    72    73    1
    20    40    43    1
    21    40    39    1
    22    52    51    2
    23    62    61    2
    24    88    87    1
    25    43    44    1
    26    49    50    1
    27    61    60    1
    28    50    51    1
    29    50    53    1
    30    39    33   am
    31    51    59   am
    32     1     2    1
    33    21    22    1
    34    21    18    1
    35    87    84    1
    36    22    24   ar
    37    22    23   ar
    38    27    24   ar
    39    27    29   ar
    40    33    34    2
    41    33    32    1
    42    24    26   ar
    43    23    25   ar
    44    56    58   ar
    45    56    54   ar
    46    29    30   ar
    47    59    60    1
    48    26    25   ar
    49    26    28   ar
    50    30    28   ar
    51     7     6    1
    52    60    63    1
    53     6     5    1
    54     6     8    1
    55    53    54    1
    56    44    45   ar
    57    44    46   ar
    58    58    57   ar
    59    31    32    1
    60    31    19   am
    61    54    55   ar
    62    32    35    1
    63     5     2    1
    64     2     3    1
    65    38    37    1
    66    17    18    1
    67    17    11   am
    68    18    19    1
    69     9     3   am
    70     9    10    1
    71    45    47   ar
    72    19    20    2
    73    84    83    1
    74    84    85    1
    75    57    55   ar
    76    46    48   ar
    77     3     4    2
    78    99    97    1
    79    37    36    1
    80   135   133    1
    81    63    65    1
    82    63    64    1
    83    10    11    1
    84    10    13    1
    85    11    12    2
    86    97    96    1
    87    64    66    1
    88    86    85    2
    89    85    92   am
    90    35    36    1
    91    47    48   ar
    92   132   131    2
    93    15    14    2
    94   134   136    1
    95   134   133    1
    96    92    93    1
    97   133   130    1
    98    13    14    1
    99   131   130    1
   100    96    93    1
   101    96    98    1
   102    14    16   am
   103   130   129    1
   104    93    94    1
   105   128   127    1
   106   126   127   ar
   107   126   124   ar
   108   127   125   ar
   109   129   119   am
   110   124   122   ar
   111    94    95    2
   112    94   100   am
   113   120   119    2
   114   119   118    1
   115   100   101    1
   116   115   114    2
   117   125   123   ar
   118   122   123   ar
   119   122   121    1
   120   114   113    1
   121   116   113    1
   122   118   121    1
   123   118   117    1
   124   101   104    1
   125   101   102    1
   126   113   112    1
   127   104   105    1
   128   109   108    2
   129   102   106   am
   130   102   103    2
   131   106   107    1
   132   110   107    1
   133   110   111    1
   134   108   107    1
