@<TRIPOS>MOLECULE
tmp/5mtyA00.pdb
 187 176 0 0 0
SMALL
GASTEIGER

@<TRIPOS>ATOM
      1  N         30.2720    6.9460  -25.3380 N.3    24  SER24      -0.1203
      2  CA        29.5800    8.1740  -24.9880 C.3    24  SER24       0.2005
      3  C         28.4740    7.8840  -23.9630 C.2    24  SER24       0.2461
      4  O         27.5160    7.1850  -24.2720 O.2    24  SER24      -0.2732
      5  CB        29.0000    8.8120  -26.2490 C.3    24  SER24       0.2103
      6  OG        30.0570    9.2420  -27.0910 O.3    24  SER24      -0.2182
      7  N         28.5960    8.4150  -22.7320 N.am   25  PRO25      -0.2717
      8  CA        27.5700    8.1330  -21.7120 C.3    25  PRO25       0.1535
      9  C         26.1190    8.3380  -22.1470 C.2    25  PRO25       0.2598
     10  O         25.8470    9.1310  -23.0410 O.2    25  PRO25      -0.2715
     11  CB        27.9510    9.0960  -20.5870 C.3    25  PRO25       0.0310
     12  CG        29.4480    9.0720  -20.6450 C.3    25  PRO25       0.0237
     13  CD        29.7570    9.1010  -22.1290 C.3    25  PRO25       0.0939
     14  N         25.2270    7.5700  -21.5260 N.am   26  VAL26      -0.1978
     15  CA        23.7960    7.5790  -21.8060 C.3    26  VAL26       0.1596
     16  C         23.0660    7.7680  -20.4880 C.2    26  VAL26       0.2287
     17  O         22.1360    8.5570  -20.4180 O.2    26  VAL26      -0.2864
     18  CB        23.3310    6.2430  -22.4190 C.3    26  VAL26       0.0276
     19  CG1       21.8230    6.2500  -22.6550 C.3    26  VAL26       0.0022
     20  CG2       24.0950    5.9390  -23.6970 C.3    26  VAL26       0.0022
     21  N         25.6960    3.2850  -18.2550 N.3    28  VAL28      -0.1245
     22  CA        25.7530    2.8220  -19.6240 C.3    28  VAL28       0.1561
     23  C         26.4260    3.8010  -20.6110 C.2    28  VAL28       0.2260
     24  O         26.3230    5.0110  -20.4870 O.2    28  VAL28      -0.2867
     25  CB        24.3360    2.5130  -20.1010 C.3    28  VAL28       0.0252
     26  CG1       24.3290    2.0980  -21.5750 C.3    28  VAL28       0.0019
     27  CG2       23.7360    1.4390  -19.2080 C.3    28  VAL28       0.0019
     28  N         27.0520    4.3280  -25.0040 N.3    30  ALA30      -0.1245
     29  CA        26.9890    3.9360  -26.4200 C.3    30  ALA30       0.1562
     30  C         28.3860    3.8030  -26.9440 C.2    30  ALA30       0.2260
     31  O         29.2780    4.5440  -26.5670 O.2    30  ALA30      -0.2867
     32  CB        26.2420    4.9580  -27.2430 C.3    30  ALA30       0.0290
     33  N         25.7170   -0.9230  -26.6000 N.3    41  ALA41      -0.1245
     34  CA        25.6150   -0.2750  -25.2960 C.3    41  ALA41       0.1562
     35  C         26.4760   -1.0710  -24.3500 C.2    41  ALA41       0.2260
     36  O         26.3710   -2.2750  -24.3140 O.2    41  ALA41      -0.2867
     37  CB        24.1770   -0.2620  -24.8240 C.3    41  ALA41       0.0290
     38  N         27.4820   -1.4840  -20.3540 N.3    43  LYS43      -0.1245
     39  CA        27.1320   -1.1880  -18.9900 C.3    43  LYS43       0.1561
     40  C         28.2580   -1.6090  -18.0950 C.2    43  LYS43       0.2260
     41  O         28.6840   -2.7640  -18.1330 O.2    43  LYS43      -0.2867
     42  CB        25.8670   -1.9350  -18.6270 C.3    43  LYS43       0.0271
     43  CG        25.3850   -1.6920  -17.2080 C.3    43  LYS43       0.0035
     44  CD        23.9100   -2.0520  -17.1000 C.3    43  LYS43       0.0206
     45  CE        23.4970   -2.4160  -15.6870 C.3    43  LYS43       0.1093
     46  NZ        22.0230   -2.7120  -15.5880 N.3    43  LYS43      -0.1314
     47  N         21.8550  -10.7660  -12.9110 N.3    61  GLU61      -0.1245
     48  CA        21.7420   -9.9830  -14.1400 C.3    61  GLU61       0.1567
     49  C         22.4330  -10.6900  -15.2980 C.2    61  GLU61       0.2260
     50  O         21.8710  -10.8180  -16.3640 O.2    61  GLU61      -0.2867
     51  CB        22.3390   -8.5870  -13.9230 C.3    61  GLU61       0.0388
     52  CG        22.3760   -7.7460  -15.1730 C.3    61  GLU61       0.1160
     53  CD        22.6340   -6.2870  -14.9110 C.2    61  GLU61       0.3649
     54  OE1       22.5160   -5.5120  -15.9020 O.co2  61  GLU61      -0.2457
     55  OE2       22.9590   -5.9420  -13.7470 O.co2  61  GLU61      -0.2457
     56  N         20.4390  -13.7590  -16.3520 N.3    64  LEU64      -0.1231
     57  CA        19.2300  -13.4040  -17.0890 C.3    64  LEU64       0.1693
     58  C         19.5540  -13.0370  -18.5230 C.2    64  LEU64       0.2591
     59  O         18.9040  -13.5150  -19.4520 O.2    64  LEU64      -0.2718
     60  CB        18.5060  -12.2380  -16.4130 C.3    64  LEU64       0.0284
     61  CG        17.7970  -12.5330  -15.0880 C.3    64  LEU64       0.0019
     62  CD1       17.5470  -11.2200  -14.3580 C.3    64  LEU64       0.0001
     63  CD2       16.4860  -13.2870  -15.2690 C.3    64  LEU64       0.0001
     64  N         20.5710  -12.2000  -18.6900 N.am   65  LEU65      -0.1980
     65  CA        20.9960  -11.7690  -20.0010 C.3    65  LEU65       0.1596
     66  C         21.5520  -12.8830  -20.8610 C.2    65  LEU65       0.2287
     67  O         21.2810  -12.9070  -22.0510 O.2    65  LEU65      -0.2864
     68  CB        22.0680  -10.7060  -19.8880 C.3    65  LEU65       0.0297
     69  CG        21.5980   -9.3090  -19.5980 C.3    65  LEU65       0.0022
     70  CD1       22.8070   -8.4430  -19.2360 C.3    65  LEU65       0.0001
     71  CD2       20.8670   -8.7530  -20.8080 C.3    65  LEU65       0.0001
     72  N         16.0570   -7.5570  -24.7230 N.3    74  ILE74      -0.1245
     73  CA        17.4650   -7.2550  -24.7870 C.3    74  ILE74       0.1561
     74  C         18.2800   -8.5220  -24.4420 C.2    74  ILE74       0.2260
     75  O         18.0460   -9.2010  -23.4390 O.2    74  ILE74      -0.2867
     76  CB        17.8230   -6.0170  -23.9320 C.3    74  ILE74       0.0252
     77  CG1       19.0700   -5.3700  -24.4710 C.3    74  ILE74       0.0019
     78  CG2       17.9450   -6.3210  -22.4470 C.3    74  ILE74       0.0019
     79  CD1       18.7590   -4.4680  -25.6620 C.3    74  ILE74       0.0001
     80  N         28.8650   -5.4620  -19.4790 N.3    94  LEU94      -0.1245
     81  CA        27.8920   -6.1860  -20.3040 C.3    94  LEU94       0.1561
     82  C         27.6020   -5.3800  -21.5690 C.2    94  LEU94       0.2260
     83  O         27.3290   -4.1800  -21.4960 O.2    94  LEU94      -0.2867
     84  CB        26.5950   -6.4080  -19.5220 C.3    94  LEU94       0.0270
     85  CG        26.8420   -6.9880  -18.1130 C.3    94  LEU94       0.0019
     86  CD1       25.5900   -6.8240  -17.2760 C.3    94  LEU94       0.0001
     87  CD2       27.3290   -8.4400  -18.1090 C.3    94  LEU94       0.0001
     88  N         25.2840   -4.9520  -25.1120 N.3    96  THR96      -0.1203
     89  CA        24.0600   -5.2710  -25.8670 C.3    96  THR96       0.1994
     90  C         23.8850   -4.3710  -27.0780 C.2    96  THR96       0.2618
     91  O         24.5840   -3.3790  -27.2440 O.2    96  THR96      -0.2717
     92  CB        22.8220   -5.0800  -24.9740 C.3    96  THR96       0.1784
     93  OG1       22.6910   -3.6920  -24.6220 O.3    96  THR96      -0.2211
     94  CG2       22.9460   -5.8580  -23.7240 C.3    96  THR96       0.0376
     95  N         22.8940   -4.6850  -27.8940 N.am   97  HIS97      -0.1961
     96  CA        22.5220   -3.8080  -28.9980 C.3    97  HIS97       0.1787
     97  C         22.1450   -2.4330  -28.4800 C.2    97  HIS97       0.2620
     98  O         21.4540   -2.2980  -27.4850 O.2    97  HIS97      -0.2715
     99  CB        21.3450   -4.3680  -29.7820 C.3    97  HIS97       0.0785
    100  CG        21.7160   -5.4670  -30.7150 C.ar   97  HIS97       0.0821
    101  ND1       21.2450   -6.7560  -30.5680 N.ar   97  HIS97      -0.2267
    102  CD2       22.5130   -5.4740  -31.8110 C.ar   97  HIS97       0.1154
    103  CE1       21.7410   -7.5090  -31.5360 C.ar   97  HIS97       0.1986
    104  NE2       22.5200   -6.7570  -32.2970 N.ar   97  HIS97      -0.2212
    105  N         22.6280   -1.4110  -29.1580 N.am   98  LEU98      -0.1963
    106  CA        22.2850   -0.0480  -28.8350 C.3    98  LEU98       0.1728
    107  C         21.1020    0.2320  -29.6720 C.2    98  LEU98       0.2616
    108  O         21.1720    0.0870  -30.8750 O.2    98  LEU98      -0.2715
    109  CB        23.4140    0.8740  -29.2380 C.3    98  LEU98       0.0311
    110  CG        23.2760    2.3630  -28.9380 C.3    98  LEU98       0.0022
    111  CD1       23.3980    2.6140  -27.4520 C.3    98  LEU98       0.0001
    112  CD2       24.3710    3.1110  -29.6780 C.3    98  LEU98       0.0001
    113  N         19.9970    0.5990  -29.0600 N.am   99  MET99      -0.1963
    114  CA        18.7900    0.8450  -29.8290 C.3    99  MET99       0.1736
    115  C         18.6540    2.3100  -30.2350 C.2    99  MET99       0.2617
    116  O         18.0870    2.5870  -31.2830 O.2    99  MET99      -0.2715
    117  CB        17.5730    0.3690  -29.0690 C.3    99  MET99       0.0427
    118  CG        17.5840   -1.1320  -28.8120 C.3    99  MET99       0.0599
    119  SD        17.2970   -2.1440  -30.2760 S.3    99  MET99      -0.1393
    120  CE        15.6350   -1.6780  -30.7120 C.3    99  MET99       0.0692
    121  N         19.1570    3.2390  -29.4290 N.am  100  GLY100     -0.1940
    122  CA        19.1090    4.6400  -29.8060 C.3   100  GLY100      0.2014
    123  C         18.1880    5.5230  -28.9800 C.2   100  GLY100      0.2639
    124  O         18.4990    6.7030  -28.7480 O.2   100  GLY100     -0.2714
    125  N         17.0450    4.9890  -28.5550 N.am  101  ALA101     -0.1963
    126  CA        16.0770    5.7930  -27.8040 C.3   101  ALA101      0.1728
    127  C         15.2200    4.9280  -26.9210 C.2   101  ALA101      0.2616
    128  O         15.2880    3.7120  -27.0060 O.2   101  ALA101     -0.2715
    129  CB        15.1940    6.5730  -28.7700 C.3   101  ALA101      0.0334
    130  N         14.3750    5.5550  -26.1120 N.am  102  ASP102     -0.1971
    131  CA        13.3710    4.8390  -25.3680 C.3   102  ASP102      0.1709
    132  C         12.0210    5.3620  -25.7700 C.2   102  ASP102      0.2293
    133  O         11.9170    6.4150  -26.3920 O.2   102  ASP102     -0.2864
    134  CB        13.6110    4.9220  -23.8630 C.3   102  ASP102      0.1436
    135  CG        13.4250    6.3310  -23.2860 C.2   102  ASP102      0.3671
    136  OD1       14.1450    6.6260  -22.3090 O.co2 102  ASP102     -0.2456
    137  OD2       12.5630    7.1090  -23.7710 O.co2 102  ASP102     -0.2456
    138  N         11.4520    9.0940  -25.5370 N.3   105  ASN105     -0.1240
    139  CA        12.0930    9.9250  -26.5440 C.3   105  ASN105      0.1653
    140  C         11.3670    9.8390  -27.8610 C.2   105  ASN105      0.2266
    141  O         11.5040   10.7040  -28.7070 O.2   105  ASN105     -0.2867
    142  CB        13.5170    9.4760  -26.7670 C.3   105  ASN105      0.1155
    143  CG        14.2540    9.2500  -25.4690 C.2   105  ASN105      0.2627
    144  OD1       13.8950    9.8180  -24.4220 O.2   105  ASN105     -0.2716
    145  ND2       15.2760    8.4060  -25.5150 N.am  105  ASN105     -0.0877
    146  N         10.5670    4.1210  -20.2640 N.3   144  SER144     -0.1217
    147  CA        12.0320    4.2980  -20.2420 C.3   144  SER144      0.1889
    148  C         12.7650    2.9580  -20.1620 C.2   144  SER144      0.2288
    149  O         13.9980    2.9460  -20.2190 O.2   144  SER144     -0.2866
    150  CB        12.4730    5.2520  -19.1290 C.3   144  SER144      0.2089
    151  OG        12.0660    4.7880  -17.8850 O.3   144  SER144     -0.2183
    152  N         13.4120   -0.0070  -25.2020 N.3   147  ALA147     -0.1245
    153  CA        14.3890    0.5850  -26.0910 C.3   147  ALA147      0.1562
    154  C         13.9220    0.3900  -27.5220 C.2   147  ALA147      0.2260
    155  O         13.5190   -0.7140  -27.9230 O.2   147  ALA147     -0.2867
    156  CB        15.7630   -0.0210  -25.8660 C.3   147  ALA147      0.0290
    157  N         13.8920   -3.8050  -21.4940 N.3   157  LEU157     -0.1231
    158  CA        15.0730   -3.7710  -20.6420 C.3   157  LEU157      0.1693
    159  C         14.6970   -3.9830  -19.1750 C.2   157  LEU157      0.2592
    160  O         13.5390   -3.8210  -18.7970 O.2   157  LEU157     -0.2718
    161  CB        15.7410   -2.4080  -20.7430 C.3   157  LEU157      0.0284
    162  CG        16.0860   -1.8510  -22.1090 C.3   157  LEU157      0.0019
    163  CD1       16.0430   -0.3360  -22.0530 C.3   157  LEU157      0.0001
    164  CD2       17.4480   -2.3240  -22.5720 C.3   157  LEU157      0.0001
    165  N         15.7140   -4.3020  -18.3790 N.am  158  ASP158     -0.1960
    166  CA        15.6770   -4.4390  -16.9060 C.3   158  ASP158      0.1840
    167  C         14.5380   -5.2810  -16.3160 C.2   158  ASP158      0.2622
    168  O         13.9550   -4.9320  -15.2920 O.2   158  ASP158     -0.2715
    169  CB        15.6940   -3.0650  -16.2160 C.3   158  ASP158      0.1450
    170  CG        16.7790   -2.1130  -16.7390 C.2   158  ASP158      0.3671
    171  OD1       17.9280   -2.5390  -17.0800 O.co2 158  ASP158     -0.2456
    172  OD2       16.4480   -0.8960  -16.7840 O.co2 158  ASP158     -0.2456
    173  N         14.2230   -6.3980  -16.9530 N.am  159  PHE159     -0.1960
    174  CA        13.2250   -7.3520  -16.4010 C.3   159  PHE159      0.1771
    175  C         13.8970   -8.1220  -15.2540 C.2   159  PHE159      0.2620
    176  O         15.1060   -8.0560  -15.1220 O.2   159  PHE159     -0.2715
    177  CB        12.6760   -8.3030  -17.4910 C.3   159  PHE159      0.0574
    178  CG        13.7100   -8.7200  -18.4680 C.ar  159  PHE159     -0.0200
    179  CD1       13.9310   -7.9750  -19.6170 C.ar  159  PHE159     -0.0042
    180  CD2       14.5450   -9.7890  -18.1950 C.ar  159  PHE159     -0.0042
    181  CE1       14.9570   -8.3070  -20.4800 C.ar  159  PHE159     -0.0003
    182  CE2       15.5670  -10.1370  -19.0690 C.ar  159  PHE159     -0.0003
    183  CZ        15.7690   -9.3970  -20.2080 C.ar  159  PHE159     -0.0000
    184  N         13.1200   -8.8110  -14.4170 N.am  160  GLY160     -0.1954
    185  CA        13.6390   -9.5790  -13.2520 C.3   160  GLY160      0.1869
    186  C         14.8470   -9.0890  -12.4380 C.2   160  GLY160      0.2309
    187  O         14.9070   -7.9430  -11.9440 O.2   160  GLY160     -0.2863
@<TRIPOS>BOND
     1   104   102   ar
     2   104   103   ar
     3   102   100   ar
     4   103   101   ar
     5   116   115    2
     6   108   107    2
     7   100   101   ar
     8   100    99    1
     9   120   119    1
    10   119   118    1
    11   115   114    1
    12   115   121   am
    13   114   117    1
    14   114   113    1
    15   122   121    1
    16   122   123    1
    17    99    96    1
    18   112   110    1
    19   107   113   am
    20   107   106    1
    21   109   110    1
    22   109   106    1
    23   105   106    1
    24   105    97   am
    25   117   118    1
    26    96    97    1
    27    96    95    1
    28   123   124    2
    29   123   125   am
    30   110   111    1
    31   129   126    1
    32   141   140    2
    33   125   126    1
    34    97    98    2
    35   155   154    2
    36    95    90   am
    37   140   139    1
    38   126   127    1
    39   154   153    1
    40    91    90    2
    41    32    29    1
    42     6     5    1
    43    90    89    1
    44   128   127    2
    45    30    31    2
    46    30    29    1
    47   127   130   am
    48   142   139    1
    49   142   143    1
    50    33    34    1
    51   139   138    1
    52    29    28    1
    53   133   132    2
    54     5     2    1
    55   130   131    1
    56   153   156    1
    57   153   152    1
    58    89    88    1
    59    89    92    1
    60   132   131    1
    61    79    77    1
    62   145   143   am
    63   143   144    2
    64   131   134    1
    65     1     2    1
    66    34    37    1
    67    34    35    1
    68     2     3    1
    69    92    93    1
    70    92    94    1
    71    73    72    1
    72    73    74    1
    73    73    76    1
    74    77    76    1
    75    74    75    2
    76    35    36    2
    77     4     3    2
    78     3     7   am
    79    76    78    1
    80   134   135    1
    81   137   135   ar
    82    20    18    1
    83   135   136   ar
    84    10     9    2
    85     7    13    1
    86     7     8    1
    87    19    18    1
    88   164   162    1
    89    18    15    1
    90     9     8    1
    91     9    14   am
    92    13    12    1
    93   162   163    1
    94   162   161    1
    95    67    66    2
    96    15    14    1
    97    15    16    1
    98     8    11    1
    99    26    25    1
   100    82    83    2
   101    82    81    1
   102   157   158    1
   103    66    65    1
   104    71    69    1
   105   161   158    1
   106    12    11    1
   107   158   159    1
   108    23    24    2
   109    23    22    1
   110    16    17    2
   111   181   183   ar
   112   181   179   ar
   113    38    39    1
   114    81    84    1
   115    81    80    1
   116   146   147    1
   117   147   148    1
   118   147   150    1
   119   149   148    2
   120   183   182   ar
   121    25    22    1
   122    25    27    1
   123    65    68    1
   124    65    64    1
   125    68    69    1
   126    22    21    1
   127   179   178   ar
   128    69    70    1
   129    84    85    1
   130    59    58    2
   131   159   160    2
   132   159   165   am
   133   150   151    1
   134   182   180   ar
   135    39    42    1
   136    39    40    1
   137    64    58   am
   138    42    43    1
   139    58    57    1
   140   178   180   ar
   141   178   177    1
   142   165   166    1
   143    41    40    2
   144    85    87    1
   145    85    86    1
   146   177   174    1
   147    43    44    1
   148    44    45    1
   149    57    60    1
   150    57    56    1
   151   171   170   ar
   152   173   174    1
   153   173   167   am
   154   166   167    1
   155   166   169    1
   156   172   170   ar
   157   170   169    1
   158    60    61    1
   159   174   175    1
   160    50    49    2
   161   167   168    2
   162    54    53   ar
   163    45    46    1
   164    49    48    1
   165    63    61    1
   166   175   176    2
   167   175   184   am
   168    52    53    1
   169    52    51    1
   170    61    62    1
   171    53    55   ar
   172   184   185    1
   173    48    51    1
   174    48    47    1
   175   185   186    1
   176   186   187    2
