@<TRIPOS>MOLECULE
tmp/5mu5A00.pdb
 88 85 0 0 0
SMALL
GASTEIGER

@<TRIPOS>ATOM
      1  N        -39.2710   10.0750   25.3410 N.3    30  GLN30      -0.1231
      2  CA       -39.6660    9.0840   24.3480 C.3    30  GLN30       0.1698
      3  C        -40.4390    7.9560   25.0240 C.2    30  GLN30       0.2592
      4  O        -41.2540    7.2970   24.3970 O.2    30  GLN30      -0.2718
      5  CB       -38.4470    8.4800   23.6680 C.3    30  GLN30       0.0381
      6  CG       -37.6750    9.4310   22.7740 C.3    30  GLN30       0.0905
      7  CD       -36.3280    8.8540   22.3590 C.2    30  GLN30       0.2608
      8  OE1      -35.6790    8.1290   23.1280 O.2    30  GLN30      -0.2717
      9  NE2      -35.8930    9.1850   21.1460 N.am   30  GLN30      -0.0878
     10  N        -40.1660    7.7140   26.2960 N.am   31  SER31      -0.1952
     11  CA       -40.8200    6.6330   27.0240 C.3    31  SER31       0.1924
     12  C        -42.1050    7.1250   27.6440 C.2    31  SER31       0.2314
     13  O        -42.3470    8.3260   27.6900 O.2    31  SER31      -0.2863
     14  CB       -39.8920    6.0640   28.1000 C.3    31  SER31       0.2116
     15  OG       -39.3530    7.0940   28.8970 O.3    31  SER31      -0.2180
     16  N        -42.3760    2.5980   33.7560 N.3    43  VAL43      -0.1245
     17  CA       -41.9310    3.2070   32.5000 C.3    43  VAL43       0.1561
     18  C        -41.9420    2.1760   31.3730 C.2    43  VAL43       0.2260
     19  O        -41.2110    1.1870   31.4110 O.2    43  VAL43      -0.2867
     20  CB       -40.5310    3.8090   32.6310 C.3    43  VAL43       0.0252
     21  CG1      -40.1230    4.4950   31.3410 C.3    43  VAL43       0.0019
     22  CG2      -40.4970    4.8050   33.7780 C.3    43  VAL43       0.0019
     23  N        -41.7470    1.2920   27.1760 N.3    45  PHE45      -0.1241
     24  CA       -41.1220    1.7270   25.9340 C.3    45  PHE45       0.1605
     25  C        -41.0260    0.5380   24.9840 C.2    45  PHE45       0.2264
     26  O        -40.2990   -0.4180   25.2450 O.2    45  PHE45      -0.2867
     27  CB       -39.7310    2.3160   26.1980 C.3    45  PHE45       0.0534
     28  CG       -39.0300    2.7920   24.9560 C.ar   45  PHE45      -0.0203
     29  CD1      -39.5940    3.7910   24.1650 C.ar   45  PHE45      -0.0042
     30  CD2      -37.8030    2.2650   24.5830 C.ar   45  PHE45      -0.0042
     31  CE1      -38.9550    4.2480   23.0260 C.ar   45  PHE45      -0.0003
     32  CE2      -37.1610    2.7140   23.4370 C.ar   45  PHE45      -0.0003
     33  CZ       -37.7380    3.7050   22.6600 C.ar   45  PHE45      -0.0000
     34  N        -41.6670   -2.7990   26.5680 N.3    48  GLU48      -0.1231
     35  CA       -40.7640   -3.2100   27.6410 C.3    48  GLU48       0.1699
     36  C        -41.0240   -2.3310   28.8450 C.2    48  GLU48       0.2592
     37  O        -41.2450   -1.1360   28.7020 O.2    48  GLU48      -0.2718
     38  CB       -39.3130   -3.0450   27.2210 C.3    48  GLU48       0.0402
     39  CG       -38.8800   -3.9350   26.0770 C.3    48  GLU48       0.1161
     40  CD       -37.4340   -3.6890   25.6900 C.2    48  GLU48       0.3649
     41  OE1      -36.8750   -2.6330   26.0620 O.co2  48  GLU48      -0.2457
     42  OE2      -36.8500   -4.5540   25.0140 O.co2  48  GLU48      -0.2457
     43  N        -40.9850   -2.9290   30.0300 N.am   49  PHE49      -0.1962
     44  CA       -41.2580   -2.2210   31.2700 C.3    49  PHE49       0.1771
     45  C        -40.0120   -2.1830   32.1390 C.2    49  PHE49       0.2619
     46  O        -39.2900   -3.1620   32.2310 O.2    49  PHE49      -0.2715
     47  CB       -42.4040   -2.9070   32.0070 C.3    49  PHE49       0.0574
     48  CG       -43.7430   -2.7160   31.3480 C.ar   49  PHE49      -0.0200
     49  CD1      -43.9910   -3.2260   30.0780 C.ar   49  PHE49      -0.0042
     50  CD2      -44.7640   -2.0320   32.0000 C.ar   49  PHE49      -0.0042
     51  CE1      -45.2240   -3.0470   29.4660 C.ar   49  PHE49      -0.0003
     52  CE2      -46.0020   -1.8550   31.3970 C.ar   49  PHE49      -0.0003
     53  CZ       -46.2320   -2.3630   30.1290 C.ar   49  PHE49      -0.0000
     54  N        -39.7550   -1.0430   32.7700 N.am   50  LEU50      -0.1977
     55  CA       -38.6070   -0.9110   33.6540 C.3    50  LEU50       0.1596
     56  C        -38.7410   -1.8760   34.8210 C.2    50  LEU50       0.2287
     57  O        -37.8650   -2.6850   35.0480 O.2    50  LEU50      -0.2864
     58  CB       -38.4560    0.5350   34.1530 C.3    50  LEU50       0.0297
     59  CG       -37.4060    0.7870   35.2490 C.3    50  LEU50       0.0022
     60  CD1      -36.0400    0.2920   34.8250 C.3    50  LEU50       0.0001
     61  CD2      -37.3240    2.2710   35.5780 C.3    50  LEU50       0.0001
     62  N        -30.3180    7.3410   31.7730 N.3   143  ASN143     -0.1240
     63  CA       -31.5120    7.6140   30.9850 C.3   143  ASN143      0.1653
     64  C        -32.2650    8.7840   31.6040 C.2   143  ASN143      0.2266
     65  O        -32.8650    8.6550   32.6660 O.2   143  ASN143     -0.2867
     66  CB       -32.3690    6.3570   30.9040 C.3   143  ASN143      0.1155
     67  CG       -33.4960    6.4830   29.8890 C.2   143  ASN143      0.2627
     68  OD1      -33.9590    7.5740   29.5860 O.2   143  ASN143     -0.2716
     69  ND2      -33.9470    5.3570   29.3720 N.am  143  ASN143     -0.0877
     70  N        -34.9390   10.1440   30.7650 N.3   145  ASP145     -0.1225
     71  CA       -36.3690    9.9050   30.8950 C.3   145  ASP145      0.1805
     72  C        -36.7520    9.4560   32.2850 C.2   145  ASP145      0.2597
     73  O        -37.7790    9.8800   32.8150 O.2   145  ASP145     -0.2718
     74  CB       -36.8720    8.8770   29.8760 C.3   145  ASP145      0.1424
     75  CG       -36.9970    9.4540   28.4740 C.2   145  ASP145      0.3668
     76  OD1      -36.4290   10.5460   28.1990 O.co2 145  ASP145     -0.2456
     77  OD2      -37.6910    8.8100   27.6540 O.co2 145  ASP145     -0.2456
     78  N        -35.9330    8.6050   32.8820 N.am  146  PHE146     -0.1976
     79  CA       -36.2230    8.1080   34.2180 C.3   146  PHE146      0.1639
     80  C        -36.2390    9.2330   35.2490 C.2   146  PHE146      0.2290
     81  O        -37.1060    9.2730   36.1130 O.2   146  PHE146     -0.2864
     82  CB       -35.2370    7.0090   34.6410 C.3   146  PHE146      0.0560
     83  CG       -35.2930    5.7570   33.7850 C.ar  146  PHE146     -0.0200
     84  CD1      -36.3550    5.5150   32.9070 C.ar  146  PHE146     -0.0042
     85  CD2      -34.3000    4.7780   33.9070 C.ar  146  PHE146     -0.0042
     86  CE1      -36.3930    4.3560   32.1470 C.ar  146  PHE146     -0.0003
     87  CE2      -34.3390    3.6170   33.1420 C.ar  146  PHE146     -0.0003
     88  CZ       -35.3840    3.4070   32.2650 C.ar  146  PHE146     -0.0000
@<TRIPOS>BOND
     1     9     7   am
     2     7     6    1
     3     7     8    2
     4    33    31   ar
     5    33    32   ar
     6     6     5    1
     7    31    29   ar
     8    32    30   ar
     9     5     2    1
    10    29    28   ar
    11     2     3    1
    12     2     1    1
    13     4     3    2
    14    30    28   ar
    15    28    27    1
    16    25    26    2
    17    25    24    1
    18    42    40   ar
    19     3    10   am
    20    40    41   ar
    21    40    39    1
    22    24    27    1
    23    24    23    1
    24    39    38    1
    25    10    11    1
    26    34    35    1
    27    11    12    1
    28    11    14    1
    29    38    35    1
    30    35    36    1
    31    12    13    2
    32    77    75   ar
    33    14    15    1
    34    76    75   ar
    35    75    74    1
    36    37    36    2
    37    36    43   am
    38    69    67   am
    39    51    49   ar
    40    51    53   ar
    41    68    67    2
    42    74    71    1
    43    67    66    1
    44    43    44    1
    45    49    48   ar
    46    53    52   ar
    47    70    71    1
    48    71    72    1
    49    66    63    1
    50    63    64    1
    51    63    62    1
    52    44    47    1
    53    44    45    1
    54    21    20    1
    55    48    50   ar
    56    48    47    1
    57    18    19    2
    58    18    17    1
    59    52    50   ar
    60    64    65    2
    61    45    46    2
    62    45    54   am
    63    86    88   ar
    64    86    84   ar
    65    88    87   ar
    66    72    73    2
    67    72    78   am
    68    17    20    1
    69    17    16    1
    70    20    22    1
    71    54    55    1
    72    78    79    1
    73    84    83   ar
    74    87    85   ar
    75    55    58    1
    76    55    56    1
    77    83    85   ar
    78    83    82    1
    79    58    59    1
    80    79    82    1
    81    79    80    1
    82    56    57    2
    83    60    59    1
    84    59    61    1
    85    80    81    2
