@<TRIPOS>MOLECULE
tmp/5mu8W01.pdb
 91 88 0 0 0
SMALL
GASTEIGER

@<TRIPOS>ATOM
      1  N         80.8230  -14.1810    7.8390 N.3    50  LEU50      -0.1245
      2  CA        79.5730  -13.5340    7.5700 C.3    50  LEU50       0.1561
      3  C         79.3760  -13.7760    6.0960 C.2    50  LEU50       0.2260
      4  O         80.1490  -13.2710    5.2840 O.2    50  LEU50      -0.2867
      5  CB        79.6840  -12.0530    7.8760 C.3    50  LEU50       0.0270
      6  CG        78.4220  -11.4210    8.4490 C.3    50  LEU50       0.0019
      7  CD1       78.8070  -10.1290    9.1600 C.3    50  LEU50       0.0001
      8  CD2       77.3610  -11.1860    7.3760 C.3    50  LEU50       0.0001
      9  N         76.8180  -13.3630    2.9210 N.3    52  TYR52      -0.1227
     10  CA        75.6710  -12.5600    2.4770 C.3    52  TYR52       0.1736
     11  C         75.5190  -12.5170    0.9430 C.2    52  TYR52       0.2596
     12  O         76.4470  -12.8430    0.1960 O.2    52  TYR52      -0.2718
     13  CB        75.7790  -11.1490    3.0470 C.3    52  TYR52       0.0548
     14  CG        76.9370  -10.3740    2.4900 C.ar   52  TYR52      -0.0200
     15  CD1       76.8470   -9.7690    1.2520 C.ar   52  TYR52      -0.0009
     16  CD2       78.1230  -10.2300    3.2000 C.ar   52  TYR52      -0.0009
     17  CE1       77.9010   -9.0430    0.7200 C.ar   52  TYR52       0.0417
     18  CE2       79.1930   -9.4990    2.6790 C.ar   52  TYR52       0.0417
     19  CZ        79.0730   -8.9100    1.4280 C.ar   52  TYR52       0.1957
     20  OH        80.1040   -8.1820    0.8590 O.3    52  TYR52      -0.2866
     21  N         74.3540  -12.0680    0.4890 N.am   53  SER53      -0.1938
     22  CA        74.0270  -12.0760   -0.9310 C.3    53  SER53       0.2055
     23  C         72.8310  -11.1860   -1.2300 C.2    53  SER53       0.2642
     24  O         72.0450  -10.8620   -0.3380 O.2    53  SER53      -0.2714
     25  CB        73.6980  -13.5010   -1.3550 C.3    53  SER53       0.2130
     26  OG        73.3280  -13.5780   -2.7190 O.3    53  SER53      -0.2179
     27  N         72.6950  -10.7980   -2.4930 N.am   54  GLN54      -0.1976
     28  CA        71.5370  -10.0320   -2.9420 C.3    54  GLN54       0.1601
     29  C         71.3210  -10.2550   -4.4170 C.2    54  GLN54       0.2287
     30  O         72.2550  -10.1290   -5.2170 O.2    54  GLN54      -0.2864
     31  CB        71.7490   -8.5400   -2.7160 C.3    54  GLN54       0.0394
     32  CG        70.6230   -7.6500   -3.2480 C.3    54  GLN54       0.0908
     33  CD        70.8040   -6.1820   -2.8940 C.2    54  GLN54       0.2608
     34  OE1       71.2520   -5.8450   -1.8050 O.2    54  GLN54      -0.2717
     35  NE2       70.4420   -5.3020   -3.8080 N.am   54  GLN54      -0.0878
     36  N         67.4110  -10.6320   -0.6640 N.3   112  TYR112     -0.1227
     37  CA        68.6640  -10.4140    0.0720 C.3   112  TYR112      0.1736
     38  C         68.8360  -11.6290    0.9610 C.2   112  TYR112      0.2595
     39  O         67.8560  -12.2440    1.3370 O.2   112  TYR112     -0.2718
     40  CB        68.5930   -9.1610    0.9710 C.3   112  TYR112      0.0548
     41  CG        67.9800   -7.9320    0.3350 C.ar  112  TYR112     -0.0200
     42  CD1       66.6010   -7.7450    0.3120 C.ar  112  TYR112     -0.0009
     43  CD2       68.7790   -6.9450   -0.2360 C.ar  112  TYR112     -0.0009
     44  CE1       66.0320   -6.6260   -0.2880 C.ar  112  TYR112      0.0417
     45  CE2       68.2210   -5.8070   -0.8240 C.ar  112  TYR112      0.0417
     46  CZ        66.8460   -5.6500   -0.8480 C.ar  112  TYR112      0.1957
     47  OH        66.2880   -4.5120   -1.4050 O.3   112  TYR112     -0.2866
     48  N         70.0680  -11.9640    1.3100 N.am  113  LEU113     -0.1966
     49  CA        70.3260  -13.0620    2.2390 C.3   113  LEU113      0.1728
     50  C         71.6040  -12.7860    2.9970 C.2   113  LEU113      0.2617
     51  O         72.5030  -12.1060    2.4970 O.2   113  LEU113     -0.2715
     52  CB        70.4770  -14.4000    1.4960 C.3   113  LEU113      0.0311
     53  CG        69.2550  -15.0820    0.8700 C.3   113  LEU113      0.0022
     54  CD1       69.6780  -16.3320    0.1060 C.3   113  LEU113      0.0001
     55  CD2       68.2180  -15.4410    1.9250 C.3   113  LEU113      0.0001
     56  N         71.6780  -13.3350    4.2040 N.am  114  GLY114     -0.1940
     57  CA        72.9190  -13.3500    4.9420 C.3   114  GLY114      0.2014
     58  C         72.8120  -13.9480    6.3290 C.2   114  GLY114      0.2639
     59  O         71.7220  -14.0700    6.9010 O.2   114  GLY114     -0.2714
     60  N         73.9610  -14.3550    6.8470 N.am  115  GLY115     -0.1954
     61  CA        74.0420  -14.9150    8.1800 C.3   115  GLY115      0.1869
     62  C         75.4680  -15.2270    8.5650 C.2   115  GLY115      0.2309
     63  O         76.3950  -15.0730    7.7470 O.2   115  GLY115     -0.2863
     64  N         74.8930   -9.1360   -6.0070 N.3   144  TYR144     -0.1241
     65  CA        76.1960   -9.4820   -5.4490 C.3   144  TYR144      0.1605
     66  C         76.1390  -10.6480   -4.4680 C.2   144  TYR144      0.2264
     67  O         75.0730  -10.9930   -3.9420 O.2   144  TYR144     -0.2867
     68  CB        76.8020   -8.2570   -4.7490 C.3   144  TYR144      0.0534
     69  CG        75.9550   -7.7250   -3.6100 C.ar  144  TYR144     -0.0201
     70  CD1       74.9930   -6.7410   -3.8270 C.ar  144  TYR144     -0.0009
     71  CD2       76.1070   -8.2120   -2.3190 C.ar  144  TYR144     -0.0009
     72  CE1       74.2180   -6.2580   -2.7850 C.ar  144  TYR144      0.0417
     73  CE2       75.3340   -7.7440   -1.2720 C.ar  144  TYR144      0.0417
     74  CZ        74.3880   -6.7800   -1.5040 C.ar  144  TYR144      0.1957
     75  OH        73.6430   -6.3480   -0.4340 O.3   144  TYR144     -0.2866
     76  N         82.7970  -12.4400    4.6210 N.3   148  ILE148     -0.1245
     77  CA        83.7660  -11.7260    5.4390 C.3   148  ILE148      0.1561
     78  C         84.0730  -12.6130    6.6270 C.2   148  ILE148      0.2260
     79  O         83.1430  -13.0620    7.3070 O.2   148  ILE148     -0.2867
     80  CB        83.1770  -10.4090    5.9690 C.3   148  ILE148      0.0252
     81  CG1       82.8600   -9.4540    4.8070 C.3   148  ILE148      0.0019
     82  CG2       84.1210   -9.7580    6.9790 C.3   148  ILE148      0.0019
     83  CD1       81.8770   -8.3570    5.1600 C.3   148  ILE148      0.0001
     84  N         85.5140  -13.2500   10.3570 N.3   150  LEU150     -0.1245
     85  CA        85.3180  -12.4070   11.5330 C.3   150  LEU150      0.1561
     86  C         86.5890  -12.2450   12.3890 C.2   150  LEU150      0.2260
     87  O         87.5840  -12.9390   12.1720 O.2   150  LEU150     -0.2867
     88  CB        84.1350  -12.9360   12.3600 C.3   150  LEU150      0.0270
     89  CG        82.7830  -12.2840   12.0400 C.3   150  LEU150      0.0019
     90  CD1       82.4140  -12.3720   10.5700 C.3   150  LEU150      0.0001
     91  CD2       81.6820  -12.8800   12.9010 C.3   150  LEU150      0.0001
@<TRIPOS>BOND
     1    64    65    1
     2    65    68    1
     3    65    66    1
     4    30    29    2
     5    68    69    1
     6    66    67    2
     7    29    28    1
     8    70    69   ar
     9    70    72   ar
    10    35    33   am
    11    69    71   ar
    12    32    33    1
    13    32    31    1
    14    28    31    1
    15    28    27    1
    16    33    34    2
    17    72    74   ar
    18    26    25    1
    19    27    23   am
    20    71    73   ar
    21    74    73   ar
    22    74    75    1
    23    47    46    1
    24    25    22    1
    25    23    22    1
    26    23    24    2
    27    22    21    1
    28    46    45   ar
    29    46    44   ar
    30    45    43   ar
    31    36    37    1
    32    44    42   ar
    33    43    41   ar
    34    37    38    1
    35    37    40    1
    36    54    53    1
    37    12    11    2
    38    42    41   ar
    39    41    40    1
    40    21    11   am
    41    17    15   ar
    42    17    19   ar
    43    20    19    1
    44    53    52    1
    45    53    55    1
    46    11    10    1
    47    38    48   am
    48    38    39    2
    49    15    14   ar
    50    48    49    1
    51    19    18   ar
    52    52    49    1
    53    49    50    1
    54    10     9    1
    55    10    13    1
    56    14    13    1
    57    14    16   ar
    58    51    50    2
    59    18    16   ar
    60    50    56   am
    61    56    57    1
    62    76    77    1
    63    81    83    1
    64    81    80    1
    65    57    58    1
    66     4     3    2
    67    77    80    1
    68    77    78    1
    69    80    82    1
    70     3     2    1
    71    58    60   am
    72    58    59    2
    73    78    79    2
    74    60    61    1
    75     8     6    1
    76     2     1    1
    77     2     5    1
    78    63    62    2
    79     5     6    1
    80    61    62    1
    81     6     7    1
    82    84    85    1
    83    90    89    1
    84    85    88    1
    85    85    86    1
    86    89    88    1
    87    89    91    1
    88    87    86    2
