@<TRIPOS>MOLECULE
tmp/5mu8I01.pdb
 87 82 0 0 0
SMALL
GASTEIGER

@<TRIPOS>ATOM
      1  N         -6.5750   38.2360  116.8600 N.3     5  VAL5       -0.1231
      2  CA        -5.9540   38.8330  118.0600 C.3     5  VAL5        0.1692
      3  C         -6.8790   38.6710  119.2610 C.2     5  VAL5        0.2592
      4  O         -8.0860   38.4840  119.0880 O.2     5  VAL5       -0.2718
      5  CB        -5.6620   40.3440  117.8890 C.3     5  VAL5        0.0266
      6  CG1       -4.7680   40.6030  116.6880 C.3     5  VAL5        0.0020
      7  CG2       -6.9450   41.1510  117.7520 C.3     5  VAL5        0.0020
      8  N         -6.3260   38.7790  120.4680 N.am    6  ALA6       -0.1966
      9  CA        -7.1390   38.7450  121.6910 C.3     6  ALA6        0.1728
     10  C         -6.4080   39.2560  122.9240 C.2     6  ALA6        0.2616
     11  O         -5.2580   38.9000  123.1590 O.2     6  ALA6       -0.2715
     12  CB        -7.6400   37.3390  121.9530 C.3     6  ALA6        0.0334
     13  N         -7.1010   40.0910  123.6980 N.am    7  HIS7       -0.1973
     14  CA        -6.6620   40.5270  125.0210 C.3     7  HIS7        0.1656
     15  C         -7.8560   40.2990  125.9380 C.2     7  HIS7        0.2291
     16  O         -8.9290   40.8480  125.6850 O.2     7  HIS7       -0.2864
     17  CB        -6.2800   42.0140  124.9820 C.3     7  HIS7        0.0771
     18  CG        -5.5730   42.5100  126.2130 C.ar    7  HIS7        0.0820
     19  ND1       -4.2780   42.9840  126.1850 N.ar    7  HIS7       -0.2267
     20  CD2       -5.9880   42.6350  127.4960 C.ar    7  HIS7        0.1154
     21  CE1       -3.9220   43.3650  127.3990 C.ar    7  HIS7        0.1986
     22  NE2       -4.9410   43.1620  128.2140 N.ar    7  HIS7       -0.2212
     23  N        -11.4520   42.1440  124.9380 N.3    22  LEU22      -0.1245
     24  CA       -11.6760   42.1140  123.4930 C.3    22  LEU22       0.1561
     25  C        -11.2060   40.8090  122.8450 C.2    22  LEU22       0.2260
     26  O        -10.2530   40.1770  123.3020 O.2    22  LEU22      -0.2867
     27  CB       -10.9790   43.3050  122.8130 C.3    22  LEU22       0.0270
     28  CG        -9.4970   43.2050  122.3850 C.3    22  LEU22       0.0019
     29  CD1       -9.3410   42.7720  120.9310 C.3    22  LEU22       0.0001
     30  CD2       -8.7910   44.5380  122.5840 C.3    22  LEU22       0.0001
     31  N          1.9560   34.8680  118.5710 N.3    43  LEU43      -0.1245
     32  CA         2.6090   35.3680  119.7480 C.3    43  LEU43       0.1561
     33  C          1.6370   35.0790  120.8780 C.2    43  LEU43       0.2260
     34  O          0.4230   35.1350  120.6880 O.2    43  LEU43      -0.2867
     35  CB         2.8930   36.8550  119.6120 C.3    43  LEU43       0.0270
     36  CG         3.6330   37.4610  120.8080 C.3    43  LEU43       0.0019
     37  CD1        4.5460   38.5970  120.3630 C.3    43  LEU43       0.0001
     38  CD2        2.6700   37.9290  121.8970 C.3    43  LEU43       0.0001
     39  N          1.1760   35.4380  125.3580 N.3    45  TYR45      -0.1241
     40  CA         1.6570   36.0700  126.5900 C.3    45  TYR45       0.1605
     41  C          0.6040   36.0990  127.6880 C.2    45  TYR45       0.2264
     42  O         -0.5650   35.7940  127.4570 O.2    45  TYR45      -0.2867
     43  CB         2.1300   37.5040  126.3070 C.3    45  TYR45       0.0534
     44  CG         1.0120   38.4650  125.9530 C.ar   45  TYR45      -0.0201
     45  CD1        0.4880   38.5160  124.6620 C.ar   45  TYR45      -0.0009
     46  CD2        0.4760   39.3270  126.9080 C.ar   45  TYR45      -0.0009
     47  CE1       -0.5330   39.4010  124.3310 C.ar   45  TYR45       0.0417
     48  CE2       -0.5460   40.2130  126.5830 C.ar   45  TYR45       0.0417
     49  CZ        -1.0470   40.2480  125.2990 C.ar   45  TYR45       0.1957
     50  OH        -2.0610   41.1270  124.9990 O.3    45  TYR45      -0.2866
     51  N         -4.4110   44.7760  135.8830 N.3   130  GLN130     -0.1245
     52  CA        -3.2940   44.3250  135.0210 C.3   130  GLN130      0.1566
     53  C         -2.9920   42.8030  135.0910 C.2   130  GLN130      0.2260
     54  O         -1.8500   42.3700  134.8680 O.2   130  GLN130     -0.2867
     55  CB        -2.0280   45.1630  135.3060 C.3   130  GLN130      0.0367
     56  CG        -2.0470   46.5630  134.6980 C.3   130  GLN130      0.0905
     57  CD        -1.6390   46.6000  133.2250 C.2   130  GLN130      0.2608
     58  OE1       -1.9570   45.6930  132.4500 O.2   130  GLN130     -0.2717
     59  NE2       -0.9430   47.6650  132.8310 N.am  130  GLN130     -0.0878
     60  N         -3.8520   40.0000  132.8060 N.3   132  TYR132     -0.1241
     61  CA        -4.3210   39.8630  131.4150 C.3   132  TYR132      0.1605
     62  C         -3.6780   38.6670  130.7070 C.2   132  TYR132      0.2264
     63  O         -2.6520   38.1430  131.1520 O.2   132  TYR132     -0.2867
     64  CB        -4.0220   41.1440  130.6320 C.3   132  TYR132      0.0534
     65  CG        -2.5690   41.5420  130.6960 C.ar  132  TYR132     -0.0201
     66  CD1       -1.6350   40.9800  129.8330 C.ar  132  TYR132     -0.0009
     67  CD2       -2.1200   42.4570  131.6460 C.ar  132  TYR132     -0.0009
     68  CE1       -0.2950   41.3300  129.9000 C.ar  132  TYR132      0.0417
     69  CE2       -0.7810   42.8180  131.7210 C.ar  132  TYR132      0.0417
     70  CZ         0.1260   42.2520  130.8440 C.ar  132  TYR132      0.1957
     71  OH         1.4530   42.5980  130.9090 O.3   132  TYR132     -0.2866
     72  N         -1.7700   36.6880  119.6040 N.3   136  ILE136     -0.1245
     73  CA        -1.7170   37.5330  118.4220 C.3   136  ILE136      0.1561
     74  C         -1.2090   36.7060  117.2570 C.2   136  ILE136      0.2260
     75  O         -0.0670   36.2560  117.2720 O.2   136  ILE136     -0.2867
     76  CB        -0.7580   38.7310  118.6130 C.3   136  ILE136      0.0252
     77  CG1       -0.8530   39.2930  120.0410 C.3   136  ILE136      0.0019
     78  CG2       -1.0550   39.8050  117.5670 C.3   136  ILE136      0.0019
     79  CD1       -0.0150   40.5290  120.2920 C.3   136  ILE136      0.0001
     80  N          0.4500   36.1210  113.8620 N.3   138  LEU138     -0.1245
     81  CA         1.4210   36.8430  113.0430 C.3   138  LEU138      0.1561
     82  C          1.0580   36.6540  111.5740 C.2   138  LEU138      0.2260
     83  O          0.1140   35.9320  111.2420 O.2   138  LEU138     -0.2867
     84  CB         2.8540   36.3760  113.3340 C.3   138  LEU138      0.0270
     85  CG         3.5150   36.8800  114.6350 C.3   138  LEU138      0.0019
     86  CD1        2.5650   36.9130  115.8180 C.3   138  LEU138      0.0001
     87  CD2        4.7400   36.0460  115.0020 C.3   138  LEU138      0.0001
@<TRIPOS>BOND
     1    83    82    2
     2    82    81    1
     3    81    84    1
     4    81    80    1
     5    84    85    1
     6    85    87    1
     7    85    86    1
     8     6     5    1
     9     1     2    1
    10    74    75    2
    11    74    73    1
    12    78    76    1
    13     7     5    1
    14     5     2    1
    15     2     3    1
    16    73    76    1
    17    73    72    1
    18    31    32    1
    19    76    77    1
    20     4     3    2
    21     3     8   am
    22    35    32    1
    23    35    36    1
    24    32    33    1
    25    77    79    1
    26    37    36    1
    27     8     9    1
    28    34    33    2
    29    36    38    1
    30    29    28    1
    31     9    12    1
    32     9    10    1
    33    28    30    1
    34    28    27    1
    35    27    24    1
    36    25    26    2
    37    25    24    1
    38    10    11    2
    39    10    13   am
    40    24    23    1
    41    13    14    1
    42    47    45   ar
    43    47    49   ar
    44    45    44   ar
    45    17    14    1
    46    17    18    1
    47    50    49    1
    48    14    15    1
    49    49    48   ar
    50    39    40    1
    51    16    15    2
    52    44    43    1
    53    44    46   ar
    54    19    18   ar
    55    19    21   ar
    56    18    20   ar
    57    43    40    1
    58    48    46   ar
    59    40    41    1
    60    21    22   ar
    61    42    41    2
    62    20    22   ar
    63    66    68   ar
    64    66    65   ar
    65    68    70   ar
    66    64    65    1
    67    64    61    1
    68    65    67   ar
    69    62    63    2
    70    62    61    1
    71    70    71    1
    72    70    69   ar
    73    61    60    1
    74    67    69   ar
    75    58    57    2
    76    59    57   am
    77    57    56    1
    78    56    55    1
    79    54    53    2
    80    52    53    1
    81    52    55    1
    82    52    51    1
