@<TRIPOS>MOLECULE
tmp/5mu8C02.pdb
 107 101 0 0 0
SMALL
GASTEIGER

@<TRIPOS>ATOM
      1  N         14.4330    9.7020    9.9820 N.3     1  PRO1       -0.2102
      2  CA        14.9200    8.4170   10.4800 C.3     1  PRO1        0.1504
      3  C         15.6980    7.6120    9.4320 C.2     1  PRO1        0.2576
      4  O         15.2700    7.5240    8.2790 O.2     1  PRO1       -0.2718
      5  CB        13.6280    7.6900   10.8710 C.3     1  PRO1        0.0282
      6  CG        12.6690    8.7820   11.2290 C.3     1  PRO1        0.0208
      7  CD        13.1290   10.0580   10.5680 C.3     1  PRO1        0.0893
      8  N         16.8150    7.0180    9.8520 N.am    2  SER2       -0.1953
      9  CA        17.7000    6.2550    8.9540 C.3     2  SER2        0.1924
     10  C         17.0190    4.9430    8.5150 C.2     2  SER2        0.2314
     11  O         16.2930    4.3380    9.3070 O.2     2  SER2       -0.2863
     12  CB        19.0470    5.9810    9.6470 C.3     2  SER2        0.2116
     13  OG        20.1000    5.8950    8.7070 O.3     2  SER2       -0.2180
     14  N         15.7780   -0.1690   14.0020 N.3     6  VAL6       -0.1245
     15  CA        16.2140    0.2390   15.3320 C.3     6  VAL6        0.1561
     16  C         15.0770   -0.0280   16.3170 C.2     6  VAL6        0.2260
     17  O         13.9210   -0.1130   15.9100 O.2     6  VAL6       -0.2867
     18  CB        16.6090    1.7320   15.3600 C.3     6  VAL6        0.0252
     19  CG1       17.5720    2.0480   14.2240 C.3     6  VAL6        0.0019
     20  CG2       15.3830    2.6240   15.2550 C.3     6  VAL6        0.0019
     21  N         13.8860    0.5780   20.7860 N.3     8  HIS8       -0.1241
     22  CA        14.0990    0.9580   22.1810 C.3     8  HIS8        0.1621
     23  C         12.7370    0.9720   22.8790 C.2     8  HIS8        0.2264
     24  O         11.9280    1.8750   22.6400 O.2     8  HIS8       -0.2867
     25  CB        14.7680    2.3440   22.2760 C.3     8  HIS8        0.0745
     26  CG        15.0860    2.7760   23.6790 C.ar    8  HIS8        0.0817
     27  ND1       16.3490    2.6670   24.2240 N.ar    8  HIS8       -0.2268
     28  CD2       14.3060    3.3160   24.6480 C.ar    8  HIS8        0.1154
     29  CE1       16.3320    3.1190   25.4650 C.ar    8  HIS8        0.1986
     30  NE2       15.1040    3.5160   25.7480 N.ar    8  HIS8       -0.2212
     31  N          6.2600    8.5030   24.7000 N.3    26  ALA26      -0.1231
     32  CA         7.2420    9.5850   24.5120 C.3    26  ALA26       0.1694
     33  C          8.6980    9.0850   24.5130 C.2    26  ALA26       0.2592
     34  O          9.4950    9.5150   23.6760 O.2    26  ALA26      -0.2718
     35  CB         7.0520   10.6710   25.5660 C.3    26  ALA26       0.0304
     36  N          9.0220    8.1680   25.4300 N.am   27  ASN27      -0.1974
     37  CA        10.3880    7.6230   25.5690 C.3    27  ASN27       0.1688
     38  C         10.7400    6.4850   24.6020 C.2    27  ASN27       0.2292
     39  O         11.9040    6.3610   24.2200 O.2    27  ASN27      -0.2864
     40  CB        10.6450    7.1500   27.0160 C.3    27  ASN27       0.1181
     41  CG        10.9680    8.2850   27.9830 C.2    27  ASN27       0.2629
     42  OD1       11.4200    7.9530   29.1420 O.2    27  ASN27      -0.2716
     43  ND2       10.7850    9.4990   27.6480 N.am   27  ASN27      -0.0877
     44  N         10.6750    3.8230   21.1460 N.3    29  LEU29      -0.1245
     45  CA        10.8400    3.9740   19.6910 C.3    29  LEU29       0.1561
     46  C         11.1010    2.6490   18.9600 C.2    29  LEU29       0.2260
     47  O         12.1020    1.9870   19.2270 O.2    29  LEU29      -0.2867
     48  CB        12.0000    4.9310   19.4020 C.3    29  LEU29       0.0270
     49  CG        12.2150    5.3520   17.9430 C.3    29  LEU29       0.0019
     50  CD1       11.1400    6.3230   17.4700 C.3    29  LEU29       0.0001
     51  CD2       13.5850    5.9700   17.7670 C.3    29  LEU29       0.0001
     52  N         11.2760    1.2360   14.7600 N.3    31  ALA31      -0.1245
     53  CA        11.4230    1.7720   13.3970 C.3    31  ALA31       0.1562
     54  C         11.9120    0.7400   12.3800 C.2    31  ALA31       0.2260
     55  O         12.7280   -0.1280   12.7020 O.2    31  ALA31      -0.2867
     56  CB        12.3540    2.9810   13.3870 C.3    31  ALA31       0.0290
     57  N         20.9350   -4.6430   23.3960 N.3    52  TYR52      -0.1241
     58  CA        21.2700   -4.1190   24.7180 C.3    52  TYR52       0.1605
     59  C         20.0590   -3.9930   25.6280 C.2    52  TYR52       0.2264
     60  O         18.9230   -3.9790   25.1660 O.2    52  TYR52      -0.2867
     61  CB        21.9800   -2.7630   24.6020 C.3    52  TYR52       0.0534
     62  CG        21.0960   -1.6240   24.1440 C.ar   52  TYR52      -0.0201
     63  CD1       20.1450   -1.0720   24.9920 C.ar   52  TYR52      -0.0009
     64  CD2       21.2220   -1.0930   22.8690 C.ar   52  TYR52      -0.0009
     65  CE1       19.3360   -0.0360   24.5770 C.ar   52  TYR52       0.0417
     66  CE2       20.4190   -0.0530   22.4490 C.ar   52  TYR52       0.0417
     67  CZ        19.4790    0.4690   23.3070 C.ar   52  TYR52       0.1957
     68  OH        18.6790    1.5050   22.8910 O.3    52  TYR52      -0.2866
     69  N         12.2570    7.8880   34.2520 N.3   136  SER136     -0.1202
     70  CA        11.8290    7.3880   32.9400 C.3   136  SER136      0.2020
     71  C         13.0220    7.1610   32.0160 C.2   136  SER136      0.2619
     72  O         14.0230    7.8790   32.0850 O.2   136  SER136     -0.2717
     73  CB        10.8450    8.3580   32.2570 C.3   136  SER136      0.2103
     74  OG        10.0840    9.1120   33.1890 O.3   136  SER136     -0.2182
     75  N         12.8910    6.1580   31.1490 N.am  137  GLY137     -0.1942
     76  CA        13.9260    5.8100   30.1820 C.3   137  GLY137      0.2014
     77  C         15.1950    5.2840   30.8220 C.2   137  GLY137      0.2638
     78  O         16.2920    5.5460   30.3170 O.2   137  GLY137     -0.2714
     79  N         15.0350    4.5730   31.9430 N.am  138  GLN138     -0.1977
     80  CA        16.1310    3.8760   32.6360 C.3   138  GLN138      0.1601
     81  C         15.9910    2.3570   32.5230 C.2   138  GLN138      0.2287
     82  O         16.9760    1.6710   32.2590 O.2   138  GLN138     -0.2864
     83  CB        16.2260    4.3030   34.1130 C.3   138  GLN138      0.0394
     84  CG        17.4780    5.0990   34.4790 C.3   138  GLN138      0.0908
     85  CD        17.5670    6.4630   33.8000 C.2   138  GLN138      0.2608
     86  OE1       17.6980    6.5560   32.5780 O.2   138  GLN138     -0.2717
     87  NE2       17.5260    7.5320   34.5970 N.am  138  GLN138     -0.0878
     88  N         14.8970   -0.0430   30.1980 N.3   140  TYR140     -0.1241
     89  CA        14.5520   -0.2240   28.7930 C.3   140  TYR140      0.1605
     90  C         15.1540   -1.4880   28.2030 C.2   140  TYR140      0.2264
     91  O         15.8320   -2.2600   28.8810 O.2   140  TYR140     -0.2867
     92  CB        15.0300    0.9870   27.9890 C.3   140  TYR140      0.0534
     93  CG        16.4060    1.4200   28.3930 C.ar  140  TYR140     -0.0201
     94  CD1       17.5150    1.1030   27.6230 C.ar  140  TYR140     -0.0009
     95  CD2       16.6020    2.1070   29.5730 C.ar  140  TYR140     -0.0009
     96  CE1       18.7840    1.4870   28.0090 C.ar  140  TYR140      0.0417
     97  CE2       17.8610    2.4930   29.9720 C.ar  140  TYR140      0.0417
     98  CZ        18.9510    2.1780   29.1860 C.ar  140  TYR140      0.1957
     99  OH        20.2140    2.5530   29.5660 O.3   140  TYR140     -0.2866
    100  N         19.7850   -2.5220   17.6900 N.3   144  ILE144     -0.1245
    101  CA        20.2320   -1.6330   16.6360 C.3   144  ILE144      0.1561
    102  C         20.9680   -2.4290   15.5700 C.2   144  ILE144      0.2260
    103  O         21.9620   -3.0860   15.8580 O.2   144  ILE144     -0.2867
    104  CB        21.1930   -0.5720   17.1950 C.3   144  ILE144      0.0252
    105  CG1       20.4870    0.2700   18.2590 C.3   144  ILE144      0.0019
    106  CG2       21.7320    0.3100   16.0790 C.3   144  ILE144      0.0019
    107  CD1       21.4160    1.1120   19.1000 C.3   144  ILE144      0.0001
@<TRIPOS>BOND
     1     4     3    2
     2    10     9    1
     3    10    11    2
     4    13    12    1
     5     9    12    1
     6     9     8    1
     7     3     8   am
     8     3     2    1
     9     1     2    1
    10     1     7    1
    11     2     5    1
    12     7     6    1
    13     5     6    1
    14    54    55    2
    15    54    53    1
    16    56    53    1
    17    53    52    1
    18    14    15    1
    19    19    18    1
    20    20    18    1
    21    15    18    1
    22    15    16    1
    23   102   103    2
    24   102   101    1
    25    17    16    2
    26   106   104    1
    27   101   104    1
    28   101   100    1
    29   104   105    1
    30    50    49    1
    31    51    49    1
    32    49    48    1
    33   105   107    1
    34    46    47    2
    35    46    45    1
    36    48    45    1
    37    45    44    1
    38    21    22    1
    39    22    25    1
    40    22    23    1
    41    25    26    1
    42    66    64   ar
    43    66    67   ar
    44    24    23    2
    45    64    62   ar
    46    68    67    1
    47    67    65   ar
    48    57    58    1
    49    34    33    2
    50    26    27   ar
    51    26    28   ar
    52    62    61    1
    53    62    63   ar
    54    39    38    2
    55    27    29   ar
    56    32    33    1
    57    32    31    1
    58    32    35    1
    59    33    36   am
    60    65    63   ar
    61    61    58    1
    62    38    37    1
    63    28    30   ar
    64    58    59    1
    65    60    59    2
    66    36    37    1
    67    29    30   ar
    68    37    40    1
    69    40    41    1
    70    94    96   ar
    71    94    93   ar
    72    43    41   am
    73    41    42    2
    74    92    93    1
    75    92    89    1
    76    96    98   ar
    77    90    89    1
    78    90    91    2
    79    93    95   ar
    80    89    88    1
    81    98    99    1
    82    98    97   ar
    83    95    97   ar
    84    76    77    1
    85    76    75    1
    86    78    77    2
    87    77    79   am
    88    75    71   am
    89    79    80    1
    90    71    72    2
    91    71    70    1
    92    73    70    1
    93    73    74    1
    94    82    81    2
    95    81    80    1
    96    86    85    2
    97    80    83    1
    98    70    69    1
    99    85    84    1
   100    85    87   am
   101    83    84    1
