@<TRIPOS>MOLECULE
tmp/5mu8D01.pdb
 77 73 0 0 0
SMALL
GASTEIGER

@<TRIPOS>ATOM
      1  N         33.1610   -3.6850    8.3370 N.3     3  LYS3       -0.1245
      2  CA        32.9200   -3.3140    9.7250 C.3     3  LYS3        0.1561
      3  C         33.2690   -4.4120   10.7210 C.2     3  LYS3        0.2260
      4  O         32.3760   -5.0500   11.2770 O.2     3  LYS3       -0.2867
      5  CB        31.4820   -2.8060    9.9240 C.3     3  LYS3        0.0271
      6  CG        31.2860   -1.3650    9.4760 C.3     3  LYS3        0.0035
      7  CD        32.4230   -0.4680    9.9560 C.3     3  LYS3        0.0206
      8  CE        32.3400    0.9270    9.3630 C.3     3  LYS3        0.1093
      9  NZ        33.5690    1.7230    9.6430 N.3     3  LYS3       -0.1314
     10  N         34.7250    0.1080   19.5500 N.3    49  LEU49      -0.1245
     11  CA        33.9590   -0.0440   20.7630 C.3    49  LEU49       0.1561
     12  C         34.4490   -1.3770   21.3460 C.2    49  LEU49       0.2260
     13  O         34.5420   -2.3740   20.6310 O.2    49  LEU49      -0.2867
     14  CB        32.4880   -0.1890   20.4120 C.3    49  LEU49       0.0270
     15  CG        31.4580   -0.1310   21.5350 C.3    49  LEU49       0.0019
     16  CD1       30.1700    0.4530   20.9940 C.3    49  LEU49       0.0001
     17  CD2       31.1680   -1.4850   22.1520 C.3    49  LEU49       0.0001
     18  N         33.9310   -4.0550   24.7870 N.3    51  TYR51      -0.1241
     19  CA        33.0880   -4.3890   25.9460 C.3    51  TYR51       0.1605
     20  C         33.4550   -5.7090   26.6160 C.2    51  TYR51       0.2264
     21  O         34.2960   -6.4530   26.1190 O.2    51  TYR51      -0.2867
     22  CB        31.5990   -4.3430   25.6080 C.3    51  TYR51       0.0534
     23  CG        31.1430   -5.2550   24.5070 C.ar   51  TYR51      -0.0201
     24  CD1       31.5600   -5.0600   23.1970 C.ar   51  TYR51      -0.0009
     25  CD2       30.2470   -6.2870   24.7660 C.ar   51  TYR51      -0.0009
     26  CE1       31.1220   -5.8870   22.1810 C.ar   51  TYR51       0.0417
     27  CE2       29.8020   -7.1180   23.7580 C.ar   51  TYR51       0.0417
     28  CZ        30.2430   -6.9150   22.4700 C.ar   51  TYR51       0.1957
     29  OH        29.8010   -7.7430   21.4740 O.3    51  TYR51      -0.2866
     30  N         34.0610   -1.3470   29.6240 N.3   113  GLY113     -0.1210
     31  CA        33.7690   -0.8950   28.2820 C.3   113  GLY113      0.1956
     32  C         34.4480    0.4090   27.9390 C.2   113  GLY113      0.2612
     33  O         34.9380    1.1120   28.8160 O.2   113  GLY113     -0.2717
     34  N         34.5090    0.6800   26.6420 N.am  114  GLY114     -0.1942
     35  CA        34.8590    1.9860   26.1320 C.3   114  GLY114      0.2014
     36  C         35.0630    1.9790   24.6370 C.2   114  GLY114      0.2638
     37  O         34.7140    1.0090   23.9640 O.2   114  GLY114     -0.2714
     38  N         35.6180    3.0640   24.1270 N.am  115  VAL115     -0.1977
     39  CA        35.9110    3.2250   22.7160 C.3   115  VAL115      0.1596
     40  C         37.3940    3.5490   22.7390 C.2   115  VAL115      0.2287
     41  O         37.8510    4.2880   23.6070 O.2   115  VAL115     -0.2864
     42  CB        35.1090    4.3640   22.0920 C.3   115  VAL115      0.0276
     43  CG1       35.2220    5.5860   22.9590 C.3   115  VAL115      0.0022
     44  CG2       35.6170    4.6780   20.6970 C.3   115  VAL115      0.0022
     45  N         30.9330  -12.6300   28.3270 N.3   143  TYR143     -0.1241
     46  CA        31.2390  -12.3130   26.9290 C.3   143  TYR143      0.1605
     47  C         32.2450  -11.1740   26.8280 C.2   143  TYR143      0.2264
     48  O         32.6060  -10.5460   27.8350 O.2   143  TYR143     -0.2867
     49  CB        29.9570  -12.0070   26.1400 C.3   143  TYR143      0.0534
     50  CG        28.9960  -11.1360   26.8770 C.ar  143  TYR143     -0.0201
     51  CD1       29.1030   -9.7530   26.8130 C.ar  143  TYR143     -0.0009
     52  CD2       27.9900  -11.6820   27.6740 C.ar  143  TYR143     -0.0009
     53  CE1       28.2290   -8.9310   27.5070 C.ar  143  TYR143      0.0417
     54  CE2       27.1090  -10.8650   28.3720 C.ar  143  TYR143      0.0417
     55  CZ        27.2410   -9.4920   28.2790 C.ar  143  TYR143      0.1957
     56  OH        26.3780   -8.6750   28.9470 O.3   143  TYR143     -0.2866
     57  N         33.5980   -3.6910   18.2970 N.3   147  ILE147     -0.1231
     58  CA        32.9120   -3.1590   17.1390 C.3   147  ILE147      0.1692
     59  C         33.7810   -2.0540   16.5800 C.2   147  ILE147      0.2592
     60  O         34.3430   -1.2860   17.3350 O.2   147  ILE147     -0.2718
     61  CB        31.5480   -2.5790   17.5170 C.3   147  ILE147      0.0266
     62  CG1       30.7390   -3.6150   18.2980 C.3   147  ILE147      0.0019
     63  CG2       30.8010   -2.1410   16.2680 C.3   147  ILE147      0.0020
     64  CD1       29.2780   -3.2640   18.4670 C.3   147  ILE147      0.0001
     65  N         33.8970   -1.9830   15.2640 N.am  148  ALA148     -0.1966
     66  CA        34.6980   -0.9500   14.6390 C.3   148  ALA148      0.1728
     67  C         33.7440    0.1360   14.1880 C.2   148  ALA148      0.2616
     68  O         32.8310   -0.1220   13.4170 O.2   148  ALA148     -0.2715
     69  CB        35.4580   -1.5120   13.4560 C.3   148  ALA148      0.0334
     70  N         33.9510    1.3520   14.6740 N.am  149  LEU149     -0.1977
     71  CA        33.0540    2.4530   14.3560 C.3   149  LEU149      0.1596
     72  C         33.6400    3.3250   13.2590 C.2   149  LEU149      0.2287
     73  O         34.5450    2.8310   12.5360 O.2   149  LEU149     -0.2864
     74  CB        32.7390    3.2670   15.6200 C.3   149  LEU149      0.0297
     75  CG        31.8200    2.5810   16.6420 C.3   149  LEU149      0.0022
     76  CD1       32.1690    1.1170   16.8120 C.3   149  LEU149      0.0001
     77  CD2       31.8300    3.2650   17.9940 C.3   149  LEU149      0.0001
@<TRIPOS>BOND
     1     1     2    1
     2     8     9    1
     3     8     7    1
     4     6     5    1
     5     6     7    1
     6     2     5    1
     7     2     3    1
     8     3     4    2
     9    73    72    2
    10    72    71    1
    11    68    67    2
    12    69    66    1
    13    67    66    1
    14    67    70   am
    15    71    70    1
    16    71    74    1
    17    66    65    1
    18    65    59   am
    19    74    75    1
    20    63    61    1
    21    59    58    1
    22    59    60    2
    23    75    76    1
    24    75    77    1
    25    58    61    1
    26    58    57    1
    27    61    62    1
    28    62    64    1
    29    10    11    1
    30    14    11    1
    31    14    15    1
    32    13    12    2
    33    44    42    1
    34    11    12    1
    35    16    15    1
    36    29    28    1
    37    15    17    1
    38    42    39    1
    39    42    43    1
    40    26    28   ar
    41    26    24   ar
    42    28    27   ar
    43    39    40    1
    44    39    38    1
    45    40    41    2
    46    24    23   ar
    47    27    25   ar
    48    37    36    2
    49    38    36   am
    50    23    25   ar
    51    23    22    1
    52    36    35    1
    53    18    19    1
    54    22    19    1
    55    19    20    1
    56    21    20    2
    57    35    34    1
    58    49    50    1
    59    49    46    1
    60    34    32   am
    61    51    50   ar
    62    51    53   ar
    63    47    46    1
    64    47    48    2
    65    50    52   ar
    66    46    45    1
    67    53    55   ar
    68    52    54   ar
    69    32    31    1
    70    32    33    2
    71    55    54   ar
    72    55    56    1
    73    31    30    1
