@<TRIPOS>MOLECULE
tmp/5mu8U01.pdb
 87 82 0 0 0
SMALL
GASTEIGER

@<TRIPOS>ATOM
      1  N         83.7140    5.7200   -4.3950 N.3     5  VAL5       -0.1245
      2  CA        84.0700    5.1840   -3.0670 C.3     5  VAL5        0.1561
      3  C         85.5790    4.9800   -2.9210 C.2     5  VAL5        0.2260
      4  O         86.3170    4.9240   -3.9150 O.2     5  VAL5       -0.2867
      5  CB        83.3260    3.8650   -2.6920 C.3     5  VAL5        0.0252
      6  CG1       81.9020    3.8430   -3.2360 C.3     5  VAL5        0.0019
      7  CG2       84.0840    2.6210   -3.1400 C.3     5  VAL5        0.0019
      8  N         88.7120    3.6120    0.4130 N.3     7  HIS7       -0.1241
      9  CA        89.1050    3.2060    1.7630 C.3     7  HIS7        0.1621
     10  C         90.6090    2.9330    1.7050 C.2     7  HIS7        0.2264
     11  O         91.0710    2.1610    0.8490 O.2     7  HIS7       -0.2867
     12  CB        88.3180    1.9510    2.1770 C.3     7  HIS7        0.0745
     13  CG        88.6660    1.4130    3.5350 C.ar    7  HIS7        0.0817
     14  ND1       87.7920    1.4620    4.6000 N.ar    7  HIS7       -0.2268
     15  CD2       89.7770    0.7840    3.9920 C.ar    7  HIS7        0.1154
     16  CE1       88.3560    0.9060    5.6580 C.ar    7  HIS7        0.1986
     17  NE2       89.5600    0.4850    5.3150 N.ar    7  HIS7       -0.2212
     18  N         92.0960    0.8530   -1.3060 N.3    22  LEU22      -0.1245
     19  CA        91.4890    0.8830   -2.6330 C.3    22  LEU22       0.1561
     20  C         90.7530    2.2000   -2.9430 C.2    22  LEU22       0.2260
     21  O         90.3140    2.9280   -2.0390 O.2    22  LEU22      -0.2867
     22  CB        90.5280   -0.3000   -2.7960 C.3    22  LEU22       0.0270
     23  CG        89.1920   -0.2500   -2.0250 C.3    22  LEU22       0.0019
     24  CD1       88.0360    0.2110   -2.9100 C.3    22  LEU22       0.0001
     25  CD2       88.8620   -1.6070   -1.4010 C.3    22  LEU22       0.0001
     26  N         79.6870    9.9590    2.8010 N.3    43  LEU43      -0.1245
     27  CA        79.7930    9.4620    4.1610 C.3    43  LEU43       0.1561
     28  C         81.2620    9.3350    4.4130 C.2    43  LEU43       0.2260
     29  O         81.9350    8.5440    3.7630 O.2    43  LEU43      -0.2867
     30  CB        79.1020    8.1170    4.2940 C.3    43  LEU43       0.0270
     31  CG        78.6970    7.7200    5.7050 C.3    43  LEU43       0.0019
     32  CD1       77.8370    6.4710    5.6210 C.3    43  LEU43       0.0001
     33  CD2       79.9060    7.4890    6.5980 C.3    43  LEU43       0.0001
     34  N         84.4180    8.8610    7.1800 N.3    45  TYR45      -0.1241
     35  CA        84.6770    8.1360    8.4150 C.3    45  TYR45       0.1605
     36  C         86.1390    7.7510    8.4770 C.2    45  TYR45       0.2264
     37  O         86.7860    7.5670    7.4400 O.2    45  TYR45      -0.2867
     38  CB        83.7990    6.8710    8.5000 C.3    45  TYR45       0.0534
     39  CG        84.1410    5.8240    7.4580 C.ar   45  TYR45      -0.0201
     40  CD1       85.1200    4.8530    7.7050 C.ar   45  TYR45      -0.0009
     41  CD2       83.5010    5.8040    6.2160 C.ar   45  TYR45      -0.0009
     42  CE1       85.4450    3.8980    6.7490 C.ar   45  TYR45       0.0417
     43  CE2       83.8210    4.8430    5.2600 C.ar   45  TYR45       0.0417
     44  CZ        84.7960    3.9030    5.5350 C.ar   45  TYR45       0.1957
     45  OH        85.1260    2.9710    4.5950 O.3    45  TYR45      -0.2866
     46  N         94.3290   -1.9500   11.0420 N.3   130  GLN130     -0.1245
     47  CA        92.9750   -1.3860   11.2360 C.3   130  GLN130      0.1566
     48  C         93.0270    0.0800   11.6990 C.2   130  GLN130      0.2260
     49  O         92.3540    0.4840   12.6540 O.2   130  GLN130     -0.2867
     50  CB        92.1570   -2.2390   12.2250 C.3   130  GLN130      0.0367
     51  CG        91.9280   -3.6860   11.7950 C.3   130  GLN130      0.0905
     52  CD        90.8920   -3.8530   10.6880 C.2   130  GLN130      0.2608
     53  OE1       90.5090   -2.8940   10.0120 O.2   130  GLN130     -0.2717
     54  NE2       90.4330   -5.0910   10.4960 N.am  130  GLN130     -0.0878
     55  N         92.5550    3.4490    9.4180 N.3   132  TYR132     -0.1241
     56  CA        92.0250    3.6140    8.0750 C.3   132  TYR132      0.1605
     57  C         91.2680    4.9370    7.9540 C.2   132  TYR132      0.2264
     58  O         90.7890    5.4850    8.9500 O.2   132  TYR132     -0.2867
     59  CB        91.0910    2.4270    7.7530 C.3   132  TYR132      0.0534
     60  CG        90.0020    2.2380    8.7950 C.ar  132  TYR132     -0.0201
     61  CD1       88.7920    2.9300    8.7030 C.ar  132  TYR132     -0.0009
     62  CD2       90.1990    1.4150    9.9010 C.ar  132  TYR132     -0.0009
     63  CE1       87.8040    2.7970    9.6710 C.ar  132  TYR132      0.0417
     64  CE2       89.2140    1.2700   10.8750 C.ar  132  TYR132      0.0417
     65  CZ        88.0150    1.9630   10.7540 C.ar  132  TYR132      0.1957
     66  OH        87.0300    1.8400   11.7110 O.3   132  TYR132     -0.2866
     67  N         82.4270    7.2380    1.0940 N.3   136  ILE136     -0.1231
     68  CA        81.4630    6.5320    0.2380 C.3   136  ILE136      0.1692
     69  C         80.4090    7.5110   -0.2920 C.2   136  ILE136      0.2592
     70  O         79.6410    8.0730    0.4950 O.2   136  ILE136     -0.2718
     71  CB        80.7520    5.4210    1.0570 C.3   136  ILE136      0.0266
     72  CG1       81.7180    4.2590    1.3180 C.3   136  ILE136      0.0019
     73  CG2       79.4770    4.9180    0.3690 C.3   136  ILE136      0.0020
     74  CD1       81.3400    3.3950    2.5050 C.3   136  ILE136      0.0001
     75  N         80.3500    7.6970   -1.6090 N.am  137  ALA137     -0.1966
     76  CA        79.3230    8.5550   -2.2010 C.3   137  ALA137      0.1728
     77  C         77.9700    7.8740   -2.0820 C.2   137  ALA137      0.2616
     78  O         77.8080    6.7580   -2.5560 O.2   137  ALA137     -0.2715
     79  CB        79.6310    8.8460   -3.6600 C.3   137  ALA137      0.0334
     80  N         77.0150    8.5460   -1.4410 N.am  138  LEU138     -0.1977
     81  CA        75.6600    8.0120   -1.2640 C.3   138  LEU138      0.1596
     82  C         74.8390    8.1760   -2.5300 C.2   138  LEU138      0.2287
     83  O         75.1810    8.9720   -3.4030 O.2   138  LEU138     -0.2864
     84  CB        74.9440    8.6840   -0.0870 C.3   138  LEU138      0.0297
     85  CG        75.2450    8.1210    1.3100 C.3   138  LEU138      0.0022
     86  CD1       76.7330    7.9300    1.5480 C.3   138  LEU138      0.0001
     87  CD2       74.6590    8.9940    2.4180 C.3   138  LEU138      0.0001
@<TRIPOS>BOND
     1     1     2    1
     2     4     3    2
     3    79    76    1
     4    83    82    2
     5     6     5    1
     6     7     5    1
     7     2     3    1
     8     2     5    1
     9    20    19    1
    10    20    21    2
    11    24    23    1
    12    22    19    1
    13    22    23    1
    14    19    18    1
    15    78    77    2
    16    82    81    1
    17    76    77    1
    18    76    75    1
    19    77    80   am
    20    23    25    1
    21    75    69   am
    22    80    81    1
    23    81    84    1
    24    69    68    1
    25    69    70    2
    26    84    85    1
    27    68    71    1
    28    68    67    1
    29    73    71    1
    30     8     9    1
    31    11    10    2
    32    71    72    1
    33    85    86    1
    34    85    87    1
    35    72    74    1
    36    10     9    1
    37     9    12    1
    38    12    13    1
    39    26    27    1
    40    13    15   ar
    41    13    14   ar
    42    29    28    2
    43    15    17   ar
    44    27    30    1
    45    27    28    1
    46    30    31    1
    47    45    44    1
    48    14    16   ar
    49    43    44   ar
    50    43    41   ar
    51    17    16   ar
    52    44    42   ar
    53    32    31    1
    54    31    33    1
    55    41    39   ar
    56    42    40   ar
    57    34    35    1
    58    37    36    2
    59    39    40   ar
    60    39    38    1
    61    59    56    1
    62    59    60    1
    63    57    56    1
    64    57    58    2
    65    56    55    1
    66    35    36    1
    67    35    38    1
    68    61    60   ar
    69    61    63   ar
    70    60    62   ar
    71    63    65   ar
    72    62    64   ar
    73    53    52    2
    74    54    52   am
    75    52    51    1
    76    65    64   ar
    77    65    66    1
    78    46    47    1
    79    47    48    1
    80    47    50    1
    81    48    49    2
    82    51    50    1
