@<TRIPOS>MOLECULE
tmp/5mu9A06.pdb
 85 83 0 0 0
SMALL
GASTEIGER

@<TRIPOS>ATOM
      1  N        -76.1910   19.0730  -29.3430 N.3   207  TRP207     -0.1241
      2  CA       -76.0450   17.7320  -29.8510 C.3   207  TRP207      0.1605
      3  C        -76.2460   17.7770  -31.3950 C.2   207  TRP207      0.2264
      4  O        -77.2490   18.3180  -31.8650 O.2   207  TRP207     -0.2867
      5  CB       -77.0930   16.8150  -29.2280 C.3   207  TRP207      0.0550
      6  CG       -76.8790   15.3720  -29.6600 C.ar  207  TRP207      0.0003
      7  CD1      -76.1580   14.3910  -29.0400 C.ar  207  TRP207      0.0946
      8  CD2      -77.3500   14.7680  -30.8880 C.ar  207  TRP207      0.0152
      9  NE1      -76.1600   13.2550  -29.7440 N.ar  207  TRP207     -0.2442
     10  CE2      -76.9360   13.4190  -30.8650 C.ar  207  TRP207      0.0810
     11  CE3      -78.1750   15.1980  -31.9090 C.ar  207  TRP207      0.0012
     12  CZ2      -77.2190   12.4940  -31.8820 C.ar  207  TRP207      0.0191
     13  CZ3      -78.5240   14.2600  -32.9230 C.ar  207  TRP207      0.0001
     14  CH2      -78.0230   12.9380  -32.9020 C.ar  207  TRP207      0.0015
     15  N        -71.6050   14.6490  -30.9650 N.3   213  ASP213     -0.1225
     16  CA       -72.5760   13.7010  -30.3440 C.3   213  ASP213      0.1805
     17  C        -71.9490   13.1740  -29.0550 C.2   213  ASP213      0.2598
     18  O        -71.0230   13.8000  -28.4920 O.2   213  ASP213     -0.2718
     19  CB       -73.0600   12.6460  -31.3410 C.3   213  ASP213      0.1424
     20  CG       -71.9880   11.6610  -31.8120 C.2   213  ASP213      0.3668
     21  OD1      -70.8220   12.0660  -31.7500 O.co2 213  ASP213     -0.2456
     22  OD2      -72.3600   10.5570  -32.2470 O.co2 213  ASP213     -0.2456
     23  N        -72.5320   12.1150  -28.5210 N.am  214  CYS214     -0.1956
     24  CA       -72.1480   11.6900  -27.1500 C.3   214  CYS214      0.1843
     25  C        -70.6610   11.5450  -26.9330 C.2   214  CYS214      0.2625
     26  O        -70.1240   12.0020  -25.9180 O.2   214  CYS214     -0.2714
     27  CB       -72.9350   10.3990  -26.7420 C.3   214  CYS214      0.0997
     28  SG       -72.6640    9.0630  -27.9380 S.3   214  CYS214     -0.0797
     29  N        -69.9530   10.9270  -27.8670 N.am  215  ASP215     -0.1971
     30  CA       -68.5510   10.7030  -27.7250 C.3   215  ASP215      0.1709
     31  C        -67.7640   12.0570  -27.6210 C.2   215  ASP215      0.2293
     32  O        -66.7850   12.1840  -26.8700 O.2   215  ASP215     -0.2864
     33  CB       -67.9610    9.8050  -28.7730 C.3   215  ASP215      0.1436
     34  CG       -68.4700   10.1590  -30.1740 C.2   215  ASP215      0.3671
     35  OD1      -69.5310    9.6150  -30.5390 O.co2 215  ASP215     -0.2456
     36  OD2      -67.7960   11.0240  -30.8320 O.co2 215  ASP215     -0.2456
     37  N        -67.9060    3.9920  -22.5630 N.3   246  LEU246     -0.1245
     38  CA       -68.7940    3.5720  -23.6030 C.3   246  LEU246      0.1561
     39  C        -69.6750    2.4950  -23.0680 C.2   246  LEU246      0.2260
     40  O        -69.1650    1.5180  -22.4340 O.2   246  LEU246     -0.2867
     41  CB       -67.9980    3.0360  -24.8500 C.3   246  LEU246      0.0270
     42  CG       -66.8600    3.9660  -25.2530 C.3   246  LEU246      0.0019
     43  CD1      -66.1760    3.3670  -26.5090 C.3   246  LEU246      0.0001
     44  CD2      -67.2920    5.4020  -25.5170 C.3   246  LEU246      0.0001
     45  N        -76.2510    2.4100  -27.8670 N.3   255  ALA255     -0.1231
     46  CA       -75.0500    2.6330  -27.1060 C.3   255  ALA255      0.1694
     47  C        -74.8260    4.1200  -26.9350 C.2   255  ALA255      0.2592
     48  O        -75.3810    4.9530  -27.6690 O.2   255  ALA255     -0.2718
     49  CB       -73.8990    1.8780  -27.7480 C.3   255  ALA255      0.0304
     50  N        -74.0590    4.4320  -25.9210 N.am  256  HIS256     -0.1962
     51  CA       -73.8840    5.8010  -25.4440 C.3   256  HIS256      0.1787
     52  C        -72.5200    5.9960  -24.8570 C.2   256  HIS256      0.2620
     53  O        -71.8900    5.0770  -24.3010 O.2   256  HIS256     -0.2715
     54  CB       -74.9820    6.0760  -24.3640 C.3   256  HIS256      0.0785
     55  CG       -75.1170    7.4900  -23.9860 C.ar  256  HIS256      0.0821
     56  ND1      -75.1820    8.4860  -24.9030 N.ar  256  HIS256     -0.2267
     57  CD2      -75.2190    8.0570  -22.7480 C.ar  256  HIS256      0.1154
     58  CE1      -75.3540    9.6460  -24.2640 C.ar  256  HIS256      0.1986
     59  NE2      -75.3410    9.4180  -22.9420 N.ar  256  HIS256     -0.2212
     60  N        -72.0130    7.2270  -24.9210 N.am  257  ALA257     -0.1977
     61  CA       -70.7430    7.6780  -24.3350 C.3   257  ALA257      0.1597
     62  C        -71.0200    8.6950  -23.2540 C.2   257  ALA257      0.2287
     63  O        -71.8320    9.5920  -23.4820 O.2   257  ALA257     -0.2864
     64  CB       -69.8000    8.2020  -25.3620 C.3   257  ALA257      0.0319
     65  N        -73.8960   15.9170  -21.5360 N.3   275  GLN275     -0.1245
     66  CA       -74.8630   16.7330  -22.2860 C.3   275  GLN275      0.1566
     67  C        -75.8140   17.5510  -21.3670 C.2   275  GLN275      0.2260
     68  O        -76.3870   18.5270  -21.8310 O.2   275  GLN275     -0.2867
     69  CB       -75.7140   15.8110  -23.1750 C.3   275  GLN275      0.0367
     70  CG       -74.9900   15.2830  -24.3190 C.3   275  GLN275      0.0905
     71  CD       -75.8870   14.4660  -25.2010 C.2   275  GLN275      0.2608
     72  OE1      -76.8770   14.9370  -25.7190 O.2   275  GLN275     -0.2717
     73  NE2      -75.4630   13.2360  -25.4470 N.am  275  GLN275     -0.0878
     74  N        -69.0280   -1.1130  -21.5760 N.3   288  TYR288     -0.1241
     75  CA       -68.1440   -2.0310  -22.1860 C.3   288  TYR288      0.1605
     76  C        -66.7280   -1.5980  -22.3820 C.2   288  TYR288      0.2264
     77  O        -65.8720   -2.4050  -22.6650 O.2   288  TYR288     -0.2867
     78  CB       -68.7350   -2.5740  -23.5510 C.3   288  TYR288      0.0534
     79  CG       -68.8810   -1.5310  -24.6480 C.ar  288  TYR288     -0.0201
     80  CD1      -67.8480   -1.2800  -25.5180 C.ar  288  TYR288     -0.0009
     81  CD2      -70.0400   -0.8320  -24.8140 C.ar  288  TYR288     -0.0009
     82  CE1      -67.9490   -0.3590  -26.5450 C.ar  288  TYR288      0.0417
     83  CE2      -70.1900    0.0630  -25.8500 C.ar  288  TYR288      0.0417
     84  CZ       -69.1160    0.3260  -26.6980 C.ar  288  TYR288      0.1957
     85  OH       -69.2950    1.2510  -27.7010 O.3   288  TYR288     -0.2866
@<TRIPOS>BOND
     1    13    14   ar
     2    13    11   ar
     3    14    12   ar
     4    22    20   ar
     5    11     8   ar
     6    12    10   ar
     7     4     3    2
     8    20    21   ar
     9    20    19    1
    10     3     2    1
    11    19    16    1
    12    15    16    1
    13     8    10   ar
    14     8     6   ar
    15    10     9   ar
    16    36    34   ar
    17    35    34   ar
    18    16    17    1
    19    34    33    1
    20     2     1    1
    21     2     5    1
    22     9     7   ar
    23     6     5    1
    24     6     7   ar
    25    17    23   am
    26    17    18    2
    27    33    30    1
    28    23    24    1
    29    28    27    1
    30    45    46    1
    31    29    30    1
    32    29    25   am
    33    49    46    1
    34    30    31    1
    35    85    84    1
    36    48    47    2
    37    31    32    2
    38    24    25    1
    39    24    27    1
    40    46    47    1
    41    47    50   am
    42    25    26    2
    43    84    82   ar
    44    84    83   ar
    45    82    80   ar
    46    43    42    1
    47    50    51    1
    48    83    81   ar
    49    72    71    2
    50    80    79   ar
    51    44    42    1
    52    73    71   am
    53    51    52    1
    54    51    54    1
    55    64    61    1
    56    42    41    1
    57    71    70    1
    58    60    52   am
    59    60    61    1
    60    56    58   ar
    61    56    55   ar
    62    52    53    2
    63    41    38    1
    64    81    79   ar
    65    79    78    1
    66    54    55    1
    67    61    62    1
    68    70    69    1
    69    58    59   ar
    70    55    57   ar
    71    38    39    1
    72    38    37    1
    73    78    75    1
    74    63    62    2
    75    69    66    1
    76    39    40    2
    77    59    57   ar
    78    77    76    2
    79    76    75    1
    80    66    65    1
    81    66    67    1
    82    75    74    1
    83    68    67    2
