@<TRIPOS>MOLECULE
tmp/5muaB01.pdb
 101 99 0 0 0
SMALL
GASTEIGER

@<TRIPOS>ATOM
      1  N         10.3040   37.0280  -11.0890 N.3   190  TRP190     -0.1241
      2  CA         9.1810   36.2570  -11.4620 C.3   190  TRP190      0.1605
      3  C          9.1260   36.2340  -12.9700 C.2   190  TRP190      0.2264
      4  O          9.1740   37.2730  -13.6080 O.2   190  TRP190     -0.2867
      5  CB         7.8880   36.8020  -10.9020 C.3   190  TRP190      0.0550
      6  CG         6.6370   36.1060  -11.2140 C.ar  190  TRP190      0.0003
      7  CD1        5.9740   35.2130  -10.3890 C.ar  190  TRP190      0.0946
      8  CD2        5.7970   36.2270  -12.3760 C.ar  190  TRP190      0.0152
      9  NE1        4.8400   34.7560  -10.9600 N.ar  190  TRP190     -0.2442
     10  CE2        4.7050   35.3250  -12.1960 C.ar  190  TRP190      0.0810
     11  CE3        5.8610   36.9640  -13.5620 C.ar  190  TRP190      0.0012
     12  CZ2        3.6950   35.1630  -13.1380 C.ar  190  TRP190      0.0191
     13  CZ3        4.8680   36.7810  -14.5150 C.ar  190  TRP190      0.0001
     14  CH2        3.7810   35.9020  -14.2820 C.ar  190  TRP190      0.0015
     15  N          5.3590   31.0620  -16.2600 N.3   193  GLU193     -0.1245
     16  CA         5.6210   29.5860  -16.5200 C.3   193  GLU193      0.1567
     17  C          6.9870   29.0740  -16.1340 C.2   193  GLU193      0.2260
     18  O          7.1080   28.0600  -15.4030 O.2   193  GLU193     -0.2867
     19  CB         5.2710   29.2030  -17.9480 C.3   193  GLU193      0.0388
     20  CG         3.7580   29.1790  -18.2680 C.3   193  GLU193      0.1160
     21  CD         3.1350   30.5640  -18.4260 C.2   193  GLU193      0.3649
     22  OE1        3.8060   31.4660  -18.9850 O.co2 193  GLU193     -0.2457
     23  OE2        1.9610   30.6980  -18.0070 O.co2 193  GLU193     -0.2457
     24  N          7.5940   30.8650  -12.0460 N.3   196  ASP196     -0.1225
     25  CA         6.3970   31.4830  -11.5470 C.3   196  ASP196      0.1805
     26  C          5.9620   30.8440  -10.1850 C.2   196  ASP196      0.2598
     27  O          6.7880   30.1740   -9.5410 O.2   196  ASP196     -0.2718
     28  CB         5.3410   31.6820  -12.6070 C.3   196  ASP196      0.1424
     29  CG         4.8460   30.3780  -13.2310 C.2   196  ASP196      0.3668
     30  OD1        5.4590   29.3020  -12.9170 O.co2 196  ASP196     -0.2456
     31  OD2        3.7750   30.4380  -13.8980 O.co2 196  ASP196     -0.2456
     32  N          4.7430   31.1190   -9.7050 N.am  197  CYS197     -0.1956
     33  CA         4.4550   30.8280   -8.2960 C.3   197  CYS197      0.1843
     34  C          4.7040   29.3450   -8.0050 C.2   197  CYS197      0.2625
     35  O          5.2560   29.0120   -6.9420 O.2   197  CYS197     -0.2714
     36  CB         3.0530   31.1490   -7.9390 C.3   197  CYS197      0.0997
     37  SG         1.7070   30.3910   -8.8840 S.3   197  CYS197     -0.0797
     38  N          4.3400   28.4570   -8.9230 N.am  198  ASP198     -0.1971
     39  CA         4.5890   27.0760   -8.6770 C.3   198  ASP198      0.1709
     40  C          6.0610   26.7920   -8.4060 C.2   198  ASP198      0.2293
     41  O          6.3810   25.9400   -7.5640 O.2   198  ASP198     -0.2864
     42  CB         3.9970   26.1520   -9.7420 C.3   198  ASP198      0.1436
     43  CG         4.5730   26.3840  -11.1600 C.2   198  ASP198      0.3671
     44  OD1        5.6240   25.7920  -11.4870 O.co2 198  ASP198     -0.2456
     45  OD2        3.9560   27.2170  -11.8770 O.co2 198  ASP198     -0.2456
     46  N         -1.6300   24.7170   -3.5520 N.3   229  PHE229     -0.1227
     47  CA        -2.1870   25.3880   -4.7200 C.3   229  PHE229      0.1736
     48  C         -3.6090   25.7660   -4.3230 C.2   229  PHE229      0.2596
     49  O         -4.4120   24.9270   -3.8330 O.2   229  PHE229     -0.2718
     50  CB        -2.2850   24.4290   -5.9190 C.3   229  PHE229      0.0547
     51  CG        -0.9930   24.0560   -6.5630 C.ar  229  PHE229     -0.0202
     52  CD1        0.2580   24.4740   -6.1130 C.ar  229  PHE229     -0.0042
     53  CD2       -1.0570   23.3080   -7.7480 C.ar  229  PHE229     -0.0042
     54  CE1        1.4110   24.1140   -6.7670 C.ar  229  PHE229     -0.0003
     55  CE2        0.1150   22.9540   -8.4260 C.ar  229  PHE229     -0.0003
     56  CZ         1.3420   23.3520   -7.9180 C.ar  229  PHE229     -0.0000
     57  N         -3.9380   27.0260   -4.5350 N.am  230  GLY230     -0.1957
     58  CA        -5.2830   27.4930   -4.2600 C.3   230  GLY230      0.1869
     59  C         -5.7470   28.5200   -5.2730 C.2   230  GLY230      0.2309
     60  O         -4.9870   28.9300   -6.1550 O.2   230  GLY230     -0.2863
     61  N         -5.3730   31.8350   -9.6260 N.3   236  ALA236     -0.1231
     62  CA        -4.8490   30.7370   -8.8340 C.3   236  ALA236      0.1694
     63  C         -3.4120   30.9690   -8.4730 C.2   236  ALA236      0.2592
     64  O         -2.6610   31.6020   -9.2480 O.2   236  ALA236     -0.2718
     65  CB        -5.0300   29.4290   -9.5550 C.3   236  ALA236      0.0304
     66  N         -2.9730   30.4000   -7.3200 N.am  237  HIS237     -0.1962
     67  CA        -1.6280   30.7580   -6.8180 C.3   237  HIS237      0.1787
     68  C         -1.1060   29.6170   -6.0100 C.2   237  HIS237      0.2620
     69  O         -1.8960   28.9350   -5.3640 O.2   237  HIS237     -0.2715
     70  CB        -1.7350   32.0330   -5.9040 C.3   237  HIS237      0.0785
     71  CG        -0.4330   32.6740   -5.5160 C.ar  237  HIS237      0.0821
     72  ND1        0.4390   33.2790   -6.3980 N.ar  237  HIS237     -0.2267
     73  CD2        0.1130   32.8550   -4.3080 C.ar  237  HIS237      0.1154
     74  CE1        1.4770   33.7610   -5.7580 C.ar  237  HIS237      0.1986
     75  NE2        1.3080   33.4990   -4.4780 N.ar  237  HIS237     -0.2212
     76  N          0.2250   29.4720   -6.0530 N.am  238  ALA238     -0.1977
     77  CA         0.9750   28.5180   -5.2720 C.3   238  ALA238      0.1597
     78  C          1.7430   29.2120   -4.1950 C.2   238  ALA238      0.2287
     79  O          2.3330   30.2460   -4.4290 O.2   238  ALA238     -0.2864
     80  CB         1.9540   27.6880   -6.1270 C.3   238  ALA238      0.0319
     81  N          7.9190   34.1360   -2.9620 N.3   257  GLN257     -0.1245
     82  CA         8.4740   35.2030   -3.7920 C.3   257  GLN257      0.1566
     83  C          9.0290   36.3490   -2.9890 C.2   257  GLN257      0.2260
     84  O          9.9970   36.9360   -3.4640 O.2   257  GLN257     -0.2867
     85  CB         7.4500   35.8150   -4.7170 C.3   257  GLN257      0.0367
     86  CG         7.0360   34.8000   -5.7510 C.3   257  GLN257      0.0905
     87  CD         6.0610   35.3820   -6.7080 C.2   257  GLN257      0.2608
     88  OE1        6.2490   36.5020   -7.2170 O.2   257  GLN257     -0.2717
     89  NE2        5.0330   34.6520   -6.9730 N.am  257  GLN257     -0.0878
     90  N         -6.9430   23.8870   -3.0790 N.3   271  TYR271     -0.1241
     91  CA        -7.4240   22.6340   -3.6160 C.3   271  TYR271      0.1605
     92  C         -6.4520   21.5010   -3.4800 C.2   271  TYR271      0.2264
     93  O         -6.8420   20.3140   -3.5730 O.2   271  TYR271     -0.2867
     94  CB        -7.9400   22.7670   -5.0400 C.3   271  TYR271      0.0534
     95  CG        -6.9530   23.2990   -6.0380 C.ar  271  TYR271     -0.0201
     96  CD1       -6.0700   22.4270   -6.7360 C.ar  271  TYR271     -0.0009
     97  CD2       -6.9400   24.6510   -6.3840 C.ar  271  TYR271     -0.0009
     98  CE1       -5.1620   22.9130   -7.6390 C.ar  271  TYR271      0.0417
     99  CE2       -6.0210   25.1250   -7.3230 C.ar  271  TYR271      0.0417
    100  CZ        -5.1610   24.2340   -7.9810 C.ar  271  TYR271      0.1957
    101  OH        -4.2520   24.6980   -8.9060 O.3   271  TYR271     -0.2866
@<TRIPOS>BOND
     1    22    21   ar
     2    21    20    1
     3    21    23   ar
     4    20    19    1
     5    19    16    1
     6    16    15    1
     7    16    17    1
     8    17    18    2
     9    13    14   ar
    10    13    11   ar
    11    14    12   ar
    12    31    29   ar
    13     4     3    2
    14    11     8   ar
    15    29    30   ar
    16    29    28    1
    17    12    10   ar
    18     3     2    1
    19    28    25    1
    20     8    10   ar
    21     8     6   ar
    22    10     9   ar
    23    24    25    1
    24    45    43   ar
    25    25    26    1
    26    44    43   ar
    27     2     1    1
    28     2     5    1
    29     6     5    1
    30     6     7   ar
    31    43    42    1
    32     9     7   ar
    33    26    32   am
    34    26    27    2
    35    42    39    1
    36    32    33    1
    37    61    62    1
    38    65    62    1
    39    64    63    2
    40    38    39    1
    41    38    34   am
    42   101   100    1
    43    37    36    1
    44    62    63    1
    45    39    40    1
    46    63    66   am
    47    55    56   ar
    48    55    53   ar
    49    40    41    2
    50    33    34    1
    51    33    36    1
    52    34    35    2
    53   100    98   ar
    54   100    99   ar
    55    56    54   ar
    56    53    51   ar
    57    98    96   ar
    58    99    97   ar
    59    66    67    1
    60    88    87    2
    61    89    87   am
    62    67    68    1
    63    67    70    1
    64    54    52   ar
    65    96    95   ar
    66    87    86    1
    67    51    52   ar
    68    51    50    1
    69    72    74   ar
    70    72    71   ar
    71    97    95   ar
    72    60    59    2
    73    80    77    1
    74    76    68   am
    75    76    77    1
    76    95    94    1
    77    68    69    2
    78    50    47    1
    79    70    71    1
    80    74    75   ar
    81    86    85    1
    82    71    73   ar
    83    59    58    1
    84    77    78    1
    85    94    91    1
    86    47    48    1
    87    47    46    1
    88    85    82    1
    89    57    48   am
    90    57    58    1
    91    75    73   ar
    92    79    78    2
    93    48    49    2
    94    82    83    1
    95    82    81    1
    96    91    92    1
    97    91    90    1
    98    93    92    2
    99    84    83    2
