@<TRIPOS>MOLECULE
tmp/5muaA01.pdb
 92 91 0 0 0
SMALL
GASTEIGER

@<TRIPOS>ATOM
      1  N         20.4670    8.3160    1.7850 N.3   184  TRP184     -0.1241
      2  CA        19.0820    8.1950    2.2050 C.3   184  TRP184      0.1605
      3  C         19.0510    8.2180    3.7280 C.2   184  TRP184      0.2264
      4  O         19.8420    7.5260    4.3770 O.2   184  TRP184     -0.2867
      5  CB        18.4910    6.8700    1.7060 C.3   184  TRP184      0.0550
      6  CG        17.0480    6.6620    2.0630 C.ar  184  TRP184      0.0003
      7  CD1       15.9740    6.9120    1.2810 C.ar  184  TRP184      0.0946
      8  CD2       16.5170    6.1210    3.2880 C.ar  184  TRP184      0.0152
      9  NE1       14.8100    6.5740    1.9250 N.ar  184  TRP184     -0.2442
     10  CE2       15.1180    6.1010    3.1710 C.ar  184  TRP184      0.0810
     11  CE3       17.1040    5.6100    4.4540 C.ar  184  TRP184      0.0012
     12  CZ2       14.2840    5.6560    4.1900 C.ar  184  TRP184      0.0191
     13  CZ3       16.2850    5.1850    5.4790 C.ar  184  TRP184      0.0001
     14  CH2       14.8750    5.1680    5.3210 C.ar  184  TRP184      0.0015
     15  N         14.4300   11.3500    2.7930 N.3   190  ASP190     -0.1225
     16  CA        13.9790   10.0620    2.2760 C.3   190  ASP190      0.1805
     17  C         13.2780   10.3230    0.9290 C.2   190  ASP190      0.2598
     18  O         13.5100   11.3940    0.3280 O.2   190  ASP190     -0.2718
     19  CB        13.1960    9.2930    3.3070 C.3   190  ASP190      0.1424
     20  CG        11.9540   10.0250    3.7650 C.2   190  ASP190      0.3668
     21  OD1       11.7990   11.2700    3.5770 O.co2 190  ASP190     -0.2456
     22  OD2       11.0970    9.3330    4.3290 O.co2 190  ASP190     -0.2456
     23  N         12.5320    9.3490    0.4310 N.am  191  CYS191     -0.1956
     24  CA        12.1240    9.3690   -0.9670 C.3   191  CYS191      0.1843
     25  C         11.3820   10.6730   -1.3450 C.2   191  CYS191      0.2625
     26  O         11.7050   11.2470   -2.3950 O.2   191  CYS191     -0.2714
     27  CB        11.2580    8.1600   -1.3140 C.3   191  CYS191      0.0997
     28  SG         9.7810    8.0200   -0.2540 S.3   191  CYS191     -0.0797
     29  N         10.4480   11.1430   -0.4850 N.am  192  ASP192     -0.1971
     30  CA         9.7320   12.3740   -0.7600 C.3   192  ASP192      0.1709
     31  C         10.6610   13.5530   -0.9870 C.2   192  ASP192      0.2293
     32  O         10.4150   14.3610   -1.8230 O.2   192  ASP192     -0.2864
     33  CB         8.6660   12.6380    0.2820 C.3   192  ASP192      0.1436
     34  CG         9.1960   12.6250    1.6940 C.2   192  ASP192      0.3671
     35  OD1        9.6190   13.6780    2.1600 O.co2 192  ASP192     -0.2456
     36  OD2        9.1770   11.5160    2.2720 O.co2 192  ASP192     -0.2456
     37  N          3.5800   10.1360   -5.9160 N.3   223  PHE223     -0.1227
     38  CA         3.5460    9.2210   -4.7770 C.3   223  PHE223      0.1736
     39  C          2.7820    8.0090   -5.2450 C.2   223  PHE223      0.2596
     40  O          1.6530    8.1320   -5.7930 O.2   223  PHE223     -0.2718
     41  CB         2.9050    9.7810   -3.5150 C.3   223  PHE223      0.0547
     42  CG         3.6610   10.9410   -2.8310 C.ar  223  PHE223     -0.0202
     43  CD1        4.8840   11.4430   -3.2470 C.ar  223  PHE223     -0.0042
     44  CD2        3.1670   11.4190   -1.6300 C.ar  223  PHE223     -0.0042
     45  CE1        5.5580   12.4280   -2.6050 C.ar  223  PHE223     -0.0003
     46  CE2        3.8330   12.4550   -0.9780 C.ar  223  PHE223     -0.0003
     47  CZ         5.0210   12.9720   -1.4560 C.ar  223  PHE223     -0.0000
     48  N          3.3170    6.8350   -4.9150 N.am  224  GLY224     -0.1957
     49  CA         2.6290    5.5820   -5.2750 C.3   224  GLY224      0.1869
     50  C          2.8370    4.4800   -4.3000 C.2   224  GLY224      0.2309
     51  O          3.7110    4.5750   -3.4820 O.2   224  GLY224     -0.2863
     52  N          5.1750    2.2400    0.0510 N.3   230  ALA230     -0.1231
     53  CA         4.8510    3.4270   -0.7540 C.3   230  ALA230      0.1694
     54  C          6.1210    4.2300   -0.9270 C.2   230  ALA230      0.2592
     55  O          7.0110    4.1650   -0.1150 O.2   230  ALA230     -0.2718
     56  CB         3.7470    4.2450   -0.1480 C.3   230  ALA230      0.0304
     57  N          6.1900    4.9910   -2.0310 N.am  231  HIS231     -0.1962
     58  CA         7.4130    5.5740   -2.4800 C.3   231  HIS231      0.1787
     59  C          7.1060    6.8260   -3.3000 C.2   231  HIS231      0.2620
     60  O          6.0950    6.8720   -3.9600 O.2   231  HIS231     -0.2715
     61  CB         8.1020    4.5300   -3.3750 C.3   231  HIS231      0.0785
     62  CG         9.5140    4.8620   -3.7510 C.ar  231  HIS231      0.0821
     63  ND1       10.5330    4.9590   -2.8370 N.ar  231  HIS231     -0.2267
     64  CD2       10.0860    5.0540   -4.9620 C.ar  231  HIS231      0.1154
     65  CE1       11.6640    5.2000   -3.4540 C.ar  231  HIS231      0.1986
     66  NE2       11.4140    5.3000   -4.7520 N.ar  231  HIS231     -0.2212
     67  N          8.0130    7.7720   -3.2300 N.am  232  ALA232     -0.1977
     68  CA         8.0290    8.9790   -4.0420 C.3   232  ALA232      0.1597
     69  C          9.0550    8.9170   -5.0970 C.2   232  ALA232      0.2287
     70  O         10.1440    8.4680   -4.8800 O.2   232  ALA232     -0.2864
     71  CB         8.3030   10.1550   -3.1800 C.3   232  ALA232      0.0319
     72  N         16.9510    9.0980   -6.3940 N.3   251  GLN251     -0.1245
     73  CA        18.0450    8.6460   -5.4700 C.3   251  GLN251      0.1566
     74  C         19.2430    8.1470   -6.2180 C.2   251  GLN251      0.2260
     75  O         20.3410    8.2320   -5.7390 O.2   251  GLN251     -0.2867
     76  CB        17.5290    7.5470   -4.5500 C.3   251  GLN251      0.0367
     77  CG        16.6160    8.0540   -3.4770 C.3   251  GLN251      0.0905
     78  CD        16.2350    6.9690   -2.4810 C.2   251  GLN251      0.2608
     79  OE1       17.1320    6.2920   -1.9390 O.2   251  GLN251     -0.2717
     80  NE2       14.9420    6.7770   -2.2520 N.am  251  GLN251     -0.0878
     81  N         -0.7960    7.2810   -6.5850 N.3   265  TYR265     -0.1241
     82  CA        -2.0340    7.8750   -6.0500 C.3   265  TYR265      0.1605
     83  C         -2.0700    9.4160   -6.1230 C.2   265  TYR265      0.2264
     84  O         -3.1570   10.0130   -6.0500 O.2   265  TYR265     -0.2867
     85  CB        -2.3810    7.3660   -4.6840 C.3   265  TYR265      0.0534
     86  CG        -1.3750    7.6200   -3.6240 C.ar  265  TYR265     -0.0201
     87  CD1       -1.3280    8.8740   -2.9060 C.ar  265  TYR265     -0.0009
     88  CD2       -0.4510    6.6360   -3.2710 C.ar  265  TYR265     -0.0009
     89  CE1       -0.3770    9.0940   -1.8930 C.ar  265  TYR265      0.0417
     90  CE2        0.4960    6.8550   -2.2590 C.ar  265  TYR265      0.0417
     91  CZ         0.5220    8.0700   -1.5640 C.ar  265  TYR265      0.1957
     92  OH         1.4590    8.2160   -0.5750 O.3   265  TYR265     -0.2866
@<TRIPOS>BOND
     1    81    82    1
     2    72    73    1
     3    74    75    2
     4    74    73    1
     5    83    84    2
     6    83    82    1
     7    82    85    1
     8    37    38    1
     9    40    39    2
    10    73    76    1
    11    49    48    1
    12    49    50    1
    13    39    48   am
    14    39    38    1
    15    69    70    2
    16    69    68    1
    17    64    66   ar
    18    64    62   ar
    19    38    41    1
    20    66    65   ar
    21    85    86    1
    22    76    77    1
    23    50    51    2
    24    68    67    1
    25    68    71    1
    26    60    59    2
    27    62    61    1
    28    62    63   ar
    29    86    88   ar
    30    86    87   ar
    31    41    42    1
    32    77    78    1
    33    65    63   ar
    34    61    58    1
    35    59    67   am
    36    59    58    1
    37    88    90   ar
    38    43    42   ar
    39    43    45   ar
    40    87    89   ar
    41    42    44   ar
    42    45    47   ar
    43    78    80   am
    44    78    79    2
    45    58    57    1
    46    26    25    2
    47    90    91   ar
    48    57    54   am
    49    89    91   ar
    50    32    31    2
    51    44    46   ar
    52    91    92    1
    53    47    46   ar
    54    25    24    1
    55    25    29   am
    56    27    24    1
    57    27    28    1
    58    31    30    1
    59    24    23    1
    60    54    53    1
    61    54    55    2
    62    30    29    1
    63    30    33    1
    64    53    56    1
    65    53    52    1
    66    33    34    1
    67    18    17    2
    68    23    17   am
    69    17    16    1
    70     7     9   ar
    71     7     6   ar
    72    34    35   ar
    73    34    36   ar
    74     5     6    1
    75     5     2    1
    76     1     2    1
    77     9    10   ar
    78     6     8   ar
    79     2     3    1
    80    16    15    1
    81    16    19    1
    82    10     8   ar
    83    10    12   ar
    84     8    11   ar
    85    19    20    1
    86    21    20   ar
    87     3     4    2
    88    20    22   ar
    89    12    14   ar
    90    11    13   ar
    91    14    13   ar
