@<TRIPOS>MOLECULE
tmp/5muiA04.pdb
 77 73 0 0 0
SMALL
GASTEIGER

@<TRIPOS>ATOM
      1  N         18.0150  -20.8510   -9.3630 N.3   133  ALA133     -0.1231
      2  CA        18.9170  -21.2260  -10.4470 C.3   133  ALA133      0.1694
      3  C         20.4000  -21.0080  -10.1250 C.2   133  ALA133      0.2591
      4  O         21.2240  -20.9430  -11.0430 O.2   133  ALA133     -0.2718
      5  CB        18.5440  -20.4890  -11.7420 C.3   133  ALA133      0.0304
      6  N         20.7470  -20.9210   -8.8370 N.am  134  VAL134     -0.1980
      7  CA        22.1390  -20.7160   -8.4140 C.3   134  VAL134      0.1595
      8  C         23.1120  -21.8210   -8.8890 C.2   134  VAL134      0.2287
      9  O         24.2220  -21.4960   -9.3100 O.2   134  VAL134     -0.2864
     10  CB        22.2310  -20.5040   -6.8730 C.3   134  VAL134      0.0276
     11  CG1       21.8640  -21.7770   -6.1040 C.3   134  VAL134      0.0022
     12  CG2       23.6080  -19.9940   -6.4670 C.3   134  VAL134      0.0022
     13  N         22.0180  -24.7020  -11.1240 N.3   136  ALA136     -0.1231
     14  CA        21.6100  -25.2270  -12.4480 C.3   136  ALA136      0.1679
     15  C         20.3630  -24.4600  -12.8960 C.2   136  ALA136      0.2434
     16  O         19.6680  -23.9200  -12.0360 O.2   136  ALA136     -0.2733
     17  CB        21.3140  -26.7220  -12.3760 C.3   136  ALA136      0.0304
     18  N         20.0790  -24.3990  -14.2190 N.am  137  PRO137     -0.2729
     19  CA        18.8520  -23.7010  -14.6650 C.3   137  PRO137      0.1401
     20  C         17.5430  -24.4040  -14.2340 C.2   137  PRO137      0.2269
     21  O         17.5620  -25.5760  -13.8030 O.2   137  PRO137     -0.2865
     22  CB        18.9860  -23.6840  -16.2010 C.3   137  PRO137      0.0296
     23  CG        19.9420  -24.7840  -16.5170 C.3   137  PRO137      0.0237
     24  CD        20.8950  -24.8580  -15.3630 C.3   137  PRO137      0.0939
     25  N         18.3860  -18.1930  -20.4960 N.3   176  LEU176     -0.1231
     26  CA        19.1690  -18.4190  -19.2630 C.3   176  LEU176      0.1693
     27  C         18.4950  -19.3730  -18.2570 C.2   176  LEU176      0.2592
     28  O         19.1450  -20.2330  -17.6640 O.2   176  LEU176     -0.2718
     29  CB        19.4660  -17.0810  -18.5690 C.3   176  LEU176      0.0284
     30  CG        20.2820  -16.0950  -19.4040 C.3   176  LEU176      0.0019
     31  CD1       20.2570  -14.7250  -18.7690 C.3   176  LEU176      0.0001
     32  CD2       21.7090  -16.6010  -19.5760 C.3   176  LEU176      0.0001
     33  N         17.2060  -19.1750  -18.0320 N.am  177  THR177     -0.1953
     34  CA        16.4240  -20.0070  -17.1110 C.3   177  THR177      0.1897
     35  C         14.9600  -19.5740  -17.2020 C.2   177  THR177      0.2313
     36  O         14.6660  -18.4580  -17.6560 O.2   177  THR177     -0.2863
     37  CB        16.9500  -19.9360  -15.6490 C.3   177  THR177      0.1794
     38  OG1       16.1170  -20.7320  -14.7870 O.3   177  THR177     -0.2208
     39  CG2       16.9510  -18.5080  -15.1580 C.3   177  THR177      0.0378
     40  N         11.1430  -19.3160  -15.0300 N.3   179  TYR179     -0.1241
     41  CA        10.6710  -19.1070  -13.6770 C.3   179  TYR179      0.1605
     42  C          9.1850  -19.4620  -13.5520 C.2   179  TYR179      0.2264
     43  O          8.7910  -20.5290  -14.0140 O.2   179  TYR179     -0.2867
     44  CB        10.9850  -17.6910  -13.2180 C.3   179  TYR179      0.0534
     45  CG        12.4330  -17.3670  -13.0150 C.ar  179  TYR179     -0.0201
     46  CD1       13.1520  -17.8890  -11.9190 C.ar  179  TYR179     -0.0009
     47  CD2       13.0940  -16.4970  -13.9010 C.ar  179  TYR179     -0.0009
     48  CE1       14.5000  -17.5580  -11.7240 C.ar  179  TYR179      0.0417
     49  CE2       14.4260  -16.1700  -13.7120 C.ar  179  TYR179      0.0417
     50  CZ        15.1230  -16.6930  -12.6420 C.ar  179  TYR179      0.1957
     51  OH        16.4380  -16.2900  -12.5190 O.3   179  TYR179     -0.2866
     52  N         14.5160  -15.5270  -17.8770 N.3   202  GLY202     -0.1225
     53  CA        15.7230  -14.6820  -17.9750 C.3   202  GLY202      0.1811
     54  C         16.4680  -14.8360  -19.3100 C.2   202  GLY202      0.2280
     55  O         16.5340  -15.9480  -19.8800 O.2   202  GLY202     -0.2866
     56  N         20.7780   -7.8550  -19.5860 N.3   211  LYS211     -0.1231
     57  CA        20.1180   -8.9840  -18.8850 C.3   211  LYS211      0.1693
     58  C         18.8330   -8.5000  -18.1430 C.2   211  LYS211      0.2593
     59  O         18.7710   -7.3660  -17.6630 O.2   211  LYS211     -0.2718
     60  CB        21.1290   -9.6200  -17.9100 C.3   211  LYS211      0.0285
     61  CG        20.6850  -10.9230  -17.2710 C.3   211  LYS211      0.0035
     62  CD        21.8370  -11.5480  -16.4930 C.3   211  LYS211      0.0206
     63  CE        23.0030  -11.8840  -17.4240 C.3   211  LYS211      0.1093
     64  NZ        24.2350  -12.3180  -16.6980 N.3   211  LYS211     -0.1314
     65  N         17.8080   -9.3550  -18.0650 N.am  212  GLY212     -0.1942
     66  CA        16.6060   -9.0530  -17.2720 C.3   212  GLY212      0.2014
     67  C         15.6450  -10.2460  -17.2320 C.2   212  GLY212      0.2638
     68  O         15.9130  -11.2970  -17.8430 O.2   212  GLY212     -0.2714
     69  N         14.5460  -10.0870  -16.5060 N.am  213  GLN213     -0.1977
     70  CA        13.4260  -11.0220  -16.5880 C.3   213  GLN213      0.1601
     71  C         12.2080  -10.3730  -17.2400 C.2   213  GLN213      0.2287
     72  O         11.8460   -9.2410  -16.9030 O.2   213  GLN213     -0.2864
     73  CB        13.0120  -11.5450  -15.2140 C.3   213  GLN213      0.0394
     74  CG        13.9830  -12.5340  -14.6160 C.3   213  GLN213      0.0908
     75  CD        13.5080  -13.0450  -13.2500 C.2   213  GLN213      0.2608
     76  OE1       12.2980  -13.2440  -13.0300 O.2   213  GLN213     -0.2717
     77  NE2       14.4540  -13.2380  -12.3260 N.am  213  GLN213     -0.0878
@<TRIPOS>BOND
     1    25    26    1
     2    55    54    2
     3    56    57    1
     4    32    30    1
     5    30    31    1
     6    30    29    1
     7    54    53    1
     8    26    29    1
     9    26    27    1
    10    57    58    1
    11    57    60    1
    12    27    33   am
    13    27    28    2
    14    58    65   am
    15    58    59    2
    16    65    66    1
    17    33    34    1
    18    53    52    1
    19    60    61    1
    20    68    67    2
    21    36    35    2
    22    63    64    1
    23    63    62    1
    24    66    67    1
    25    61    62    1
    26    71    72    2
    27    71    70    1
    28    67    69   am
    29    35    34    1
    30    34    37    1
    31    70    69    1
    32    70    73    1
    33    23    22    1
    34    23    24    1
    35    22    19    1
    36    37    39    1
    37    37    38    1
    38    24    18    1
    39    73    74    1
    40    40    41    1
    41    19    20    1
    42    19    18    1
    43    74    75    1
    44    20    21    2
    45    18    15   am
    46    43    42    2
    47    47    49   ar
    48    47    45   ar
    49    49    50   ar
    50    41    42    1
    51    41    44    1
    52    75    76    2
    53    75    77   am
    54    44    45    1
    55    45    46   ar
    56    15    14    1
    57    15    16    2
    58    50    51    1
    59    50    48   ar
    60    14    17    1
    61    14    13    1
    62    46    48   ar
    63     5     2    1
    64     4     3    2
    65     2     3    1
    66     2     1    1
    67     3     6   am
    68     9     8    2
    69     8     7    1
    70     6     7    1
    71     7    10    1
    72    10    12    1
    73    10    11    1
