@<TRIPOS>MOLECULE
tmp/5muiA01.pdb
 118 115 0 0 0
SMALL
GASTEIGER

@<TRIPOS>ATOM
      1  N         19.3070  -22.0970   -3.6790 N.3   131  TYR131     -0.1227
      2  CA        18.1340  -21.2710   -3.9730 C.3   131  TYR131      0.1736
      3  C         17.9820  -21.0670   -5.4950 C.2   131  TYR131      0.2595
      4  O         18.8490  -20.5010   -6.1870 O.2   131  TYR131     -0.2718
      5  CB        18.2340  -19.9390   -3.2570 C.3   131  TYR131      0.0548
      6  CG        17.0030  -19.0550   -3.3310 C.ar  131  TYR131     -0.0200
      7  CD1       15.8340  -19.3920   -2.6530 C.ar  131  TYR131     -0.0009
      8  CD2       17.0060  -17.8680   -4.0770 C.ar  131  TYR131     -0.0009
      9  CE1       14.6960  -18.5720   -2.7020 C.ar  131  TYR131      0.0417
     10  CE2       15.8720  -17.0460   -4.1340 C.ar  131  TYR131      0.0417
     11  CZ        14.7220  -17.4070   -3.4420 C.ar  131  TYR131      0.1957
     12  OH        13.6050  -16.5920   -3.4740 O.3   131  TYR131     -0.2866
     13  N         16.8810  -21.5620   -6.0220 N.am  132  GLU132     -0.1979
     14  CA        16.5020  -21.3390   -7.4270 C.3   132  GLU132      0.1602
     15  C         17.5630  -21.7520   -8.4640 C.2   132  GLU132      0.2287
     16  O         17.9810  -22.8800   -8.4230 O.2   132  GLU132     -0.2864
     17  CB        16.0580  -19.9050   -7.5860 C.3   132  GLU132      0.0415
     18  CG        14.9000  -19.5620   -6.6760 C.3   132  GLU132      0.1163
     19  CD        14.0890  -18.4510   -7.2700 C.2   132  GLU132      0.3649
     20  OE1       14.7280  -17.5130   -7.8160 O.co2 132  GLU132     -0.2457
     21  OE2       12.8400  -18.5440   -7.2250 O.co2 132  GLU132     -0.2457
     22  N         11.1430  -19.3160  -15.0300 N.3   179  TYR179     -0.1241
     23  CA        10.6710  -19.1070  -13.6770 C.3   179  TYR179      0.1605
     24  C          9.1850  -19.4620  -13.5520 C.2   179  TYR179      0.2264
     25  O          8.7910  -20.5290  -14.0140 O.2   179  TYR179     -0.2867
     26  CB        10.9850  -17.6910  -13.2180 C.3   179  TYR179      0.0534
     27  CG        12.4330  -17.3670  -13.0150 C.ar  179  TYR179     -0.0201
     28  CD1       13.1520  -17.8890  -11.9190 C.ar  179  TYR179     -0.0009
     29  CD2       13.0940  -16.4970  -13.9010 C.ar  179  TYR179     -0.0009
     30  CE1       14.5000  -17.5580  -11.7240 C.ar  179  TYR179      0.0417
     31  CE2       14.4260  -16.1700  -13.7120 C.ar  179  TYR179      0.0417
     32  CZ        15.1230  -16.6930  -12.6420 C.ar  179  TYR179      0.1957
     33  OH        16.4380  -16.2900  -12.5190 O.3   179  TYR179     -0.2866
     34  N         14.5460  -10.0870  -16.5060 N.3   213  GLN213     -0.1245
     35  CA        13.4260  -11.0220  -16.5880 C.3   213  GLN213      0.1566
     36  C         12.2080  -10.3730  -17.2400 C.2   213  GLN213      0.2260
     37  O         11.8460   -9.2410  -16.9030 O.2   213  GLN213     -0.2867
     38  CB        13.0120  -11.5450  -15.2140 C.3   213  GLN213      0.0367
     39  CG        13.9830  -12.5340  -14.6160 C.3   213  GLN213      0.0905
     40  CD        13.5080  -13.0450  -13.2500 C.2   213  GLN213      0.2608
     41  OE1       12.2980  -13.2440  -13.0300 O.2   213  GLN213     -0.2717
     42  NE2       14.4540  -13.2380  -12.3260 N.am  213  GLN213     -0.0878
     43  N         13.6750   -6.7770  -13.2540 N.3   243  ILE243     -0.1245
     44  CA        12.8340   -7.9840  -13.2130 C.3   243  ILE243      0.1561
     45  C         11.3710   -7.5510  -13.3470 C.2   243  ILE243      0.2260
     46  O         10.8960   -6.6790  -12.6170 O.2   243  ILE243     -0.2867
     47  CB        13.0190   -8.7740  -11.8920 C.3   243  ILE243      0.0252
     48  CG1       14.4230   -9.4120  -11.8400 C.3   243  ILE243      0.0019
     49  CG2       11.8900   -9.8230  -11.7200 C.3   243  ILE243      0.0019
     50  CD1       14.8620   -9.9350  -10.4880 C.3   243  ILE243      0.0001
     51  N          4.8040   -8.2210  -10.3910 N.3   261  PHE261     -0.1241
     52  CA         5.7940   -7.5420   -9.5720 C.3   261  PHE261      0.1605
     53  C          6.9610   -7.1000  -10.4450 C.2   261  PHE261      0.2264
     54  O          7.2400   -7.6840  -11.5190 O.2   261  PHE261     -0.2867
     55  CB         6.2660   -8.4160   -8.3890 C.3   261  PHE261      0.0534
     56  CG         7.4520   -9.3200   -8.6850 C.ar  261  PHE261     -0.0203
     57  CD1        7.2630  -10.6070   -9.1810 C.ar  261  PHE261     -0.0042
     58  CD2        8.7460   -8.9050   -8.4150 C.ar  261  PHE261     -0.0042
     59  CE1        8.3430  -11.4570   -9.4050 C.ar  261  PHE261     -0.0003
     60  CE2        9.8350   -9.7460   -8.6490 C.ar  261  PHE261     -0.0003
     61  CZ         9.6350  -11.0120   -9.1490 C.ar  261  PHE261     -0.0000
     62  N         11.2210   -5.7150   -9.7410 N.3   263  ALA263     -0.1231
     63  CA        12.3050   -5.4550   -8.8310 C.3   263  ALA263      0.1694
     64  C         13.4770   -4.8040   -9.5890 C.2   263  ALA263      0.2592
     65  O         13.6660   -5.0600  -10.7920 O.2   263  ALA263     -0.2718
     66  CB        12.7630   -6.7170   -8.1620 C.3   263  ALA263      0.0304
     67  N         14.2420   -3.9690   -8.8680 N.am  264  PHE264     -0.1976
     68  CA        15.4630   -3.2970   -9.4320 C.3   264  PHE264      0.1639
     69  C         15.1200   -2.3960  -10.6060 C.2   264  PHE264      0.2290
     70  O         15.8470   -2.3270  -11.6070 O.2   264  PHE264     -0.2864
     71  CB        16.5530   -4.3400   -9.7860 C.3   264  PHE264      0.0560
     72  CG        16.7650   -5.3360   -8.7070 C.ar  264  PHE264     -0.0200
     73  CD1       17.1280   -4.9140   -7.4290 C.ar  264  PHE264     -0.0042
     74  CD2       16.5330   -6.6830   -8.9240 C.ar  264  PHE264     -0.0042
     75  CE1       17.2700   -5.8270   -6.3910 C.ar  264  PHE264     -0.0003
     76  CE2       16.6800   -7.6050   -7.9020 C.ar  264  PHE264     -0.0003
     77  CZ        17.0560   -7.1810   -6.6330 C.ar  264  PHE264     -0.0000
     78  N         11.5140   -6.1480    0.5400 N.3   304  PHE304     -0.1241
     79  CA        10.7270   -6.4780   -0.6450 C.3   304  PHE304      0.1605
     80  C          9.2840   -6.6850   -0.2200 C.2   304  PHE304      0.2264
     81  O          9.0340   -7.3630    0.7760 O.2   304  PHE304     -0.2867
     82  CB        11.1400   -7.7960   -1.3430 C.3   304  PHE304      0.0534
     83  CG        12.5720   -7.8890   -1.8270 C.ar  304  PHE304     -0.0203
     84  CD1       13.2370   -6.8320   -2.3920 C.ar  304  PHE304     -0.0042
     85  CD2       13.2000   -9.1380   -1.8240 C.ar  304  PHE304     -0.0042
     86  CE1       14.5330   -6.9970   -2.8730 C.ar  304  PHE304     -0.0003
     87  CE2       14.4950   -9.3060   -2.2820 C.ar  304  PHE304     -0.0003
     88  CZ        15.1680   -8.2250   -2.8050 C.ar  304  PHE304     -0.0000
     89  N          6.2650   -7.9910   -2.5650 N.3   306  HIS306     -0.1226
     90  CA         6.2640   -8.4470   -3.9370 C.3   306  HIS306      0.1752
     91  C          5.6680   -9.8180   -4.1700 C.2   306  HIS306      0.2595
     92  O          5.6680  -10.6560   -3.2800 O.2   306  HIS306     -0.2718
     93  CB         7.6850   -8.3370   -4.5250 C.3   306  HIS306      0.0759
     94  CG         8.6660   -9.3670   -4.0460 C.ar  306  HIS306      0.0818
     95  ND1        8.5360  -10.0460   -2.8500 N.ar  306  HIS306     -0.2268
     96  CD2        9.8080   -9.8350   -4.6280 C.ar  306  HIS306      0.1154
     97  CE1        9.5530  -10.8940   -2.7200 C.ar  306  HIS306      0.1986
     98  NE2       10.3470  -10.7800   -3.7800 N.ar  306  HIS306     -0.2212
     99  N          5.1930  -10.0150   -5.4050 N.am  307  LYS307     -0.1980
    100  CA         4.5130  -11.2110   -5.8880 C.3   307  LYS307      0.1596
    101  C          3.0310  -11.1610   -5.4530 C.2   307  LYS307      0.2287
    102  O          2.7300  -10.6470   -4.3790 O.2   307  LYS307     -0.2864
    103  CB         5.2530  -12.4910   -5.4920 C.3   307  LYS307      0.0298
    104  CG         6.7240  -12.4230   -5.9030 C.3   307  LYS307      0.0038
    105  CD         7.4450  -13.6930   -5.5600 C.3   307  LYS307      0.0206
    106  CE         8.9330  -13.5750   -5.8460 C.3   307  LYS307      0.1093
    107  NZ         9.6180  -14.8690   -5.5980 N.3   307  LYS307     -0.1314
    108  N         11.6080  -14.3870    5.1550 N.3   330  ARG330     -0.1245
    109  CA        10.6780  -14.4160    4.0020 C.3   330  ARG330      0.1563
    110  C          9.4220  -15.2390    4.2980 C.2   330  ARG330      0.2260
    111  O          9.5270  -16.4100    4.6900 O.2   330  ARG330     -0.2867
    112  CB        11.3950  -15.0140    2.7880 C.3   330  ARG330      0.0307
    113  CG        10.5960  -15.0210    1.4770 C.3   330  ARG330      0.0489
    114  CD        11.4250  -15.5540    0.2910 C.3   330  ARG330      0.2205
    115  NE        12.4920  -14.6600   -0.1700 N.pl3 330  ARG330     -0.0865
    116  CZ        12.4930  -13.9470   -1.2920 C.cat 330  ARG330      0.5346
    117  NH1       11.4690  -13.9850   -2.1470 N.pl3 330  ARG330      0.1354
    118  NH2       13.5530  -13.1800   -1.5870 N.pl3 330  ARG330      0.1354
@<TRIPOS>BOND
     1    36    37    2
     2    36    35    1
     3    35    34    1
     4    35    38    1
     5    38    39    1
     6    22    23    1
     7    39    40    1
     8    25    24    2
     9    29    31   ar
    10    29    27   ar
    11    31    32   ar
    12    23    24    1
    13    23    26    1
    14    45    44    1
    15    45    46    2
    16    43    44    1
    17    40    41    2
    18    40    42   am
    19    26    27    1
    20    44    47    1
    21    27    28   ar
    22    32    33    1
    23    32    30   ar
    24    28    30   ar
    25    47    48    1
    26    47    49    1
    27    48    50    1
    28    70    69    2
    29    54    53    2
    30    65    64    2
    31    69    68    1
    32    53    52    1
    33    51    52    1
    34    71    68    1
    35    71    72    1
    36    62    63    1
    37    64    67   am
    38    64    63    1
    39    52    55    1
    40    68    67    1
    41    59    57   ar
    42    59    61   ar
    43    57    56   ar
    44    61    60   ar
    45    74    72   ar
    46    74    76   ar
    47    63    66    1
    48    72    73   ar
    49    56    58   ar
    50    56    55    1
    51    60    58   ar
    52    15    16    2
    53    15    14    1
    54    76    77   ar
    55    20    19   ar
    56    17    14    1
    57    17    18    1
    58    73    75   ar
    59    14    13    1
    60    19    21   ar
    61    19    18    1
    62    77    75   ar
    63     4     3    2
    64    13     3   am
    65   104   105    1
    66   104   103    1
    67   100   103    1
    68   100   101    1
    69   100    99    1
    70   106   107    1
    71   106   105    1
    72     3     2    1
    73   101   102    2
    74    99    91   am
    75    96    94   ar
    76    96    98   ar
    77    93    94    1
    78    93    90    1
    79    91    90    1
    80    91    92    2
    81    10     8   ar
    82    10    11   ar
    83     8     6   ar
    84    94    95   ar
    85     2     1    1
    86     2     5    1
    87    90    89    1
    88    98    97   ar
    89    12    11    1
    90    11     9   ar
    91     6     5    1
    92     6     7   ar
    93    86    88   ar
    94    86    84   ar
    95    95    97   ar
    96    88    87   ar
    97     9     7   ar
    98    84    83   ar
    99    87    85   ar
   100   117   116    1
   101    83    85   ar
   102    83    82    1
   103   118   116    1
   104    82    79    1
   105   116   115    2
   106    79    80    1
   107    79    78    1
   108    80    81    2
   109   115   114    1
   110   114   113    1
   111   113   112    1
   112   112   109    1
   113   109   110    1
   114   109   108    1
   115   110   111    2
