@<TRIPOS>MOLECULE
tmp/5muiA00.pdb
 132 124 0 0 0
SMALL
GASTEIGER

@<TRIPOS>ATOM
      1  N          5.4110  -17.4180   -2.9380 N.3    35  CYS35      -0.1235
      2  CA         4.5930  -17.8650   -4.0930 C.3    35  CYS35       0.1677
      3  C          3.1820  -18.3840   -3.7420 C.2    35  CYS35       0.2270
      4  O          2.8790  -19.5280   -3.9930 O.2    35  CYS35      -0.2867
      5  CB         5.3450  -18.9430   -4.8980 C.3    35  CYS35       0.0956
      6  SG         6.9690  -18.4510   -5.5610 S.3    35  CYS35      -0.0801
      7  N         13.3010  -26.0380   -3.5390 N.3    63  TYR63      -0.1241
      8  CA        11.8640  -25.8760   -3.3180 C.3    63  TYR63       0.1605
      9  C         11.1050  -27.1880   -3.1630 C.2    63  TYR63       0.2264
     10  O         11.3500  -28.1610   -3.9180 O.2    63  TYR63      -0.2867
     11  CB        11.2440  -25.1410   -4.5070 C.3    63  TYR63       0.0534
     12  CG        11.4900  -23.6610   -4.6130 C.ar   63  TYR63      -0.0201
     13  CD1       11.5200  -22.8280   -3.4580 C.ar   63  TYR63      -0.0009
     14  CD2       11.5860  -23.0510   -5.8610 C.ar   63  TYR63      -0.0009
     15  CE1       11.6890  -21.4630   -3.5760 C.ar   63  TYR63       0.0417
     16  CE2       11.7740  -21.6710   -5.9830 C.ar   63  TYR63       0.0417
     17  CZ        11.7990  -20.8850   -4.8430 C.ar   63  TYR63       0.1957
     18  OH        11.9600  -19.5160   -4.9330 O.3    63  TYR63      -0.2866
     19  N          8.0740  -24.8930  -11.2520 N.3   124  ILE124     -0.1245
     20  CA         9.4950  -24.6300  -11.4250 C.3   124  ILE124      0.1561
     21  C         10.2410  -25.9260  -11.0300 C.2   124  ILE124      0.2260
     22  O         10.1330  -26.3800   -9.8630 O.2   124  ILE124     -0.2867
     23  CB         9.9410  -23.4870  -10.4910 C.3   124  ILE124      0.0252
     24  CG1        9.4660  -22.1370  -11.0050 C.3   124  ILE124      0.0019
     25  CG2       11.4690  -23.4350  -10.3820 C.3   124  ILE124      0.0019
     26  CD1        9.6520  -21.0090   -9.9990 C.3   124  ILE124      0.0001
     27  N         19.3070  -22.0970   -3.6790 N.3   131  TYR131     -0.1227
     28  CA        18.1340  -21.2710   -3.9730 C.3   131  TYR131      0.1736
     29  C         17.9820  -21.0670   -5.4950 C.2   131  TYR131      0.2595
     30  O         18.8490  -20.5010   -6.1870 O.2   131  TYR131     -0.2718
     31  CB        18.2340  -19.9390   -3.2570 C.3   131  TYR131      0.0548
     32  CG        17.0030  -19.0550   -3.3310 C.ar  131  TYR131     -0.0200
     33  CD1       15.8340  -19.3920   -2.6530 C.ar  131  TYR131     -0.0009
     34  CD2       17.0060  -17.8680   -4.0770 C.ar  131  TYR131     -0.0009
     35  CE1       14.6960  -18.5720   -2.7020 C.ar  131  TYR131      0.0417
     36  CE2       15.8720  -17.0460   -4.1340 C.ar  131  TYR131      0.0417
     37  CZ        14.7220  -17.4070   -3.4420 C.ar  131  TYR131      0.1957
     38  OH        13.6050  -16.5920   -3.4740 O.3   131  TYR131     -0.2866
     39  N         16.8810  -21.5620   -6.0220 N.am  132  GLU132     -0.1979
     40  CA        16.5020  -21.3390   -7.4270 C.3   132  GLU132      0.1602
     41  C         17.5630  -21.7520   -8.4640 C.2   132  GLU132      0.2287
     42  O         17.9810  -22.8800   -8.4230 O.2   132  GLU132     -0.2864
     43  CB        16.0580  -19.9050   -7.5860 C.3   132  GLU132      0.0415
     44  CG        14.9000  -19.5620   -6.6760 C.3   132  GLU132      0.1163
     45  CD        14.0890  -18.4510   -7.2700 C.2   132  GLU132      0.3649
     46  OE1       14.7280  -17.5130   -7.8160 O.co2 132  GLU132     -0.2457
     47  OE2       12.8400  -18.5440   -7.2250 O.co2 132  GLU132     -0.2457
     48  N         11.1430  -19.3160  -15.0300 N.3   179  TYR179     -0.1227
     49  CA        10.6710  -19.1070  -13.6770 C.3   179  TYR179      0.1736
     50  C          9.1850  -19.4620  -13.5520 C.2   179  TYR179      0.2595
     51  O          8.7910  -20.5290  -14.0140 O.2   179  TYR179     -0.2718
     52  CB        10.9850  -17.6910  -13.2180 C.3   179  TYR179      0.0548
     53  CG        12.4330  -17.3670  -13.0150 C.ar  179  TYR179     -0.0200
     54  CD1       13.1520  -17.8890  -11.9190 C.ar  179  TYR179     -0.0009
     55  CD2       13.0940  -16.4970  -13.9010 C.ar  179  TYR179     -0.0009
     56  CE1       14.5000  -17.5580  -11.7240 C.ar  179  TYR179      0.0417
     57  CE2       14.4260  -16.1700  -13.7120 C.ar  179  TYR179      0.0417
     58  CZ        15.1230  -16.6930  -12.6420 C.ar  179  TYR179      0.1957
     59  OH        16.4380  -16.2900  -12.5190 O.3   179  TYR179     -0.2866
     60  N          8.3740  -18.6240  -12.9010 N.am  180  LYS180     -0.1980
     61  CA         6.9450  -18.9260  -12.6830 C.3   180  LYS180      0.1596
     62  C          6.1280  -19.0240  -13.9800 C.2   180  LYS180      0.2287
     63  O          6.3560  -18.2490  -14.9210 O.2   180  LYS180     -0.2864
     64  CB         6.2950  -17.8740  -11.7490 C.3   180  LYS180      0.0298
     65  CG         4.7930  -18.1220  -11.5940 C.3   180  LYS180      0.0038
     66  CD         4.1140  -17.3010  -10.5420 C.3   180  LYS180      0.0206
     67  CE         2.6450  -17.7310  -10.4850 C.3   180  LYS180      0.1093
     68  NZ         2.0350  -16.9950   -9.3610 N.3   180  LYS180     -0.1314
     69  N          7.4150  -16.1110  -16.8670 N.3   200  ASN200     -0.1240
     70  CA         8.5780  -15.1990  -16.9520 C.3   200  ASN200      0.1653
     71  C          9.8580  -16.0070  -17.0010 C.2   200  ASN200      0.2266
     72  O          9.8700  -17.1570  -16.5760 O.2   200  ASN200     -0.2867
     73  CB         8.5610  -14.0870  -15.8720 C.3   200  ASN200      0.1155
     74  CG         8.6030  -14.6230  -14.4390 C.2   200  ASN200      0.2627
     75  OD1        7.6400  -15.2410  -13.9730 O.2   200  ASN200     -0.2716
     76  ND2        9.6750  -14.2960  -13.7080 N.am  200  ASN200     -0.0877
     77  N         14.5460  -10.0870  -16.5060 N.3   213  GLN213     -0.1245
     78  CA        13.4260  -11.0220  -16.5880 C.3   213  GLN213      0.1566
     79  C         12.2080  -10.3730  -17.2400 C.2   213  GLN213      0.2260
     80  O         11.8460   -9.2410  -16.9030 O.2   213  GLN213     -0.2867
     81  CB        13.0120  -11.5450  -15.2140 C.3   213  GLN213      0.0367
     82  CG        13.9830  -12.5340  -14.6160 C.3   213  GLN213      0.0905
     83  CD        13.5080  -13.0450  -13.2500 C.2   213  GLN213      0.2608
     84  OE1       12.2980  -13.2440  -13.0300 O.2   213  GLN213     -0.2717
     85  NE2       14.4540  -13.2380  -12.3260 N.am  213  GLN213     -0.0878
     86  N         13.6750   -6.7770  -13.2540 N.3   243  ILE243     -0.1245
     87  CA        12.8340   -7.9840  -13.2130 C.3   243  ILE243      0.1561
     88  C         11.3710   -7.5510  -13.3470 C.2   243  ILE243      0.2260
     89  O         10.8960   -6.6790  -12.6170 O.2   243  ILE243     -0.2867
     90  CB        13.0190   -8.7740  -11.8920 C.3   243  ILE243      0.0252
     91  CG1       14.4230   -9.4120  -11.8400 C.3   243  ILE243      0.0019
     92  CG2       11.8900   -9.8230  -11.7200 C.3   243  ILE243      0.0019
     93  CD1       14.8620   -9.9350  -10.4880 C.3   243  ILE243      0.0001
     94  N          6.0420  -12.9100  -12.3440 N.3   246  ASP246     -0.1239
     95  CA         4.8880  -13.5600  -11.6730 C.3   246  ASP246      0.1674
     96  C          3.5510  -12.9370  -12.0840 C.2   246  ASP246      0.2266
     97  O          2.7980  -12.4000  -11.2380 O.2   246  ASP246     -0.2867
     98  CB         5.0730  -13.5940  -10.1260 C.3   246  ASP246      0.1410
     99  CG         6.2050  -14.5460   -9.6710 C.2   246  ASP246      0.3668
    100  OD1        7.1450  -14.8060  -10.4490 O.co2 246  ASP246     -0.2456
    101  OD2        6.1770  -15.0280   -8.5200 O.co2 246  ASP246     -0.2456
    102  N          4.8040   -8.2210  -10.3910 N.3   261  PHE261     -0.1241
    103  CA         5.7940   -7.5420   -9.5720 C.3   261  PHE261      0.1605
    104  C          6.9610   -7.1000  -10.4450 C.2   261  PHE261      0.2264
    105  O          7.2400   -7.6840  -11.5190 O.2   261  PHE261     -0.2867
    106  CB         6.2660   -8.4160   -8.3890 C.3   261  PHE261      0.0534
    107  CG         7.4520   -9.3200   -8.6850 C.ar  261  PHE261     -0.0203
    108  CD1        7.2630  -10.6070   -9.1810 C.ar  261  PHE261     -0.0042
    109  CD2        8.7460   -8.9050   -8.4150 C.ar  261  PHE261     -0.0042
    110  CE1        8.3430  -11.4570   -9.4050 C.ar  261  PHE261     -0.0003
    111  CE2        9.8350   -9.7460   -8.6490 C.ar  261  PHE261     -0.0003
    112  CZ         9.6350  -11.0120   -9.1490 C.ar  261  PHE261     -0.0000
    113  N          5.1930  -10.0150   -5.4050 N.3   307  LYS307     -0.1245
    114  CA         4.5130  -11.2110   -5.8880 C.3   307  LYS307      0.1561
    115  C          3.0310  -11.1610   -5.4530 C.2   307  LYS307      0.2260
    116  O          2.7300  -10.6470   -4.3790 O.2   307  LYS307     -0.2867
    117  CB         5.2530  -12.4910   -5.4920 C.3   307  LYS307      0.0271
    118  CG         6.7240  -12.4230   -5.9030 C.3   307  LYS307      0.0035
    119  CD         7.4450  -13.6930   -5.5600 C.3   307  LYS307      0.0206
    120  CE         8.9330  -13.5750   -5.8460 C.3   307  LYS307      0.1093
    121  NZ         9.6180  -14.8690   -5.5980 N.3   307  LYS307     -0.1314
    122  N         11.6080  -14.3870    5.1550 N.3   330  ARG330     -0.1245
    123  CA        10.6780  -14.4160    4.0020 C.3   330  ARG330      0.1563
    124  C          9.4220  -15.2390    4.2980 C.2   330  ARG330      0.2260
    125  O          9.5270  -16.4100    4.6900 O.2   330  ARG330     -0.2867
    126  CB        11.3950  -15.0140    2.7880 C.3   330  ARG330      0.0307
    127  CG        10.5960  -15.0210    1.4770 C.3   330  ARG330      0.0489
    128  CD        11.4250  -15.5540    0.2910 C.3   330  ARG330      0.2205
    129  NE        12.4920  -14.6600   -0.1700 N.pl3 330  ARG330     -0.0865
    130  CZ        12.4930  -13.9470   -1.2920 C.cat 330  ARG330      0.5346
    131  NH1       11.4690  -13.9850   -2.1470 N.pl3 330  ARG330      0.1354
    132  NH2       13.5530  -13.1800   -1.5870 N.pl3 330  ARG330      0.1354
@<TRIPOS>BOND
     1    79    80    2
     2    79    78    1
     3    71    70    1
     4    71    72    2
     5    70    69    1
     6    70    73    1
     7    78    77    1
     8    78    81    1
     9    73    74    1
    10    81    82    1
    11    48    49    1
    12    63    62    2
    13    82    83    1
    14    74    75    2
    15    74    76   am
    16    51    50    2
    17    62    61    1
    18    55    57   ar
    19    55    53   ar
    20    57    58   ar
    21    49    50    1
    22    49    52    1
    23    50    60   am
    24    88    87    1
    25    88    89    2
    26    86    87    1
    27    83    84    2
    28    83    85   am
    29    52    53    1
    30    87    90    1
    31    53    54   ar
    32    60    61    1
    33    61    64    1
    34    58    59    1
    35    58    56   ar
    36    94    95    1
    37    96    95    1
    38    96    97    2
    39    54    56   ar
    40    90    91    1
    41    90    92    1
    42    91    93    1
    43    64    65    1
    44    95    98    1
    45    65    66    1
    46   105   104    2
    47    20    19    1
    48    20    21    1
    49    20    23    1
    50    21    22    2
    51    24    23    1
    52    24    26    1
    53    66    67    1
    54    23    25    1
    55    67    68    1
    56   100    99   ar
    57   104   103    1
    58   102   103    1
    59    98    99    1
    60    99   101   ar
    61   103   106    1
    62   110   108   ar
    63   110   112   ar
    64   108   107   ar
    65   112   111   ar
    66   107   109   ar
    67   107   106    1
    68   111   109   ar
    69    41    42    2
    70    41    40    1
    71    46    45   ar
    72    43    40    1
    73    43    44    1
    74    40    39    1
    75    45    47   ar
    76    45    44    1
    77    30    29    2
    78    39    29   am
    79    16    14   ar
    80    16    17   ar
    81   118   119    1
    82   118   117    1
    83   114   117    1
    84   114   115    1
    85   114   113    1
    86    14    12   ar
    87   120   121    1
    88   120   119    1
    89     6     5    1
    90    29    28    1
    91   115   116    2
    92    18    17    1
    93     5     2    1
    94    17    15   ar
    95    12    11    1
    96    12    13   ar
    97    11     8    1
    98    36    34   ar
    99    36    37   ar
   100     2     3    1
   101     2     1    1
   102    34    32   ar
   103     4     3    2
   104    28    27    1
   105    28    31    1
   106    10     9    2
   107    15    13   ar
   108     7     8    1
   109    38    37    1
   110    37    35   ar
   111    32    31    1
   112    32    33   ar
   113     8     9    1
   114    35    33   ar
   115   131   130    1
   116   132   130    1
   117   130   129    2
   118   129   128    1
   119   128   127    1
   120   127   126    1
   121   126   123    1
   122   123   124    1
   123   123   122    1
   124   124   125    2
