@<TRIPOS>MOLECULE
tmp/5mulA00.pdb
 89 85 0 0 0
SMALL
GASTEIGER

@<TRIPOS>ATOM
      1  N         42.7670   35.4000    7.1410 N.3   114  PRO114     -0.2102
      2  CA        43.9230   36.0890    7.6950 C.3   114  PRO114      0.1504
      3  C         44.1630   37.4230    6.9850 C.2   114  PRO114      0.2576
      4  O         43.7340   37.5910    5.8430 O.2   114  PRO114     -0.2718
      5  CB        45.0580   35.1500    7.3200 C.3   114  PRO114      0.0282
      6  CG        44.6410   34.6240    5.9930 C.3   114  PRO114      0.0208
      7  CD        43.1620   34.4030    6.1250 C.3   114  PRO114      0.0893
      8  N         44.7760   38.3760    7.6680 N.am  115  LEU115     -0.1966
      9  CA        45.2250   39.6250    7.0780 C.3   115  LEU115      0.1728
     10  C         46.7100   39.7640    7.3900 C.2   115  LEU115      0.2617
     11  O         47.2420   39.0450    8.2300 O.2   115  LEU115     -0.2715
     12  CB        44.4560   40.8190    7.6490 C.3   115  LEU115      0.0311
     13  CG        42.9460   40.8710    7.3650 C.3   115  LEU115      0.0022
     14  CD1       42.3120   42.0340    8.1230 C.3   115  LEU115      0.0001
     15  CD2       42.6520   40.9860    5.8750 C.3   115  LEU115      0.0001
     16  N         47.3370   40.7590    6.8030 N.am  116  THR116     -0.1937
     17  CA        48.7480   40.9910    7.0270 C.3   116  THR116      0.2028
     18  C         49.0740   41.1750    8.4860 C.2   116  THR116      0.2642
     19  O         48.2780   41.7420    9.2670 O.2   116  THR116     -0.2714
     20  CB        49.1960   42.2590    6.3100 C.3   116  THR116      0.1808
     21  OG1       48.3940   43.3650    6.7320 O.3   116  THR116     -0.2208
     22  CG2       49.1260   42.0470    4.8230 C.3   116  THR116      0.0379
     23  N         50.2410   40.6690    8.8590 N.am  117  ASP117     -0.1957
     24  CA        50.8190   40.8720   10.2040 C.3   117  ASP117      0.1840
     25  C         49.9890   40.3230   11.3510 C.2   117  ASP117      0.2622
     26  O         50.0230   40.8460   12.4620 O.2   117  ASP117     -0.2715
     27  CB        51.1880   42.3560   10.4360 C.3   117  ASP117      0.1450
     28  CG        52.3190   42.8300    9.5270 C.2   117  ASP117      0.3671
     29  OD1       53.1030   41.9990    9.0360 O.co2 117  ASP117     -0.2456
     30  OD2       52.3780   44.0400    9.2940 O.co2 117  ASP117     -0.2456
     31  N         49.2400   39.2600   11.0720 N.am  118  GLY118     -0.1954
     32  CA        48.6020   38.5140   12.1510 C.3   118  GLY118      0.1869
     33  C         47.1960   38.9080   12.5280 C.2   118  GLY118      0.2309
     34  O         46.5790   38.2780   13.3700 O.2   118  GLY118     -0.2863
     35  N         41.9950   36.2920    0.7130 N.3   168  VAL168     -0.1231
     36  CA        43.0520   37.2410    1.0200 C.3   168  VAL168      0.1692
     37  C         44.3420   36.6660    0.4100 C.2   168  VAL168      0.2592
     38  O         44.7620   35.5350    0.7330 O.2   168  VAL168     -0.2718
     39  CB        43.1790   37.5310    2.5150 C.3   168  VAL168      0.0266
     40  CG1       44.3150   38.5190    2.7740 C.3   168  VAL168      0.0020
     41  CG2       41.8580   38.0290    3.0480 C.3   168  VAL168      0.0020
     42  N         44.9530   37.4060   -0.5160 N.am  169  ASP169     -0.1960
     43  CA        46.0960   36.9150   -1.2510 C.3   169  ASP169      0.1840
     44  C         47.3710   37.0440   -0.4380 C.2   169  ASP169      0.2621
     45  O         47.3820   37.5360    0.6930 O.2   169  ASP169     -0.2715
     46  CB        46.1470   37.5120   -2.6690 C.3   169  ASP169      0.1450
     47  CG        46.5730   38.9440   -2.7350 C.2   169  ASP169      0.3671
     48  OD1       47.1490   39.4930   -1.7690 O.co2 169  ASP169     -0.2456
     49  OD2       46.3070   39.5410   -3.8140 O.co2 169  ASP169     -0.2456
     50  N         48.4700   36.5890   -1.0410 N.am  170  GLU170     -0.1977
     51  CA        49.7390   36.5340   -0.3640 C.3   170  GLU170      0.1602
     52  C         50.3370   37.9140   -0.1300 C.2   170  GLU170      0.2287
     53  O         51.2770   38.0600    0.6640 O.2   170  GLU170     -0.2864
     54  CB        50.6710   35.5720   -1.1570 C.3   170  GLU170      0.0415
     55  CG        50.1170   34.1120   -1.1480 C.3   170  GLU170      0.1163
     56  CD        50.6280   33.1490   -2.2300 C.2   170  GLU170      0.3649
     57  OE1       51.8420   33.2480   -2.5310 O.co2 170  GLU170     -0.2457
     58  OE2       49.8670   32.2700   -2.7700 O.co2 170  GLU170     -0.2457
     59  N         48.2300   40.3690    0.9540 N.3   172  GLY172     -0.1225
     60  CA        47.3120   41.0030    1.9030 C.3   172  GLY172      0.1811
     61  C         46.1100   41.7120    1.3080 C.2   172  GLY172      0.2280
     62  O         45.3240   42.2890    2.0610 O.2   172  GLY172     -0.2866
     63  N         45.7870   28.2510    3.9380 N.3   350  GLU350     -0.1245
     64  CA        47.0400   28.7690    4.3950 C.3   350  GLU350      0.1567
     65  C         48.2030   27.8530    4.0550 C.2   350  GLU350      0.2260
     66  O         49.2970   28.3170    3.7380 O.2   350  GLU350     -0.2867
     67  CB        46.9590   29.0900    5.8840 C.3   350  GLU350      0.0388
     68  CG        45.8780   30.1260    6.1770 C.3   350  GLU350      0.1160
     69  CD        46.0870   31.3740    5.3340 C.2   350  GLU350      0.3649
     70  OE1       47.1290   32.0010    5.5320 O.co2 350  GLU350     -0.2457
     71  OE2       45.2110   31.6860    4.4770 O.co2 350  GLU350     -0.2457
     72  N         49.1900   28.6720    0.5450 N.3   353  LYS353     -0.1231
     73  CA        49.9310   29.9410    0.4330 C.3   353  LYS353      0.1693
     74  C         51.3500   29.8520    0.9700 C.2   353  LYS353      0.2591
     75  O         52.2660   30.4430    0.4010 O.2   353  LYS353     -0.2718
     76  CB        49.2570   31.0190    1.2290 C.3   353  LYS353      0.0285
     77  CG        47.9360   31.4440    0.6880 C.3   353  LYS353      0.0035
     78  CD        47.3590   32.3660    1.7430 C.3   353  LYS353      0.0206
     79  CE        45.9700   32.7550    1.4550 C.3   353  LYS353      0.1093
     80  NZ        45.5340   33.7100    2.5380 N.3   353  LYS353     -0.1314
     81  N         51.5210   29.1660    2.0990 N.am  354  LYS354     -0.1980
     82  CA        52.8120   29.1430    2.8010 C.3   354  LYS354      0.1596
     83  C         53.7480   28.0830    2.2830 C.2   354  LYS354      0.2287
     84  O         54.9630   28.3210    2.2730 O.2   354  LYS354     -0.2864
     85  CB        52.6250   28.9600    4.3150 C.3   354  LYS354      0.0298
     86  CG        51.9370   30.1140    5.0220 C.3   354  LYS354      0.0038
     87  CD        52.6630   31.4470    4.8780 C.3   354  LYS354      0.0206
     88  CE        52.0030   32.5230    5.7450 C.3   354  LYS354      0.1093
     89  NZ        52.8790   33.7180    5.8950 N.3   354  LYS354     -0.1314
@<TRIPOS>BOND
     1    49    47   ar
     2    58    56   ar
     3    47    46    1
     4    47    48   ar
     5    46    43    1
     6    57    56   ar
     7    56    55    1
     8    43    42    1
     9    43    44    1
    10    54    55    1
    11    54    51    1
    12    50    44   am
    13    50    51    1
    14    42    37   am
    15    44    45    2
    16    51    52    1
    17    52    53    2
    18    75    74    2
    19    37    38    2
    20    37    36    1
    21    73    72    1
    22    73    74    1
    23    73    76    1
    24    77    76    1
    25    77    78    1
    26    35    36    1
    27    59    60    1
    28    74    81   am
    29    36    39    1
    30    61    60    1
    31    61    62    2
    32    79    78    1
    33    79    80    1
    34    81    82    1
    35    84    83    2
    36    83    82    1
    37    39    40    1
    38    39    41    1
    39    82    85    1
    40    66    65    2
    41    63    64    1
    42    65    64    1
    43    85    86    1
    44    64    67    1
    45    71    69   ar
    46    22    20    1
    47    87    86    1
    48    87    88    1
    49    69    70   ar
    50    69    68    1
    51    88    89    1
    52     4     3    2
    53    15    13    1
    54    67    68    1
    55     6     7    1
    56     6     5    1
    57     7     1    1
    58    20    21    1
    59    20    17    1
    60    16    17    1
    61    16    10   am
    62     3     8   am
    63     3     2    1
    64    17    18    1
    65     9    10    1
    66     9    12    1
    67     9     8    1
    68     1     2    1
    69     5     2    1
    70    13    12    1
    71    13    14    1
    72    10    11    2
    73    18    23   am
    74    18    19    2
    75    23    24    1
    76    29    28   ar
    77    30    28   ar
    78    28    27    1
    79    24    27    1
    80    24    25    1
    81    31    25   am
    82    31    32    1
    83    25    26    2
    84    32    33    1
    85    33    34    2
