@<TRIPOS>MOLECULE
tmp/5mumA00.pdb
 97 96 0 0 0
SMALL
GASTEIGER

@<TRIPOS>ATOM
      1  N         30.3250  -43.0060   25.4680 N.3   239  CYS239     -0.1221
      2  CA        30.7510  -41.8880   24.6470 C.3   239  CYS239      0.1808
      3  C         30.2970  -40.6220   25.3220 C.2   239  CYS239      0.2601
      4  O         29.2120  -40.5880   25.8880 O.2   239  CYS239     -0.2717
      5  CB        30.1630  -42.0510   23.2300 C.3   239  CYS239      0.0970
      6  SG        30.8740  -40.9230   22.0390 S.3   239  CYS239     -0.0800
      7  N         31.1470  -39.5880   25.3260 N.am  240  ARG240     -0.1965
      8  CA        30.7610  -38.3030   25.8860 C.3   240  ARG240      0.1729
      9  C         30.2710  -37.4670   24.7190 C.2   240  ARG240      0.2616
     10  O         31.0050  -37.2530   23.7580 O.2   240  ARG240     -0.2715
     11  CB        31.9490  -37.6310   26.5940 C.3   240  ARG240      0.0348
     12  CG        32.2140  -38.2480   27.9690 C.3   240  ARG240      0.0492
     13  CD        31.0200  -37.9510   28.8900 C.3   240  ARG240      0.2205
     14  NE        31.4620  -37.5750   30.2130 N.pl3 240  ARG240     -0.0865
     15  CZ        30.8400  -36.7590   31.0510 C.cat 240  ARG240      0.5346
     16  NH1       29.6950  -36.1560   30.7520 N.pl3 240  ARG240      0.1354
     17  NH2       31.4060  -36.5400   32.2270 N.pl3 240  ARG240      0.1354
     18  N         29.0230  -37.0290   24.7800 N.am  241  ILE241     -0.1964
     19  CA        28.4130  -36.2910   23.6830 C.3   241  ILE241      0.1712
     20  C         27.6530  -35.1850   24.3920 C.2   241  ILE241      0.2458
     21  O         26.7300  -35.4540   25.1460 O.2   241  ILE241     -0.2730
     22  CB        27.4180  -37.1170   22.8350 C.3   241  ILE241      0.0289
     23  CG1       28.0810  -38.3420   22.2130 C.3   241  ILE241      0.0022
     24  CG2       26.7710  -36.2110   21.7860 C.3   241  ILE241      0.0023
     25  CD1       27.3280  -39.6070   22.4850 C.3   241  ILE241      0.0001
     26  N         28.0850  -33.9420   24.2140 N.am  242  PRO242     -0.2727
     27  CA        27.4840  -32.8650   25.0140 C.3   242  PRO242      0.1402
     28  C         26.0600  -32.4720   24.6350 C.2   242  PRO242      0.2269
     29  O         25.5920  -32.7800   23.5320 O.2   242  PRO242     -0.2865
     30  CB        28.4030  -31.6880   24.7260 C.3   242  PRO242      0.0296
     31  CG        29.0150  -31.9620   23.4230 C.3   242  PRO242      0.0237
     32  CD        29.1380  -33.4620   23.3130 C.3   242  PRO242      0.0939
     33  N         24.0630  -31.1990   20.8410 N.3   245  SER245     -0.1217
     34  CA        24.7580  -31.9360   19.7780 C.3   245  SER245      0.1889
     35  C         23.7870  -32.6560   18.8390 C.2   245  SER245      0.2288
     36  O         24.2020  -33.5220   18.0680 O.2   245  SER245     -0.2866
     37  CB        25.7100  -32.9840   20.3760 C.3   245  SER245      0.2089
     38  OG        26.6940  -32.4090   21.2320 O.3   245  SER245     -0.2183
     39  N         24.3410  -38.0260   16.0980 N.3   267  TRP267     -0.1227
     40  CA        24.5490  -36.7070   16.6700 C.3   267  TRP267      0.1737
     41  C         25.3600  -35.8870   15.7040 C.2   267  TRP267      0.2595
     42  O         25.8330  -36.3950   14.6830 O.2   267  TRP267     -0.2718
     43  CB        25.2140  -36.7810   18.0400 C.3   267  TRP267      0.0564
     44  CG        26.6220  -37.2420   18.0570 C.ar  267  TRP267      0.0003
     45  CD1       27.7250  -36.5150   17.7520 C.ar  267  TRP267      0.0946
     46  CD2       27.0790  -38.5410   18.4150 C.ar  267  TRP267      0.0152
     47  NE1       28.8360  -37.2690   17.8970 N.ar  267  TRP267     -0.2442
     48  CE2       28.4820  -38.5240   18.3140 C.ar  267  TRP267      0.0810
     49  CE3       26.4390  -39.7130   18.7970 C.ar  267  TRP267      0.0012
     50  CZ2       29.2700  -39.6430   18.5690 C.ar  267  TRP267      0.0191
     51  CZ3       27.2250  -40.8490   19.0940 C.ar  267  TRP267      0.0001
     52  CH2       28.6250  -40.7960   18.9750 C.ar  267  TRP267      0.0015
     53  N         25.5400  -34.6250   16.0620 N.am  268  ARG268     -0.1966
     54  CA        26.1970  -33.6520   15.2500 C.3   268  ARG268      0.1729
     55  C         27.5400  -33.2400   15.8980 C.2   268  ARG268      0.2616
     56  O         27.5960  -32.9930   17.1010 O.2   268  ARG268     -0.2715
     57  CB        25.2870  -32.4360   15.1820 C.3   268  ARG268      0.0348
     58  CG        25.5630  -31.5200   14.0470 C.3   268  ARG268      0.0492
     59  CD        25.6330  -30.1010   14.4800 C.3   268  ARG268      0.2205
     60  NE        24.7170  -29.6540   15.4710 N.pl3 268  ARG268     -0.0865
     61  CZ        25.0240  -29.3080   16.7270 C.cat 268  ARG268      0.5346
     62  NH1       26.2810  -29.3870   17.2650 N.pl3 268  ARG268      0.1354
     63  NH2       24.0380  -28.8640   17.4600 N.pl3 268  ARG268      0.1354
     64  N         28.5980  -33.1820   15.1040 N.am  269  ASP269     -0.1958
     65  CA        29.9130  -32.7310   15.5960 C.3   269  ASP269      0.1825
     66  C         29.8410  -31.2470   15.9530 C.2   269  ASP269      0.2464
     67  O         29.0840  -30.5110   15.3540 O.2   269  ASP269     -0.2730
     68  CB        31.0100  -32.8390   14.5330 C.3   269  ASP269      0.1450
     69  CG        31.4380  -34.2510   14.2450 C.2   269  ASP269      0.3671
     70  OD1       31.0970  -35.1920   14.9690 O.co2 269  ASP269     -0.2456
     71  OD2       32.1560  -34.4230   13.2450 O.co2 269  ASP269     -0.2456
     72  N         30.6930  -30.7870   16.8720 N.am  270  PRO270     -0.2727
     73  CA        30.6800  -29.3480   17.2010 C.3   270  PRO270      0.1402
     74  C         30.8830  -28.3890   16.0170 C.2   270  PRO270      0.2269
     75  O         30.2850  -27.2900   15.9550 O.2   270  PRO270     -0.2865
     76  CB        31.8110  -29.2400   18.2060 C.3   270  PRO270      0.0296
     77  CG        31.7900  -30.5620   18.8850 C.3   270  PRO270      0.0237
     78  CD        31.5980  -31.5290   17.7420 C.3   270  PRO270      0.0939
     79  N         25.9780  -42.7320   13.7230 N.3   278  ARG278     -0.1245
     80  CA        27.1380  -43.1820   14.4650 C.3   278  ARG278      0.1563
     81  C         26.9490  -44.5920   14.9470 C.2   278  ARG278      0.2260
     82  O         25.8110  -45.0720   15.1320 O.2   278  ARG278     -0.2867
     83  CB        27.3550  -42.3620   15.7370 C.3   278  ARG278      0.0307
     84  CG        27.2340  -40.8810   15.5830 C.3   278  ARG278      0.0489
     85  CD        28.4120  -40.2950   14.8630 C.3   278  ARG278      0.2205
     86  NE        28.1440  -38.8840   14.6210 N.pl3 278  ARG278     -0.0865
     87  CZ        29.0680  -37.9440   14.5280 C.cat 278  ARG278      0.5346
     88  NH1       30.3550  -38.2190   14.7120 N.pl3 278  ARG278      0.1354
     89  NH2       28.7010  -36.7200   14.2590 N.pl3 278  ARG278      0.1354
     90  N         33.9330  -45.1040   18.7570 N.3   289  ASN289     -0.1240
     91  CA        32.8270  -44.5820   18.0060 C.3   289  ASN289      0.1653
     92  C         33.2820  -44.2320   16.5850 C.2   289  ASN289      0.2266
     93  O         34.4390  -43.8980   16.3550 O.2   289  ASN289     -0.2867
     94  CB        32.1290  -43.4250   18.7120 C.3   289  ASN289      0.1155
     95  CG        32.9650  -42.1690   18.8050 C.2   289  ASN289      0.2627
     96  OD1       32.9120  -41.3100   17.9290 O.2   289  ASN289     -0.2716
     97  ND2       33.7140  -42.0370   19.8890 N.am  289  ASN289     -0.0877
@<TRIPOS>BOND
     1    71    69   ar
     2    79    80    1
     3    58    59    1
     4    58    57    1
     5    69    68    1
     6    69    70   ar
     7    89    87    1
     8    80    81    1
     9    80    83    1
    10    59    60    1
    11    87    86    2
    12    87    88    1
    13    68    65    1
    14    86    85    1
    15    42    41    2
    16    85    84    1
    17    81    82    2
    18    64    65    1
    19    64    55   am
    20    57    54    1
    21    54    55    1
    22    54    53    1
    23    67    66    2
    24    60    61    2
    25    84    83    1
    26    65    66    1
    27    41    53   am
    28    41    40    1
    29    55    56    2
    30    66    72   am
    31    75    74    2
    32    74    73    1
    33    39    40    1
    34    93    92    2
    35    92    91    1
    36    40    43    1
    37    61    62    1
    38    61    63    1
    39    72    73    1
    40    72    78    1
    41    73    76    1
    42    78    77    1
    43    45    47   ar
    44    45    44   ar
    45    47    48   ar
    46    96    95    2
    47    91    94    1
    48    91    90    1
    49    43    44    1
    50    44    46   ar
    51    36    35    2
    52    76    77    1
    53    48    46   ar
    54    48    50   ar
    55    46    49   ar
    56    50    52   ar
    57    94    95    1
    58    49    51   ar
    59    95    97   am
    60    35    34    1
    61    52    51   ar
    62    34    37    1
    63    34    33    1
    64    37    38    1
    65    24    22    1
    66     6     5    1
    67    23    25    1
    68    23    22    1
    69    22    19    1
    70     5     2    1
    71    32    31    1
    72    32    26    1
    73    31    30    1
    74    29    28    2
    75    19    20    1
    76    19    18    1
    77    10     9    2
    78    26    20   am
    79    26    27    1
    80    20    21    2
    81    28    27    1
    82     2     3    1
    83     2     1    1
    84     9    18   am
    85     9     8    1
    86    30    27    1
    87     3     7   am
    88     3     4    2
    89     7     8    1
    90     8    11    1
    91    11    12    1
    92    12    13    1
    93    13    14    1
    94    14    15    2
    95    16    15    1
    96    15    17    1
