@<TRIPOS>MOLECULE
tmp/5mumA01.pdb
 120 112 0 0 0
SMALL
GASTEIGER

@<TRIPOS>ATOM
      1  N          3.3280  -42.8900   12.5450 N.3    14  SER14      -0.1217
      2  CA         4.3890  -43.8850   12.5390 C.3    14  SER14       0.1889
      3  C          4.2490  -44.9530   13.6190 C.2    14  SER14       0.2288
      4  O          5.2070  -45.6870   13.8820 O.2    14  SER14      -0.2866
      5  CB         5.7490  -43.1580   12.6530 C.3    14  SER14       0.2089
      6  OG         5.7680  -42.3770   13.8150 O.3    14  SER14      -0.2183
      7  N          5.7610  -48.3210   13.1030 N.3    17  THR17      -0.1203
      8  CA         7.0970  -48.3020   12.5300 C.3    17  THR17       0.1994
      9  C          8.0300  -47.3990   13.3120 C.2    17  THR17       0.2618
     10  O          8.5230  -46.3970   12.7940 O.2    17  THR17      -0.2717
     11  CB         7.0680  -47.8070   11.0780 C.3    17  THR17       0.1784
     12  OG1        6.5810  -46.4570   11.0240 O.3    17  THR17      -0.2211
     13  CG2        6.1720  -48.6730   10.2640 C.3    17  THR17       0.0376
     14  N          8.2150  -47.7060   14.5930 N.am   18  THR18      -0.1952
     15  CA         9.1310  -46.9630   15.4090 C.3    18  THR18       0.1897
     16  C         10.2750  -47.8680   15.7780 C.2    18  THR18       0.2313
     17  O         10.1700  -49.1000   15.8340 O.2    18  THR18      -0.2863
     18  CB         8.4990  -46.4540   16.7050 C.3    18  THR18       0.1794
     19  OG1        8.4970  -47.4990   17.6700 O.3    18  THR18      -0.2208
     20  CG2        7.0890  -45.9680   16.4830 C.3    18  THR18       0.0378
     21  N         11.5120  -48.4380   18.5380 N.3    20  PHE20      -0.1241
     22  CA        11.4200  -48.9860   19.8730 C.3    20  PHE20       0.1605
     23  C         10.3160  -50.0370   19.9930 C.2    20  PHE20       0.2264
     24  O          9.9230  -50.3940   21.0930 O.2    20  PHE20      -0.2867
     25  CB        11.3070  -47.8550   20.9050 C.3    20  PHE20       0.0534
     26  CG        10.2060  -46.8760   20.6340 C.ar   20  PHE20      -0.0203
     27  CD1        8.9280  -47.1560   21.0190 C.ar   20  PHE20      -0.0042
     28  CD2       10.4640  -45.6600   19.9690 C.ar   20  PHE20      -0.0042
     29  CE1        7.9030  -46.2750   20.7860 C.ar   20  PHE20      -0.0003
     30  CE2        9.4380  -44.7760   19.7170 C.ar   20  PHE20      -0.0003
     31  CZ         8.1480  -45.0870   20.1170 C.ar   20  PHE20      -0.0000
     32  N          1.7870  -41.7270   18.0200 N.3    69  ALA69      -0.1231
     33  CA         2.8190  -42.6260   17.5770 C.3    69  ALA69       0.1694
     34  C          3.6040  -43.2820   18.7240 C.2    69  ALA69       0.2592
     35  O          4.3240  -44.2400   18.5000 O.2    69  ALA69      -0.2718
     36  CB         3.7460  -41.9180   16.5750 C.3    69  ALA69       0.0304
     37  N          3.4140  -42.8170   19.9510 N.am   70  HIS70      -0.1976
     38  CA         3.9850  -43.4640   21.1140 C.3    70  HIS70       0.1656
     39  C          3.3610  -44.8170   21.4250 C.2    70  HIS70       0.2291
     40  O          4.0100  -45.6570   22.0440 O.2    70  HIS70      -0.2864
     41  CB         3.8570  -42.5640   22.3370 C.3    70  HIS70       0.0771
     42  CG         4.7090  -41.3260   22.2460 C.ar   70  HIS70       0.0820
     43  ND1        4.4100  -40.2710   21.4100 N.ar   70  HIS70      -0.2267
     44  CD2        5.8510  -40.9860   22.8800 C.ar   70  HIS70       0.1154
     45  CE1        5.3350  -39.3350   21.5360 C.ar   70  HIS70       0.1986
     46  NE2        6.2170  -39.7440   22.4250 N.ar   70  HIS70      -0.2212
     47  N          6.3750  -47.1030   26.4250 N.3   123  TYR123     -0.1241
     48  CA         7.5000  -47.8590   25.8320 C.3   123  TYR123      0.1605
     49  C          7.6770  -49.2620   26.4010 C.2   123  TYR123      0.2264
     50  O          8.7040  -49.5640   26.9610 O.2   123  TYR123     -0.2867
     51  CB         8.8090  -47.0930   25.9450 C.3   123  TYR123      0.0534
     52  CG         8.7640  -45.7050   25.3920 C.ar  123  TYR123     -0.0201
     53  CD1        8.2220  -45.4490   24.1360 C.ar  123  TYR123     -0.0009
     54  CD2        9.2440  -44.6410   26.1250 C.ar  123  TYR123     -0.0009
     55  CE1        8.1680  -44.1460   23.6240 C.ar  123  TYR123      0.0417
     56  CE2        9.2040  -43.3570   25.6280 C.ar  123  TYR123      0.0417
     57  CZ         8.6850  -43.1170   24.3780 C.ar  123  TYR123      0.1957
     58  OH         8.6580  -41.8230   23.9400 O.3   123  TYR123     -0.2866
     59  N         17.4580  -39.4550   21.4430 N.3   249  ASN249     -0.1225
     60  CA        17.1400  -40.4150   22.5150 C.3   249  ASN249      0.1785
     61  C         16.2780  -41.5670   21.9670 C.2   249  ASN249      0.2597
     62  O         15.5450  -41.3930   20.9630 O.2   249  ASN249     -0.2718
     63  CB        16.4320  -39.7400   23.6890 C.3   249  ASN249      0.1169
     64  CG        15.2710  -38.9120   23.2670 C.2   249  ASN249      0.2627
     65  OD1       15.4600  -37.8730   22.6630 O.2   249  ASN249     -0.2716
     66  ND2       14.0310  -39.3950   23.5330 N.am  249  ASN249     -0.0877
     67  N         16.4500  -42.7120   22.6200 N.am  250  GLN250     -0.1979
     68  CA        15.6820  -43.9140   22.4000 C.3   250  GLN250      0.1601
     69  C         15.9460  -44.4800   21.0340 C.2   250  GLN250      0.2287
     70  O         15.1150  -44.3660   20.1460 O.2   250  GLN250     -0.2864
     71  CB        14.2040  -43.6390   22.5670 C.3   250  GLN250      0.0394
     72  CG        13.4180  -44.9000   22.6580 C.3   250  GLN250      0.0908
     73  CD        11.9830  -44.5870   22.8410 C.2   250  GLN250      0.2608
     74  OE1       11.4910  -43.5910   22.3200 O.2   250  GLN250     -0.2717
     75  NE2       11.2990  -45.4240   23.5950 N.am  250  GLN250     -0.0878
     76  N         15.7330  -43.1530   13.4830 N.3   308  ARG308     -0.1245
     77  CA        16.6060  -43.7860   14.4290 C.3   308  ARG308      0.1563
     78  C         16.9550  -45.2020   13.9280 C.2   308  ARG308      0.2260
     79  O         16.1070  -45.8990   13.3970 O.2   308  ARG308     -0.2867
     80  CB        15.9940  -43.7950   15.7920 C.3   308  ARG308      0.0307
     81  CG        15.8790  -42.3970   16.3070 C.3   308  ARG308      0.0489
     82  CD        15.0720  -42.3260   17.5660 C.3   308  ARG308      0.2205
     83  NE        13.6790  -42.5650   17.2650 N.pl3 308  ARG308     -0.0865
     84  CZ        12.6980  -42.4060   18.1210 C.cat 308  ARG308      0.5346
     85  NH1       12.9360  -42.0230   19.3750 N.pl3 308  ARG308      0.1354
     86  NH2       11.4680  -42.6230   17.7140 N.pl3 308  ARG308      0.1354
     87  N         16.9040  -44.6800    7.5210 N.3   323  ARG323     -0.1245
     88  CA        16.0620  -44.0580    6.4930 C.3   323  ARG323      0.1563
     89  C         16.4090  -42.6000    6.5680 C.2   323  ARG323      0.2260
     90  O         16.4870  -42.0280    7.6680 O.2   323  ARG323     -0.2867
     91  CB        14.5910  -44.2990    6.7720 C.3   323  ARG323      0.0307
     92  CG        13.5860  -43.4880    5.9640 C.3   323  ARG323      0.0489
     93  CD        13.2590  -42.1490    6.5980 C.3   323  ARG323      0.2205
     94  NE        12.6670  -42.3270    7.9060 N.pl3 323  ARG323     -0.0865
     95  CZ        12.4470  -41.3550    8.7830 C.cat 323  ARG323      0.5346
     96  NH1       12.8530  -40.1020    8.5460 N.pl3 323  ARG323      0.1354
     97  NH2       11.8830  -41.6430    9.9520 N.pl3 323  ARG323      0.1354
     98  N          7.9540  -41.7540    7.2650 N.3   356  ALA356     -0.1245
     99  CA         8.1830  -41.6780    8.7280 C.3   356  ALA356      0.1562
    100  C          8.6620  -42.9910    9.3700 C.2   356  ALA356      0.2260
    101  O          8.9710  -43.0240   10.5890 O.2   356  ALA356     -0.2867
    102  CB         6.9350  -41.1840    9.4300 C.3   356  ALA356      0.0290
    103  N         10.6470  -46.0400   10.8170 N.3   358  GLU358     -0.1245
    104  CA        11.9180  -46.3470   11.4630 C.3   358  GLU358      0.1567
    105  C         12.0210  -47.8370   11.5370 C.2   358  GLU358      0.2260
    106  O         11.0150  -48.5100   11.6080 O.2   358  GLU358     -0.2867
    107  CB        12.0080  -45.8030   12.8800 C.3   358  GLU358      0.0388
    108  CG        11.8550  -44.3390   13.0020 C.3   358  GLU358      0.1160
    109  CD        12.0950  -43.8610   14.4270 C.2   358  GLU358      0.3649
    110  OE1       12.9710  -42.9570   14.5970 O.co2 358  GLU358     -0.2457
    111  OE2       11.4000  -44.3560   15.3600 O.co2 358  GLU358     -0.2457
    112  N          4.0300  -38.9330    9.2640 N.3   381  GLN381     -0.1245
    113  CA         3.9990  -38.2800   10.5710 C.3   381  GLN381      0.1566
    114  C          4.0810  -36.7560   10.3890 C.2   381  GLN381      0.2260
    115  O          3.0500  -36.0650   10.4920 O.2   381  GLN381     -0.2867
    116  CB         5.1580  -38.7690   11.4250 C.3   381  GLN381      0.0367
    117  CG         5.1670  -38.2030   12.8370 C.3   381  GLN381      0.0905
    118  CD         6.5740  -37.9930   13.3360 C.2   381  GLN381      0.2608
    119  OE1        7.3500  -38.9530   13.4550 O.2   381  GLN381     -0.2717
    120  NE2        6.9260  -36.7350   13.6180 N.am  381  GLN381     -0.0878
@<TRIPOS>BOND
     1    92    93    1
     2    92    91    1
     3    88    89    1
     4    88    91    1
     5    88    87    1
     6    89    90    2
     7    93    94    1
     8    98    99    1
     9    94    95    2
    10    96    95    1
    11    99   100    1
    12    99   102    1
    13    95    97    1
    14   112   113    1
    15   100   101    2
    16    13    11    1
    17   114   115    2
    18   114   113    1
    19   113   116    1
    20   103   104    1
    21    12    11    1
    22    11     8    1
    23   116   117    1
    24   104   105    1
    25   104   107    1
    26   105   106    2
    27     8     7    1
    28     8     9    1
    29     2     1    1
    30     2     5    1
    31     2     3    1
    32     5     6    1
    33    10     9    2
    34   117   118    1
    35   107   108    1
    36   108   109    1
    37     9    14   am
    38   118   119    2
    39   118   120   am
    40    79    78    2
    41    76    77    1
    42     3     4    2
    43    78    77    1
    44   109   110   ar
    45   109   111   ar
    46    77    80    1
    47    14    15    1
    48    15    16    1
    49    15    18    1
    50    16    17    2
    51    80    81    1
    52    81    82    1
    53    20    18    1
    54    36    33    1
    55    18    19    1
    56    83    82    1
    57    83    84    2
    58    33    32    1
    59    33    34    1
    60    86    84    1
    61    84    85    1
    62    35    34    2
    63    21    22    1
    64    34    37   am
    65    30    28   ar
    66    30    31   ar
    67    22    23    1
    68    22    25    1
    69    37    38    1
    70    28    26   ar
    71    23    24    2
    72    31    29   ar
    73    70    69    2
    74    26    25    1
    75    26    27   ar
    76    29    27   ar
    77    62    61    2
    78    69    68    1
    79    38    39    1
    80    38    41    1
    81    43    45   ar
    82    43    42   ar
    83    39    40    2
    84    59    60    1
    85    45    46   ar
    86    61    60    1
    87    61    67   am
    88    42    41    1
    89    42    44   ar
    90    74    73    2
    91    68    71    1
    92    68    67    1
    93    46    44   ar
    94    60    63    1
    95    71    72    1
    96    72    73    1
    97    65    64    2
    98    73    75   am
    99    64    66   am
   100    64    63    1
   101    55    53   ar
   102    55    57   ar
   103    58    57    1
   104    53    52   ar
   105    57    56   ar
   106    52    51    1
   107    52    54   ar
   108    56    54   ar
   109    48    51    1
   110    48    49    1
   111    48    47    1
   112    49    50    2
