@<TRIPOS>MOLECULE
tmp/5mutA02.pdb
 199 191 0 0 0
SMALL
GASTEIGER

@<TRIPOS>ATOM
      1  N         23.4590    7.1000    7.3860 N.3     7  TYR7       -0.1241
      2  CA        24.5830    7.9390    6.9750 C.3     7  TYR7        0.1605
      3  C         24.4630    9.3170    7.5930 C.2     7  TYR7        0.2264
      4  O         25.4180    9.8460    8.1740 O.2     7  TYR7       -0.2867
      5  CB        24.6490    8.0200    5.4370 C.3     7  TYR7        0.0534
      6  CG        25.5230    6.8990    4.8780 C.ar    7  TYR7       -0.0201
      7  CD1       25.0620    5.5890    4.8050 C.ar    7  TYR7       -0.0009
      8  CD2       26.8480    7.1490    4.5020 C.ar    7  TYR7       -0.0009
      9  CE1       25.8800    4.5640    4.2930 C.ar    7  TYR7        0.0417
     10  CE2       27.6650    6.1300    4.0330 C.ar    7  TYR7        0.0417
     11  CZ        27.1740    4.8570    3.9210 C.ar    7  TYR7        0.1957
     12  OH        28.0080    3.8850    3.4590 O.3     7  TYR7       -0.2866
     13  N         26.7600    7.5790   10.7280 N.3    11  LEU11      -0.1231
     14  CA        28.0940    7.3030   10.1990 C.3    11  LEU11       0.1693
     15  C         28.8490    8.5790    9.8250 C.2    11  LEU11       0.2591
     16  O         30.0380    8.7340   10.1520 O.2    11  LEU11      -0.2718
     17  CB        27.9580    6.3700    9.0070 C.3    11  LEU11       0.0284
     18  CG        29.1740    6.0060    8.1640 C.3    11  LEU11       0.0019
     19  CD1       30.3410    5.5430    9.0040 C.3    11  LEU11       0.0001
     20  CD2       28.7440    4.9260    7.2290 C.3    11  LEU11       0.0001
     21  N         28.1950    9.5010    9.0950 N.am   12  MET12      -0.1979
     22  CA        28.9110   10.7100    8.6850 C.3    12  MET12       0.1605
     23  C         29.2620   11.6110    9.8650 C.2    12  MET12       0.2287
     24  O         30.4040   12.0970    9.9260 O.2    12  MET12      -0.2864
     25  CB        28.1200   11.4570    7.5950 C.3    12  MET12       0.0413
     26  CG        27.9210   10.6140    6.3310 C.3    12  MET12       0.0598
     27  SD        29.4630   10.2800    5.3640 S.3    12  MET12      -0.1393
     28  CE        30.0910   11.9460    5.0460 C.3    12  MET12       0.0692
     29  N         32.4060    9.9100   11.2810 N.3    15  LEU15      -0.1231
     30  CA        33.6290   10.1390   10.5200 C.3    15  LEU15       0.1693
     31  C         34.1100   11.5720   10.6800 C.2    15  LEU15       0.2591
     32  O         35.3110   11.8130   10.8200 O.2    15  LEU15      -0.2718
     33  CB        33.4400    9.8420    9.0290 C.3    15  LEU15       0.0284
     34  CG        33.2640    8.4150    8.5470 C.3    15  LEU15       0.0019
     35  CD1       32.5840    8.3890    7.1840 C.3    15  LEU15       0.0001
     36  CD2       34.6050    7.7050    8.4910 C.3    15  LEU15       0.0001
     37  N         33.1910   12.5410   10.6510 N.am   16  GLN16      -0.1979
     38  CA        33.6190   13.9360   10.6820 C.3    16  GLN16       0.1601
     39  C         34.1620   14.3130   12.0480 C.2    16  GLN16       0.2287
     40  O         35.0130   15.1860   12.1540 O.2    16  GLN16      -0.2864
     41  CB        32.4520   14.8430   10.3030 C.3    16  GLN16       0.0394
     42  CG        32.0150   14.6250    8.8520 C.3    16  GLN16       0.0908
     43  CD        31.2220   15.7850    8.2960 C.2    16  GLN16       0.2608
     44  OE1       30.3560   16.3320    8.9760 O.2    16  GLN16      -0.2717
     45  NE2       31.5340   16.1870    7.0450 N.am   16  GLN16      -0.0878
     46  N         38.6060   17.5950    7.6190 N.3    21  PRO21      -0.2116
     47  CA        37.9100   17.5150    6.3070 C.3    21  PRO21       0.1372
     48  C         38.7880   17.0920    5.1150 C.2    21  PRO21       0.2244
     49  O         38.2860   16.3650    4.2480 O.2    21  PRO21      -0.2868
     50  CB        37.3150   18.9300    6.1500 C.3    21  PRO21       0.0268
     51  CG        38.0560   19.8100    7.1040 C.3    21  PRO21       0.0207
     52  CD        38.3790   18.9000    8.2850 C.3    21  PRO21       0.0892
     53  N         39.2330   13.3550    5.4490 N.3    24  ALA24      -0.1231
     54  CA        37.9760   12.6940    5.1880 C.3    24  ALA24       0.1694
     55  C         37.7230   12.6410    3.6810 C.2    24  ALA24       0.2592
     56  O         37.2720   11.6280    3.1640 O.2    24  ALA24      -0.2718
     57  CB        36.8150   13.4160    5.8830 C.3    24  ALA24       0.0304
     58  N         38.0120   13.7360    2.9800 N.am   25  HIS25      -0.1976
     59  CA        37.7980   13.7630    1.5270 C.3    25  HIS25       0.1656
     60  C         38.7070   12.7500    0.8260 C.2    25  HIS25       0.2291
     61  O         38.2780   12.0510   -0.0920 O.2    25  HIS25      -0.2864
     62  CB        38.0790   15.1670    0.9770 C.3    25  HIS25       0.0771
     63  CG        38.0740   15.2140   -0.5260 C.ar   25  HIS25       0.0820
     64  ND1       39.2100   15.4250   -1.2740 N.ar   25  HIS25      -0.2267
     65  CD2       37.0840   14.9730   -1.4120 C.ar   25  HIS25       0.1154
     66  CE1       38.8980   15.3890   -2.5550 C.ar   25  HIS25       0.1986
     67  NE2       37.6160   15.1020   -2.6640 N.ar   25  HIS25      -0.2212
     68  N         39.8430    9.9890    2.0650 N.3    27  LEU27      -0.1231
     69  CA        39.2520    8.6820    2.3330 C.3    27  LEU27       0.1693
     70  C         38.0460    8.4500    1.4440 C.2    27  LEU27       0.2591
     71  O         37.8950    7.3770    0.8570 O.2    27  LEU27      -0.2718
     72  CB        38.8540    8.5930    3.8050 C.3    27  LEU27       0.0284
     73  CG        38.3260    7.2410    4.2350 C.3    27  LEU27       0.0019
     74  CD1       39.5330    6.3030    4.2510 C.3    27  LEU27       0.0001
     75  CD2       37.7260    7.3530    5.6350 C.3    27  LEU27       0.0001
     76  N         37.1970    9.4770    1.2830 N.am   28  ALA28      -0.1980
     77  CA        36.0560    9.3540    0.3960 C.3    28  ALA28       0.1597
     78  C         36.4980    9.0030   -1.0260 C.2    28  ALA28       0.2287
     79  O         35.8640    8.1630   -1.6740 O.2    28  ALA28      -0.2864
     80  CB        35.2280   10.6500    0.3780 C.3    28  ALA28       0.0319
     81  N         37.6480    5.2780   -1.0670 N.3    31  PHE31      -0.1227
     82  CA        36.5260    4.3340   -1.0380 C.3    31  PHE31       0.1736
     83  C         35.7420    4.3710   -2.3320 C.2    31  PHE31       0.2596
     84  O         35.3150    3.3280   -2.8400 O.2    31  PHE31      -0.2718
     85  CB        35.5620    4.6180    0.1070 C.3    31  PHE31       0.0547
     86  CG        35.9790    3.9860    1.3690 C.ar   31  PHE31      -0.0202
     87  CD1       37.1560    4.3640    1.9620 C.ar   31  PHE31      -0.0042
     88  CD2       35.2900    2.9190    1.8890 C.ar   31  PHE31      -0.0042
     89  CE1       37.5840    3.7740    3.1360 C.ar   31  PHE31      -0.0003
     90  CE2       35.7210    2.3100    3.0510 C.ar   31  PHE31      -0.0003
     91  CZ        36.8760    2.7460    3.6710 C.ar   31  PHE31      -0.0000
     92  N         35.4890    5.5780   -2.8540 N.am   32  THR32      -0.1953
     93  CA        34.6890    5.6740   -4.0620 C.3    32  THR32       0.1897
     94  C         35.4220    5.0020   -5.2230 C.2    32  THR32       0.2313
     95  O         34.8120    4.2630   -5.9920 O.2    32  THR32      -0.2863
     96  CB        34.3770    7.1520   -4.3760 C.3    32  THR32       0.1794
     97  OG1       33.5790    7.7060   -3.3250 O.3    32  THR32      -0.2208
     98  CG2       33.6230    7.2770   -5.7010 C.3    32  THR32       0.0378
     99  N         33.4760    0.9100   -2.9920 N.3    36  LEU36      -0.1231
    100  CA        33.0200    0.5570   -1.6410 C.3    36  LEU36       0.1693
    101  C         31.9210    1.5170   -1.2410 C.2    36  LEU36       0.2592
    102  O         32.1680    2.5480   -0.6020 O.2    36  LEU36      -0.2718
    103  CB        34.1590    0.6230   -0.6410 C.3    36  LEU36       0.0284
    104  CG        35.3800   -0.2640   -0.9500 C.3    36  LEU36       0.0019
    105  CD1       36.4210   -0.1460    0.1650 C.3    36  LEU36       0.0001
    106  CD2       34.9210   -1.7020   -1.1260 C.3    36  LEU36       0.0001
    107  N         30.7050    1.1870   -1.6160 N.am   37  LEU37      -0.1966
    108  CA        29.6250    2.1600   -1.5590 C.3    37  LEU37       0.1713
    109  C         28.3500    1.4740   -1.1080 C.2    37  LEU37       0.2458
    110  O         28.1320    0.3020   -1.4310 O.2    37  LEU37      -0.2730
    111  CB        29.3870    2.8270   -2.9310 C.3    37  LEU37       0.0310
    112  CG        30.5520    3.6420   -3.5180 C.3    37  LEU37       0.0022
    113  CD1       30.4400    3.8090   -5.0320 C.3    37  LEU37       0.0001
    114  CD2       30.6980    5.0010   -2.8580 C.3    37  LEU37       0.0001
    115  N         27.4680    2.1910   -0.3880 N.am   38  PRO38      -0.2727
    116  CA        26.1860    1.6090    0.0100 C.3    38  PRO38       0.1402
    117  C         25.3040    1.2950   -1.2150 C.2    38  PRO38       0.2269
    118  O         25.5560    1.9040   -2.2730 O.2    38  PRO38      -0.2865
    119  CB        25.5660    2.7110    0.9050 C.3    38  PRO38       0.0296
    120  CG        26.1590    4.0060    0.3450 C.3    38  PRO38       0.0237
    121  CD        27.5950    3.6060    0.0300 C.3    38  PRO38       0.0939
    122  N         35.4490   17.4610   -6.3620 N.3    64  PHE64      -0.1241
    123  CA        35.4180   16.2450   -5.5480 C.3    64  PHE64       0.1605
    124  C         36.4300   15.2380   -6.0760 C.2    64  PHE64       0.2264
    125  O         37.1610   14.6060   -5.3000 O.2    64  PHE64      -0.2867
    126  CB        34.0210   15.6180   -5.4960 C.3    64  PHE64       0.0534
    127  CG        34.0160   14.3290   -4.7250 C.ar   64  PHE64      -0.0203
    128  CD1       33.9190   14.3520   -3.3630 C.ar   64  PHE64      -0.0042
    129  CD2       34.2350   13.1220   -5.3650 C.ar   64  PHE64      -0.0042
    130  CE1       33.9910   13.1500   -2.6270 C.ar   64  PHE64      -0.0003
    131  CE2       34.3100   11.9250   -4.6340 C.ar   64  PHE64      -0.0003
    132  CZ        34.1600   11.9620   -3.2800 C.ar   64  PHE64      -0.0000
    133  N         27.7510    5.5830   -7.7120 N.3    77  MET77      -0.1245
    134  CA        26.9960    6.2800   -6.6740 C.3    77  MET77       0.1570
    135  C         25.6530    6.7950   -7.1790 C.2    77  MET77       0.2261
    136  O         24.7850    7.1120   -6.3640 O.2    77  MET77      -0.2867
    137  CB        27.8260    7.4330   -6.1250 C.3    77  MET77       0.0387
    138  CG        27.7040    7.6870   -4.6710 C.3    77  MET77       0.0595
    139  SD        28.7420    9.0870   -4.1620 S.3    77  MET77      -0.1393
    140  CE        30.3820    8.4840   -3.8690 C.3    77  MET77       0.0692
    141  N         40.8240   23.6820    4.2520 N.3   100  VAL100     -0.1245
    142  CA        39.3850   23.4360    4.1090 C.3   100  VAL100      0.1561
    143  C         38.8200   23.3150    5.5340 C.2   100  VAL100      0.2260
    144  O         39.4860   22.8130    6.4460 O.2   100  VAL100     -0.2867
    145  CB        39.0790   22.1850    3.2580 C.3   100  VAL100      0.0252
    146  CG1       39.8000   20.9620    3.8090 C.3   100  VAL100      0.0019
    147  CG2       37.5100   21.9240    3.1060 C.3   100  VAL100      0.0019
    148  N         35.0320   22.9250    7.9610 N.3   102  ARG102     -0.1245
    149  CA        33.5920   22.6750    8.0650 C.3   102  ARG102      0.1563
    150  C         32.9100   23.7440    8.9290 C.2   102  ARG102      0.2260
    151  O         33.4980   24.2560    9.8890 O.2   102  ARG102     -0.2867
    152  CB        33.2950   21.2890    8.6590 C.3   102  ARG102      0.0307
    153  CG        34.0360   20.1810    7.9890 C.3   102  ARG102      0.0489
    154  CD        33.5300   18.8620    8.5220 C.3   102  ARG102      0.2205
    155  NE        34.1930   17.6830    7.9810 N.pl3 102  ARG102     -0.0865
    156  CZ        35.0220   16.8800    8.6300 C.cat 102  ARG102      0.5346
    157  NH1       35.3900   17.1200    9.8950 N.pl3 102  ARG102      0.1354
    158  NH2       35.4620   15.7940    8.0170 N.pl3 102  ARG102      0.1354
    159  N         30.7180   24.6870    4.0390 N.3   109  VAL109     -0.1245
    160  CA        32.1640   24.4620    4.0020 C.3   109  VAL109      0.1561
    161  C         32.8190   25.7290    3.4710 C.2   109  VAL109      0.2260
    162  O         32.2760   26.4200    2.5940 O.2   109  VAL109     -0.2867
    163  CB        32.5170   23.2140    3.1020 C.3   109  VAL109      0.0252
    164  CG1       34.0650   23.0290    2.8540 C.3   109  VAL109      0.0019
    165  CG2       31.9330   21.9410    3.7570 C.3   109  VAL109      0.0019
    166  N         28.1870   19.0910   -4.3860 N.3   310  TYR310     -0.1241
    167  CA        29.3790   18.5730   -3.7350 C.3   310  TYR310      0.1605
    168  C         29.1650   18.6060   -2.2050 C.2   310  TYR310      0.2264
    169  O         29.1380   17.5610   -1.5710 O.2   310  TYR310     -0.2867
    170  CB        30.5970   19.3880   -4.1850 C.3   310  TYR310      0.0534
    171  CG        31.9860   18.9930   -3.6840 C.ar  310  TYR310     -0.0201
    172  CD1       32.1660   18.0820   -2.6530 C.ar  310  TYR310     -0.0009
    173  CD2       33.1260   19.6190   -4.2280 C.ar  310  TYR310     -0.0009
    174  CE1       33.4780   17.7740   -2.1740 C.ar  310  TYR310      0.0417
    175  CE2       34.4160   19.3260   -3.7820 C.ar  310  TYR310      0.0417
    176  CZ        34.5870   18.4120   -2.7490 C.ar  310  TYR310      0.1957
    177  OH        35.8250   18.1010   -2.2700 O.3   310  TYR310     -0.2866
    178  N         27.2030   16.0130   -0.3370 N.3   313  LEU313     -0.1231
    179  CA        27.8220   14.6930   -0.2140 C.3   313  LEU313      0.1693
    180  C         28.7240   14.6390    1.0160 C.2   313  LEU313      0.2592
    181  O         28.7730   13.6180    1.7140 O.2   313  LEU313     -0.2718
    182  CB        28.6040   14.3740   -1.4840 C.3   313  LEU313      0.0284
    183  CG        29.3490   13.0450   -1.5380 C.3   313  LEU313      0.0019
    184  CD1       28.3440   11.8890   -1.3720 C.3   313  LEU313      0.0001
    185  CD2       30.1890   12.9120   -2.7990 C.3   313  LEU313      0.0001
    186  N         29.4020   15.7580    1.3260 N.am  314  THR314     -0.1953
    187  CA        30.3420   15.7470    2.4280 C.3   314  THR314      0.1897
    188  C         29.6200   15.6510    3.7610 C.2   314  THR314      0.2313
    189  O         30.1710   15.0880    4.6930 O.2   314  THR314     -0.2863
    190  CB        31.2610   16.9580    2.4180 C.3   314  THR314      0.1794
    191  OG1       30.5650   18.1590    2.7740 O.3   314  THR314     -0.2208
    192  CG2       31.9570   17.0830    1.0290 C.3   314  THR314      0.0378
    193  N         27.0190    9.2180    0.5160 N.3   318  PRO318     -0.2116
    194  CA        26.5580    8.7160   -0.7920 C.3   318  PRO318      0.1372
    195  C         25.0410    8.5970   -0.9330 C.2   318  PRO318      0.2244
    196  O         24.5190    8.8670   -2.0140 O.2   318  PRO318     -0.2868
    197  CB        27.2570    7.3470   -0.8820 C.3   318  PRO318      0.0268
    198  CG        28.5850    7.6110   -0.2030 C.3   318  PRO318      0.0207
    199  CD        28.2110    8.4790    0.9940 C.3   318  PRO318      0.0892
@<TRIPOS>BOND
     1   133   134    1
     2   135   134    1
     3   135   136    2
     4   134   137    1
     5   122   123    1
     6   137   138    1
     7   124   123    1
     8   124   125    2
     9    95    94    2
    10    98    96    1
    11   123   126    1
    12   126   127    1
    13   129   127   ar
    14   129   131   ar
    15    94    93    1
    16   113   112    1
    17   127   128   ar
    18   138   139    1
    19   131   132   ar
    20   166   167    1
    21    96    93    1
    22    96    97    1
    23   173   175   ar
    24   173   171   ar
    25   170   167    1
    26   170   171    1
    27   139   140    1
    28    93    92    1
    29   175   176   ar
    30   167   168    1
    31   171   172   ar
    32   112   111    1
    33   112   114    1
    34   128   130   ar
    35   132   130   ar
    36    99   100    1
    37   111   108    1
    38    92    83   am
    39    84    83    2
    40   185   183    1
    41   176   177    1
    42   176   174   ar
    43    67    66   ar
    44    67    65   ar
    45   172   174   ar
    46    66    64   ar
    47    83    82    1
    48   118   117    2
    49   168   169    2
    50   196   195    2
    51    79    78    2
    52   100   101    1
    53   100   103    1
    54   107   108    1
    55   107   101   am
    56   108   109    1
    57   183   182    1
    58   183   184    1
    59   182   179    1
    60   110   109    2
    61    65    63   ar
    62    64    63   ar
    63   101   102    2
    64   117   116    1
    65   106   104    1
    66   109   115   am
    67    81    82    1
    68    82    85    1
    69    78    77    1
    70   104   103    1
    71   104   105    1
    72   195   194    1
    73   197   194    1
    74   197   198    1
    75   194   193    1
    76    63    62    1
    77   115   116    1
    78   115   121    1
    79   178   179    1
    80   179   180    1
    81   198   199    1
    82    61    60    2
    83   116   119    1
    84   121   120    1
    85    85    86    1
    86   120   119    1
    87    80    77    1
    88    77    76    1
    89   193   199    1
    90    60    59    1
    91    71    70    2
    92    62    59    1
    93   180   186   am
    94   180   181    2
    95   192   190    1
    96    76    70   am
    97   186   187    1
    98    86    88   ar
    99    86    87   ar
   100    70    69    1
   101    59    58    1
   102    88    90   ar
   103    87    89   ar
   104    68    69    1
   105    69    72    1
   106   190   187    1
   107   190   191    1
   108   187   188    1
   109   162   161    2
   110   164   163    1
   111    58    55   am
   112    90    91   ar
   113   163   165    1
   114   163   160    1
   115   147   145    1
   116    89    91   ar
   117    56    55    2
   118   145   146    1
   119   145   142    1
   120    12    11    1
   121   161   160    1
   122    55    54    1
   123   188   189    2
   124    72    73    1
   125    11    10   ar
   126    11     9   ar
   127   160   159    1
   128    10     8   ar
   129   142   141    1
   130   142   143    1
   131    73    74    1
   132    73    75    1
   133    49    48    2
   134     9     7   ar
   135     8     6   ar
   136     7     6   ar
   137     6     5    1
   138    28    27    1
   139    48    47    1
   140    54    53    1
   141    54    57    1
   142    27    26    1
   143     5     2    1
   144   143   144    2
   145    50    47    1
   146    50    51    1
   147    47    46    1
   148    26    25    1
   149     2     1    1
   150     2     3    1
   151    45    43   am
   152    51    52    1
   153    35    34    1
   154    20    18    1
   155     3     4    2
   156    25    22    1
   157    46    52    1
   158   148   149    1
   159   155   154    1
   160   155   156    2
   161   153   154    1
   162   153   152    1
   163   158   156    1
   164   149   152    1
   165   149   150    1
   166    18    19    1
   167    18    17    1
   168    43    42    1
   169    43    44    2
   170    36    34    1
   171    34    33    1
   172   156   157    1
   173    22    21    1
   174    22    23    1
   175    42    41    1
   176   150   151    2
   177    17    14    1
   178    33    30    1
   179    21    15   am
   180    15    16    2
   181    15    14    1
   182    23    24    2
   183    14    13    1
   184    41    38    1
   185    30    31    1
   186    30    29    1
   187    37    31   am
   188    37    38    1
   189    31    32    2
   190    38    39    1
   191    39    40    2
