@<TRIPOS>MOLECULE
tmp/5muwF01.pdb
 101 95 0 0 0
SMALL
GASTEIGER

@<TRIPOS>ATOM
      1  N         91.9470  109.0980   61.0700 N.3   122  THR122     -0.1203
      2  CA        93.2040  109.7280   61.4780 C.3   122  THR122      0.1994
      3  C         93.8220  110.4940   60.3230 C.2   122  THR122      0.2618
      4  O         93.8220  110.0080   59.1910 O.2   122  THR122     -0.2717
      5  CB        94.1990  108.7260   62.0610 C.3   122  THR122      0.1784
      6  OG1       94.2500  107.5380   61.2720 O.3   122  THR122     -0.2211
      7  CG2       93.9100  108.4070   63.5080 C.3   122  THR122      0.0376
      8  N         94.2870  111.7080   60.6170 N.am  123  GLY123     -0.1942
      9  CA        94.9070  112.6000   59.6460 C.3   123  GLY123      0.2014
     10  C         93.9300  113.1590   58.6280 C.2   123  GLY123      0.2640
     11  O         94.3410  113.5240   57.5260 O.2   123  GLY123     -0.2714
     12  N         92.6300  113.2240   58.9880 N.am  124  SER124     -0.1935
     13  CA        91.5510  113.7500   58.1430 C.3   124  SER124      0.2055
     14  C         91.4840  115.2700   58.2170 C.2   124  SER124      0.2644
     15  O         90.7680  115.8880   57.4250 O.2   124  SER124     -0.2714
     16  CB        90.2020  113.1630   58.5520 C.3   124  SER124      0.2130
     17  OG        89.9200  113.4100   59.9180 O.3   124  SER124     -0.2179
     18  N         92.1980  115.8420   59.1830 N.am  125  GLY125     -0.1939
     19  CA        92.2580  117.2730   59.4020 C.3   125  GLY125      0.2014
     20  C         91.3460  117.7980   60.4890 C.2   125  GLY125      0.2639
     21  O         90.8470  118.9100   60.3600 O.2   125  GLY125     -0.2714
     22  N         91.1390  117.0150   61.5630 N.am  126  LYS126     -0.1963
     23  CA        90.2850  117.4190   62.6890 C.3   126  LYS126      0.1728
     24  C         90.9450  118.5550   63.4900 C.2   126  LYS126      0.2617
     25  O         90.3470  119.6240   63.6330 O.2   126  LYS126     -0.2715
     26  CB        89.9660  116.2310   63.6200 C.3   126  LYS126      0.0311
     27  CG        89.2160  115.0870   62.9630 C.3   126  LYS126      0.0038
     28  CD        88.9350  113.9240   63.9450 C.3   126  LYS126      0.0206
     29  CE        90.1550  113.1190   64.3250 C.3   126  LYS126      0.1093
     30  NZ        90.7980  112.4240   63.1700 N.3   126  LYS126     -0.1314
     31  N         92.1880  118.3320   63.9710 N.am  127  SER127     -0.1936
     32  CA        92.9590  119.2850   64.7630 C.3   127  SER127      0.2055
     33  C         93.2130  120.5890   63.9850 C.2   127  SER127      0.2642
     34  O         93.1720  121.6670   64.5810 O.2   127  SER127     -0.2714
     35  CB        94.2750  118.6600   65.2150 C.3   127  SER127      0.2130
     36  OG        94.0480  117.5500   66.0670 O.3   127  SER127     -0.2179
     37  N         93.4260  120.4820   62.6540 N.am  128  ILE128     -0.1977
     38  CA        93.6370  121.6070   61.7340 C.3   128  ILE128      0.1596
     39  C         92.3560  122.4360   61.6450 C.2   128  ILE128      0.2287
     40  O         92.4230  123.6490   61.8250 O.2   128  ILE128     -0.2864
     41  CB        94.1300  121.0930   60.3470 C.3   128  ILE128      0.0276
     42  CG1       95.6740  120.9810   60.3180 C.3   128  ILE128      0.0022
     43  CG2       93.5730  121.8670   59.1330 C.3   128  ILE128      0.0022
     44  CD1       96.5330  122.3360   60.4880 C.3   128  ILE128      0.0001
     45  N         96.9200  113.4830   73.4470 N.3   144  GLU144     -0.1245
     46  CA        97.4040  113.8420   72.1240 C.3   144  GLU144      0.1567
     47  C         98.9060  113.9560   72.1580 C.2   144  GLU144      0.2260
     48  O         99.4380  114.3810   73.1830 O.2   144  GLU144     -0.2867
     49  CB        96.7610  115.1670   71.7280 C.3   144  GLU144      0.0388
     50  CG        95.3420  115.0070   71.2120 C.3   144  GLU144      0.1160
     51  CD        95.2200  114.0010   70.0830 C.2   144  GLU144      0.3649
     52  OE1       95.8420  114.2210   69.0170 O.co2 144  GLU144     -0.2457
     53  OE2       94.5810  112.9440   70.2980 O.co2 144  GLU144     -0.2457
     54  N        102.3710  118.4850   69.6070 N.3   147  GLU147     -0.1245
     55  CA       102.0410  119.2250   68.3860 C.3   147  GLU147      0.1567
     56  C        102.2290  120.7260   68.6100 C.2   147  GLU147      0.2260
     57  O        102.5040  121.1430   69.7390 O.2   147  GLU147     -0.2867
     58  CB       100.6060  118.9180   67.9370 C.3   147  GLU147      0.0388
     59  CG       100.3680  117.4780   67.5260 C.3   147  GLU147      0.1160
     60  CD        99.1000  117.2670   66.7310 C.2   147  GLU147      0.3649
     61  OE1       99.1320  117.4990   65.5000 O.co2 147  GLU147     -0.2457
     62  OE2       98.0710  116.8780   67.3330 O.co2 147  GLU147     -0.2457
     63  N        100.0210  122.9930   68.6520 N.3   149  TYR149     -0.1241
     64  CA        98.8910  123.4900   69.4410 C.3   149  TYR149      0.1605
     65  C         99.2040  123.5060   70.9430 C.2   149  TYR149      0.2264
     66  O         98.5450  124.2250   71.6930 O.2   149  TYR149     -0.2867
     67  CB        97.6290  122.6540   69.1630 C.3   149  TYR149      0.0534
     68  CG        97.4580  122.2600   67.7100 C.ar  149  TYR149     -0.0201
     69  CD1       97.1140  123.2010   66.7460 C.ar  149  TYR149     -0.0009
     70  CD2       97.6300  120.9410   67.2990 C.ar  149  TYR149     -0.0009
     71  CE1       96.9590  122.8410   65.4020 C.ar  149  TYR149      0.0417
     72  CE2       97.4750  120.5710   65.9630 C.ar  149  TYR149      0.0417
     73  CZ        97.1410  121.5230   65.0150 C.ar  149  TYR149      0.1957
     74  OH        96.9960  121.1440   63.6950 O.3   149  TYR149     -0.2866
     75  N         86.7100  116.6960   69.9000 N.3   224  VAL224     -0.1245
     76  CA        87.1600  115.9440   68.7220 C.3   224  VAL224      0.1561
     77  C         87.1040  114.4740   69.1030 C.2   224  VAL224      0.2260
     78  O         87.6620  114.0690   70.1310 O.2   224  VAL224     -0.2867
     79  CB        88.4870  116.3730   68.0270 C.3   224  VAL224      0.0252
     80  CG1       89.0560  117.6530   68.5990 C.3   224  VAL224      0.0019
     81  CG2       89.5270  115.2550   67.9500 C.3   224  VAL224      0.0019
     82  N         87.7400  110.7040   67.7950 N.3   226  ASN226     -0.1240
     83  CA        88.4510  109.8490   66.8470 C.3   226  ASN226      0.1653
     84  C         88.0990  108.3850   67.1590 C.2   226  ASN226      0.2266
     85  O         88.5580  107.8280   68.1630 O.2   226  ASN226     -0.2867
     86  CB        89.9760  110.1000   66.8700 C.3   226  ASN226      0.1155
     87  CG        90.7460  109.5570   65.6650 C.2   226  ASN226      0.2627
     88  OD1       90.5370  108.4210   65.1790 O.2   226  ASN226     -0.2716
     89  ND2       91.7130  110.3410   65.1930 N.am  226  ASN226     -0.0877
     90  N         89.9610  114.3580   54.2640 N.3   253  ASP253     -0.1225
     91  CA        91.0130  114.9020   53.3890 C.3   253  ASP253      0.1805
     92  C         91.3000  116.3940   53.6620 C.2   253  ASP253      0.2598
     93  O         91.3760  117.1920   52.7220 O.2   253  ASP253     -0.2718
     94  CB        90.6690  114.6720   51.8980 C.3   253  ASP253      0.1424
     95  CG        90.3990  113.2160   51.5430 C.2   253  ASP253      0.3668
     96  OD1       91.3790  112.4490   51.3790 O.co2 253  ASP253     -0.2456
     97  OD2       89.2100  112.8370   51.4560 O.co2 253  ASP253     -0.2456
     98  N         91.4470  116.7430   54.9440 N.am  254  GLY254     -0.1957
     99  CA        91.7500  118.1060   55.3890 C.3   254  GLY254      0.1869
    100  C         90.6000  119.0880   55.4270 C.2   254  GLY254      0.2309
    101  O         90.7570  120.1900   55.9700 O.2   254  GLY254     -0.2863
@<TRIPOS>BOND
     1    96    95   ar
     2    97    95   ar
     3    95    94    1
     4    94    91    1
     5    93    92    2
     6    91    92    1
     7    91    90    1
     8    92    98   am
     9    98    99    1
    10    99   100    1
    11   100   101    2
    12    15    14    2
    13    11    10    2
    14    13    14    1
    15    13    16    1
    16    13    12    1
    17    14    18   am
    18    16    17    1
    19    10    12   am
    20    10     9    1
    21    43    41    1
    22    18    19    1
    23     4     3    2
    24    19    20    1
    25     9     8    1
    26    42    41    1
    27    42    44    1
    28     3     8   am
    29     3     2    1
    30    41    38    1
    31    21    20    2
    32    20    22   am
    33     1     2    1
    34     6     5    1
    35     2     5    1
    36    22    23    1
    37    39    38    1
    38    39    40    2
    39    38    37    1
    40     5     7    1
    41    37    33   am
    42    23    24    1
    43    23    26    1
    44    27    26    1
    45    27    28    1
    46    30    29    1
    47    24    25    2
    48    24    31   am
    49    74    73    1
    50    28    29    1
    51    31    32    1
    52    33    34    2
    53    33    32    1
    54    32    35    1
    55    73    71   ar
    56    73    72   ar
    57    88    87    2
    58    89    87   am
    59    35    36    1
    60    71    69   ar
    61    61    60   ar
    62    87    86    1
    63    72    70   ar
    64    60    62   ar
    65    60    59    1
    66    69    68   ar
    67    83    86    1
    68    83    84    1
    69    83    82    1
    70    84    85    2
    71    70    68   ar
    72    59    58    1
    73    68    67    1
    74    58    55    1
    75    81    79    1
    76    79    80    1
    77    79    76    1
    78    55    56    1
    79    55    54    1
    80    56    57    2
    81    63    64    1
    82    76    77    1
    83    76    75    1
    84    52    51   ar
    85    77    78    2
    86    67    64    1
    87    64    65    1
    88    51    53   ar
    89    51    50    1
    90    65    66    2
    91    50    49    1
    92    49    46    1
    93    46    47    1
    94    46    45    1
    95    47    48    2
