@<TRIPOS>MOLECULE
tmp/5muxC00.pdb
 124 119 0 0 0
SMALL
GASTEIGER

@<TRIPOS>ATOM
      1  N         77.6840   59.9410   82.1120 N.3    89  ARG89      -0.1245
      2  CA        78.3250   59.8750   83.4190 C.3    89  ARG89       0.1563
      3  C         77.3260   59.5230   84.5260 C.2    89  ARG89       0.2260
      4  O         77.7400   59.1610   85.6450 O.2    89  ARG89      -0.2867
      5  CB        78.9740   61.2460   83.6780 C.3    89  ARG89       0.0307
      6  CG        79.6290   61.4350   85.0720 C.3    89  ARG89       0.0489
      7  CD        80.7570   60.4460   85.2960 C.3    89  ARG89       0.2205
      8  NE        81.2970   60.5490   86.6360 N.pl3  89  ARG89      -0.0865
      9  CZ        80.8010   59.9570   87.6990 C.cat  89  ARG89       0.5346
     10  NH1       79.6530   59.3160   87.6180 N.pl3  89  ARG89       0.1354
     11  NH2       81.3590   60.1580   88.9000 N.pl3  89  ARG89       0.1354
     12  N         77.4690   56.3480   87.0280 N.3    92  ASP92      -0.1239
     13  CA        78.7450   55.8460   87.5100 C.3    92  ASP92       0.1674
     14  C         79.0620   54.4860   86.8710 C.2    92  ASP92       0.2266
     15  O         79.4540   53.5220   87.5630 O.2    92  ASP92      -0.2867
     16  CB        78.7650   55.7640   89.0550 C.3    92  ASP92       0.1410
     17  CG        79.7370   56.7260   89.6750 C.2    92  ASP92       0.3668
     18  OD1       80.8890   56.3030   89.9270 O.co2  92  ASP92      -0.2456
     19  OD2       79.3260   57.8950   89.9390 O.co2  92  ASP92      -0.2456
     20  N         92.7510   56.0700   86.6590 N.3    98  LEU98      -0.1245
     21  CA        93.1140   56.3800   88.0300 C.3    98  LEU98       0.1561
     22  C         94.6190   56.5420   88.1610 C.2    98  LEU98       0.2260
     23  O         95.3580   55.6360   87.8190 O.2    98  LEU98      -0.2867
     24  CB        92.6340   55.2370   88.9540 C.3    98  LEU98       0.0270
     25  CG        91.1500   54.9280   88.9670 C.3    98  LEU98       0.0019
     26  CD1       90.8550   53.7100   89.8610 C.3    98  LEU98       0.0001
     27  CD2       90.3170   56.1340   89.4160 C.3    98  LEU98       0.0001
     28  N         91.8130   61.2200   89.7980 N.3   102  TRP102     -0.1227
     29  CA        90.7870   60.2880   89.3930 C.3   102  TRP102      0.1737
     30  C         89.9730   60.9180   88.2820 C.2   102  TRP102      0.2596
     31  O         89.8690   62.1400   88.1860 O.2   102  TRP102     -0.2718
     32  CB        89.8780   59.9670   90.5880 C.3   102  TRP102      0.0564
     33  CG        90.6570   59.6390   91.8660 C.ar  102  TRP102      0.0003
     34  CD1       91.6380   58.7320   91.9830 C.ar  102  TRP102      0.0946
     35  CD2       90.5340   60.2750   93.1470 C.ar  102  TRP102      0.0152
     36  NE1       92.1060   58.6810   93.2830 N.ar  102  TRP102     -0.2442
     37  CE2       91.4620   59.6370   94.0170 C.ar  102  TRP102      0.0810
     38  CE3       89.7650   61.3220   93.6350 C.ar  102  TRP102      0.0012
     39  CZ2       91.6450   60.0340   95.3480 C.ar  102  TRP102      0.0191
     40  CZ3       89.8850   61.6760   94.9800 C.ar  102  TRP102      0.0001
     41  CH2       90.8110   61.0360   95.8260 C.ar  102  TRP102      0.0015
     42  N         89.3950   60.1190   87.4340 N.am  103  GLY103     -0.1942
     43  CA        88.3670   60.6330   86.5240 C.3   103  GLY103      0.2014
     44  C         87.8240   59.6330   85.5670 C.2   103  GLY103      0.2638
     45  O         88.1180   58.4330   85.6700 O.2   103  GLY103     -0.2714
     46  N         87.0560   60.1520   84.6050 N.am  104  HIS104     -0.1973
     47  CA        86.3430   59.3540   83.6140 C.3   104  HIS104      0.1656
     48  C         86.4810   59.9730   82.2610 C.2   104  HIS104      0.2291
     49  O         85.6650   60.8160   81.8670 O.2   104  HIS104     -0.2864
     50  CB        84.8740   59.2700   84.0010 C.3   104  HIS104      0.0771
     51  CG        84.6720   58.8350   85.4010 C.ar  104  HIS104      0.0820
     52  ND1       84.8560   57.5230   85.7860 N.ar  104  HIS104     -0.2267
     53  CD2       84.5520   59.5470   86.5400 C.ar  104  HIS104      0.1154
     54  CE1       84.6930   57.4340   87.0930 C.ar  104  HIS104      0.1986
     55  NE2       84.5970   58.6560   87.5770 N.ar  104  HIS104     -0.2212
     56  N         88.0910   66.9250   89.5980 N.3   163  HIS163     -0.1241
     57  CA        88.8550   66.4710   88.4480 C.3   163  HIS163      0.1621
     58  C         88.3600   66.9970   87.1300 C.2   163  HIS163      0.2264
     59  O         89.0250   66.8390   86.0860 O.2   163  HIS163     -0.2867
     60  CB        88.8980   64.9500   88.4280 C.3   163  HIS163      0.0745
     61  CG        87.5960   64.3020   88.1500 C.ar  163  HIS163      0.0817
     62  ND1       86.8640   63.6310   89.1170 N.ar  163  HIS163     -0.2268
     63  CD2       86.8840   64.1990   87.0020 C.ar  163  HIS163      0.1154
     64  CE1       85.8100   63.0760   88.5510 C.ar  163  HIS163      0.1986
     65  NE2       85.7690   63.4550   87.2850 N.ar  163  HIS163     -0.2212
     66  N         84.9890   69.9330   94.8770 N.3   201  ARG201     -0.1245
     67  CA        84.5140   68.5370   94.8640 C.3   201  ARG201      0.1563
     68  C         83.6840   68.2230   96.0940 C.2   201  ARG201      0.2260
     69  O         83.4770   67.0380   96.4220 O.2   201  ARG201     -0.2867
     70  CB        85.6440   67.4880   94.6440 C.3   201  ARG201      0.0307
     71  CG        86.9280   67.6550   95.4650 C.3   201  ARG201      0.0489
     72  CD        87.9430   66.5730   95.1310 C.3   201  ARG201      0.2205
     73  NE        87.3680   65.2660   95.4640 N.pl3 201  ARG201     -0.0865
     74  CZ        87.0720   64.2720   94.6150 C.cat 201  ARG201      0.5346
     75  NH1       87.4440   64.2990   93.3270 N.pl3 201  ARG201      0.1354
     76  NH2       86.4930   63.1420   95.0800 N.pl3 201  ARG201      0.1354
     77  N         81.1180   65.3700   96.0920 N.3   204  ARG204     -0.1245
     78  CA        81.5900   63.9770   95.9980 C.3   204  ARG204      0.1563
     79  C         81.8440   63.3570   97.3620 C.2   204  ARG204      0.2260
     80  O         82.3190   62.2460   97.4420 O.2   204  ARG204     -0.2867
     81  CB        82.8510   63.8690   95.0910 C.3   204  ARG204      0.0307
     82  CG        82.6390   64.3050   93.6330 C.3   204  ARG204      0.0489
     83  CD        83.6680   63.7040   92.6550 C.3   204  ARG204      0.2205
     84  NE        83.5810   64.4290   91.3860 N.pl3 204  ARG204     -0.0865
     85  CZ        82.6790   64.2150   90.4400 C.cat 204  ARG204      0.5346
     86  NH1       81.9050   63.1270   90.4600 N.pl3 204  ARG204      0.1354
     87  NH2       82.6260   65.0230   89.4060 N.pl3 204  ARG204      0.1354
     88  N         81.0070   53.4130   92.1800 N.3   282  GLU282     -0.1245
     89  CA        82.2960   54.0860   92.2270 C.3   282  GLU282      0.1567
     90  C         83.4450   53.1180   92.0080 C.2   282  GLU282      0.2260
     91  O         83.4440   51.9780   92.5220 O.2   282  GLU282     -0.2867
     92  CB        82.4590   54.8800   93.5210 C.3   282  GLU282      0.0388
     93  CG        83.3270   56.1170   93.3570 C.3   282  GLU282      0.1160
     94  CD        84.8220   55.8140   93.4620 C.2   282  GLU282      0.3649
     95  OE1       85.1880   54.8340   94.1410 O.co2 282  GLU282     -0.2457
     96  OE2       85.6440   56.5490   92.9210 O.co2 282  GLU282     -0.2457
     97  N         86.4380   52.5890   92.9080 N.3   284  HIS284     -0.1241
     98  CA        87.2970   52.1310   93.9670 C.3   284  HIS284      0.1621
     99  C         86.6250   51.0240   94.7660 C.2   284  HIS284      0.2264
    100  O         87.2780   50.3440   95.5270 O.2   284  HIS284     -0.2867
    101  CB        87.7100   53.2830   94.8850 C.3   284  HIS284      0.0745
    102  CG        88.5940   54.2900   94.2250 C.ar  284  HIS284      0.0817
    103  ND1       88.1070   55.4750   93.7160 N.ar  284  HIS284     -0.2268
    104  CD2       89.9070   54.2470   93.8920 C.ar  284  HIS284      0.1154
    105  CE1       89.0960   56.1200   93.1120 C.ar  284  HIS284      0.1986
    106  NE2       90.2040   55.4280   93.2690 N.ar  284  HIS284     -0.2212
    107  N         87.6020   58.6390   99.5470 N.3   320  ILE320     -0.1245
    108  CA        86.3500   59.0250   98.8790 C.3   320  ILE320      0.1561
    109  C         85.0890   58.3280   99.4520 C.2   320  ILE320      0.2260
    110  O         84.0370   58.9810   99.6260 O.2   320  ILE320     -0.2867
    111  CB        86.4140   58.7450   97.3770 C.3   320  ILE320      0.0252
    112  CG1       87.7110   59.3150   96.7890 C.3   320  ILE320      0.0019
    113  CG2       85.2190   59.3900   96.6690 C.3   320  ILE320      0.0019
    114  CD1       88.0630   58.6940   95.4550 C.3   320  ILE320      0.0001
    115  N         78.5940   56.0040   96.0640 N.3   335  HIS335     -0.1241
    116  CA        79.8790   56.3820   96.6210 C.3   335  HIS335      0.1621
    117  C         80.1430   55.8650   98.0470 C.2   335  HIS335      0.2264
    118  O         80.7220   56.5890   98.8850 O.2   335  HIS335     -0.2867
    119  CB        80.0440   57.8950   96.5760 C.3   335  HIS335      0.0745
    120  CG        80.4680   58.3940   95.2420 C.ar  335  HIS335      0.0817
    121  ND1       79.7920   58.0850   94.0770 N.ar  335  HIS335     -0.2268
    122  CD2       81.5310   59.1530   94.8760 C.ar  335  HIS335      0.1154
    123  CE1       80.4570   58.5780   93.0460 C.ar  335  HIS335      0.1986
    124  NE2       81.5040   59.2440   93.5050 N.ar  335  HIS335     -0.2212
@<TRIPOS>BOND
     1    49    48    2
     2     1     2    1
     3    48    47    1
     4     2     5    1
     5     2     3    1
     6    47    50    1
     7    47    46    1
     8     5     6    1
     9    50    51    1
    10     3     4    2
    11    46    44   am
    12     6     7    1
    13     7     8    1
    14    51    52   ar
    15    51    53   ar
    16    44    45    2
    17    44    43    1
    18    52    54   ar
    19    59    58    2
    20    43    42    1
    21    53    55   ar
    22     8     9    2
    23    20    21    1
    24    14    13    1
    25    14    15    2
    26    63    65   ar
    27    63    61   ar
    28    12    13    1
    29    54    55   ar
    30    58    57    1
    31    65    64   ar
    32    42    30   am
    33    13    16    1
    34    10     9    1
    35     9    11    1
    36    23    22    2
    37    21    22    1
    38    21    24    1
    39    61    60    1
    40    61    62   ar
    41    31    30    2
    42    30    29    1
    43    60    57    1
    44    57    56    1
    45    64    62   ar
    46    24    25    1
    47    25    27    1
    48    25    26    1
    49    16    17    1
    50    29    28    1
    51    29    32    1
    52    87    85    1
    53    17    18   ar
    54    17    19   ar
    55    85    86    1
    56    85    84    2
    57    32    33    1
    58    84    83    1
    59    33    34   ar
    60    33    35   ar
    61    34    36   ar
    62    90    89    1
    63    90    91    2
    64    88    89    1
    65    89    92    1
    66    83    82    1
    67    97    98    1
    68    96    94   ar
    69   123   124   ar
    70   123   121   ar
    71   105   106   ar
    72   105   103   ar
    73    35    38   ar
    74    35    37   ar
    75   106   104   ar
    76    36    37   ar
    77    75    74    1
    78    93    94    1
    79    93    92    1
    80    94    95   ar
    81   124   122   ar
    82    82    81    1
    83    38    40   ar
    84   103   102   ar
    85   104   102   ar
    86    98    99    1
    87    98   101    1
    88    37    39   ar
    89   121   120   ar
    90   102   101    1
    91    74    76    1
    92    74    73    2
    93    70    67    1
    94    70    71    1
    95    99   100    2
    96    67    66    1
    97    67    68    1
    98   122   120   ar
    99    40    41   ar
   100    81    78    1
   101    72    73    1
   102    72    71    1
   103   120   119    1
   104    39    41   ar
   105   114   112    1
   106    78    77    1
   107    78    79    1
   108   115   116    1
   109    68    69    2
   110   119   116    1
   111   116   117    1
   112   113   111    1
   113   112   111    1
   114    79    80    2
   115   111   108    1
   116   117   118    2
   117   108   109    1
   118   108   107    1
   119   109   110    2
