@<TRIPOS>MOLECULE
tmp/5muyB00.pdb
 105 100 0 0 0
SMALL
GASTEIGER

@<TRIPOS>ATOM
      1  N         21.3390   16.4210   -3.1640 N.3   204  HIS204     -0.1226
      2  CA        20.6670   15.1780   -3.5320 C.3   204  HIS204      0.1752
      3  C         19.1760   15.3330   -3.8500 C.2   204  HIS204      0.2596
      4  O         18.5400   14.3440   -4.2240 O.2   204  HIS204     -0.2718
      5  CB        20.8610   14.1340   -2.4230 C.3   204  HIS204      0.0759
      6  CG        22.2790   13.6880   -2.2680 C.ar  204  HIS204      0.0818
      7  ND1       23.1100   13.4790   -3.3470 N.ar  204  HIS204     -0.2268
      8  CD2       23.0300   13.4580   -1.1640 C.ar  204  HIS204      0.1154
      9  CE1       24.3090   13.1230   -2.9150 C.ar  204  HIS204      0.1986
     10  NE2       24.2880   13.1030   -1.5940 N.ar  204  HIS204     -0.2212
     11  N         18.5940   16.5210   -3.7200 N.am  205  ASN205     -0.1960
     12  CA        17.2530   16.6880   -4.2660 C.3   205  ASN205      0.1819
     13  C         17.3430   17.1510   -5.7160 C.2   205  ASN205      0.2621
     14  O         18.3960   17.5850   -6.1910 O.2   205  ASN205     -0.2715
     15  CB        16.4210   17.6690   -3.4410 C.3   205  ASN205      0.1195
     16  CG        17.0250   19.0510   -3.3960 C.2   205  ASN205      0.2630
     17  OD1       16.9330   19.8160   -4.3570 O.2   205  ASN205     -0.2716
     18  ND2       17.6250   19.3910   -2.2650 N.am  205  ASN205     -0.0877
     19  N         16.2210   17.0400   -6.4310 N.am  206  GLU206     -0.1977
     20  CA        16.2210   17.3700   -7.8550 C.3   206  GLU206      0.1602
     21  C         16.6500   18.8120   -8.0900 C.2   206  GLU206      0.2287
     22  O         17.4640   19.0940   -8.9790 O.2   206  GLU206     -0.2864
     23  CB        14.8350   17.1280   -8.4640 C.3   206  GLU206      0.0415
     24  CG        14.6560   17.7810   -9.8410 C.3   206  GLU206      0.1163
     25  CD        13.4480   17.2500  -10.5990 C.2   206  GLU206      0.3649
     26  OE1       12.6680   16.4820   -9.9960 O.co2 206  GLU206     -0.2457
     27  OE2       13.2690   17.6140  -11.7860 O.co2 206  GLU206     -0.2457
     28  N         20.4210   19.3170   -7.3880 N.3   209  ASP209     -0.1239
     29  CA        21.1200   18.5650   -8.4240 C.3   209  ASP209      0.1674
     30  C         21.1500   19.3500   -9.7260 C.2   209  ASP209      0.2266
     31  O         22.2070   19.5060  -10.3520 O.2   209  ASP209     -0.2867
     32  CB        20.4530   17.1950   -8.6260 C.3   209  ASP209      0.1410
     33  CG        21.0340   16.4130   -9.8140 C.2   209  ASP209      0.3668
     34  OD1       22.0870   15.7380   -9.6580 O.co2 209  ASP209     -0.2456
     35  OD2       20.4280   16.4680  -10.9100 O.co2 209  ASP209     -0.2456
     36  N         24.5550   21.1420  -11.5860 N.3   213  LYS213     -0.1245
     37  CA        24.9550   20.9380  -12.9710 C.3   213  LYS213      0.1561
     38  C         24.9790   22.2560  -13.7260 C.2   213  LYS213      0.2260
     39  O         25.8700   22.4880  -14.5550 O.2   213  LYS213     -0.2867
     40  CB        24.0200   19.9380  -13.6380 C.3   213  LYS213      0.0271
     41  CG        24.0270   18.5690  -12.9610 C.3   213  LYS213      0.0035
     42  CD        22.7860   17.7300  -13.3470 C.3   213  LYS213      0.0206
     43  CE        22.9130   16.3150  -12.7780 C.3   213  LYS213      0.1093
     44  NZ        21.8340   15.3910  -13.2030 N.3   213  LYS213     -0.1314
     45  N         32.0130   14.5550   -9.5640 N.3   245  ASN245     -0.1240
     46  CA        30.7550   14.2990   -8.8750 C.3   245  ASN245      0.1653
     47  C         29.5620   14.5470   -9.7890 C.2   245  ASN245      0.2266
     48  O         28.5430   13.8570   -9.6700 O.2   245  ASN245     -0.2867
     49  CB        30.6700   15.1580   -7.6200 C.3   245  ASN245      0.1155
     50  CG        29.3010   15.0780   -6.9180 C.2   245  ASN245      0.2627
     51  OD1       28.2890   15.5980   -7.4080 O.2   245  ASN245     -0.2716
     52  ND2       29.2860   14.4770   -5.7380 N.am  245  ASN245     -0.0877
     53  N         29.0040   11.6130  -12.4610 N.3   248  LEU248     -0.1231
     54  CA        28.3880   10.4380  -11.8560 C.3   248  LEU248      0.1693
     55  C         26.8810   10.5770  -11.7110 C.2   248  LEU248      0.2592
     56  O         26.2480    9.6430  -11.2110 O.2   248  LEU248     -0.2718
     57  CB        28.9880   10.1640  -10.4760 C.3   248  LEU248      0.0284
     58  CG        30.4310    9.6860  -10.3330 C.3   248  LEU248      0.0019
     59  CD1       30.8230    9.7050   -8.8630 C.3   248  LEU248      0.0001
     60  CD2       30.6360    8.2800  -10.9190 C.3   248  LEU248      0.0001
     61  N         26.3150   11.7300  -12.0870 N.am  249  ARG249     -0.1966
     62  CA        24.8820   11.9970  -12.0440 C.3   249  ARG249      0.1729
     63  C         24.2280   11.8810  -13.4080 C.2   249  ARG249      0.2616
     64  O         23.0640   12.2530  -13.5560 O.2   249  ARG249     -0.2715
     65  CB        24.6150   13.4060  -11.4860 C.3   249  ARG249      0.0348
     66  CG        25.2860   13.7090  -10.1560 C.3   249  ARG249      0.0492
     67  CD        25.3000   15.2030   -9.8520 C.3   249  ARG249      0.2205
     68  NE        25.6890   15.4380   -8.4660 N.pl3 249  ARG249     -0.0865
     69  CZ        24.8380   15.6610   -7.4730 C.cat 249  ARG249      0.5346
     70  NH1       23.5310   15.7050   -7.7060 N.pl3 249  ARG249      0.1354
     71  NH2       25.2960   15.8470   -6.2440 N.pl3 249  ARG249      0.1354
     72  N         24.9600   11.4250  -14.4130 N.am  250  PHE250     -0.1960
     73  CA        24.4700   11.3510  -15.7780 C.3   250  PHE250      0.1771
     74  C         24.6730    9.9440  -16.3170 C.2   250  PHE250      0.2619
     75  O         25.6570    9.2750  -15.9890 O.2   250  PHE250     -0.2715
     76  CB        25.2150   12.3200  -16.7250 C.3   250  PHE250      0.0574
     77  CG        24.9600   13.7690  -16.4630 C.ar  250  PHE250     -0.0200
     78  CD1       23.6690   14.2750  -16.4670 C.ar  250  PHE250     -0.0042
     79  CD2       26.0260   14.6450  -16.2840 C.ar  250  PHE250     -0.0042
     80  CE1       23.4430   15.6210  -16.2440 C.ar  250  PHE250     -0.0003
     81  CE2       25.8090   15.9970  -16.0650 C.ar  250  PHE250     -0.0003
     82  CZ        24.5250   16.4850  -16.0460 C.ar  250  PHE250     -0.0000
     83  N         23.7690    9.5110  -17.1790 N.am  251  ASN251     -0.1972
     84  CA        24.1530    8.4260  -18.0560 C.3   251  ASN251      0.1688
     85  C         24.8690    9.0290  -19.2580 C.2   251  ASN251      0.2292
     86  O         24.9160   10.2490  -19.4250 O.2   251  ASN251     -0.2864
     87  CB        22.9470    7.5950  -18.4740 C.3   251  ASN251      0.1181
     88  CG        21.8890    8.4190  -19.1570 C.2   251  ASN251      0.2629
     89  OD1       22.1790    9.4690  -19.7240 O.2   251  ASN251     -0.2716
     90  ND2       20.6500    7.9460  -19.1120 N.am  251  ASN251     -0.0877
     91  N         23.0190   11.6230  -21.4120 N.3   254  SER254     -0.1217
     92  CA        22.8110   12.8860  -20.7120 C.3   254  SER254      0.1889
     93  C         24.1150   13.6560  -20.5740 C.2   254  SER254      0.2288
     94  O         24.1400   14.8760  -20.7690 O.2   254  SER254     -0.2866
     95  CB        22.2120   12.6380  -19.3290 C.3   254  SER254      0.2089
     96  OG        20.9730   11.9690  -19.4180 O.3   254  SER254     -0.2183
     97  N         27.1720    7.6000  -14.5090 N.3   280  LYS280     -0.1245
     98  CA        26.2090    6.6490  -13.9710 C.3   280  LYS280      0.1561
     99  C         26.1840    5.3670  -14.7930 C.2   280  LYS280      0.2260
    100  O         25.8670    4.2930  -14.2690 O.2   280  LYS280     -0.2867
    101  CB        24.8230    7.2910  -13.9440 C.3   280  LYS280      0.0271
    102  CG        23.8760    6.8160  -12.8870 C.3   280  LYS280      0.0035
    103  CD        22.6540    7.6890  -12.9050 C.3   280  LYS280      0.0206
    104  CE        21.5260    6.9820  -13.5950 C.3   280  LYS280      0.1093
    105  NZ        20.4560    7.9040  -14.0650 N.3   280  LYS280     -0.1314
@<TRIPOS>BOND
     1    91    92    1
     2    94    93    2
     3    92    93    1
     4    92    95    1
     5    89    88    2
     6    86    85    2
     7    96    95    1
     8    85    84    1
     9    88    90   am
    10    88    87    1
    11    87    84    1
    12    84    83    1
    13    83    74   am
    14    76    77    1
    15    76    73    1
    16    78    77   ar
    17    78    80   ar
    18    77    79   ar
    19    74    75    2
    20    74    73    1
    21    79    81   ar
    22    80    82   ar
    23    81    82   ar
    24    73    72    1
    25    99   100    2
    26    99    98    1
    27    39    38    2
    28    97    98    1
    29    72    63   am
    30   105   104    1
    31    98   101    1
    32   101   102    1
    33    38    37    1
    34    40    37    1
    35    40    41    1
    36   104   103    1
    37    64    63    2
    38    63    62    1
    39    42    41    1
    40    42    43    1
    41    44    43    1
    42    37    36    1
    43   103   102    1
    44    53    54    1
    45    61    62    1
    46    61    55   am
    47    62    65    1
    48    54    55    1
    49    54    57    1
    50    27    25   ar
    51    55    56    2
    52    65    66    1
    53    60    58    1
    54    35    33   ar
    55    25    26   ar
    56    25    24    1
    57    57    58    1
    58    31    30    2
    59    58    59    1
    60    66    67    1
    61    67    68    1
    62    24    23    1
    63    33    34   ar
    64    33    32    1
    65    47    48    2
    66    47    46    1
    67    30    29    1
    68    45    46    1
    69    22    21    2
    70    46    49    1
    71    32    29    1
    72    68    69    2
    73    23    20    1
    74    29    28    1
    75    21    20    1
    76    20    19    1
    77    70    69    1
    78    49    50    1
    79    69    71    1
    80    51    50    2
    81    50    52   am
    82    19    13   am
    83    14    13    2
    84    13    12    1
    85    17    16    2
    86    12    11    1
    87    12    15    1
    88     4     3    2
    89     3    11   am
    90     3     2    1
    91     2     1    1
    92     2     5    1
    93    15    16    1
    94    16    18   am
    95     7     9   ar
    96     7     6   ar
    97     9    10   ar
    98     5     6    1
    99     6     8   ar
   100    10     8   ar
