@<TRIPOS>MOLECULE
tmp/5muyA00.pdb
 69 68 0 0 0
SMALL
GASTEIGER

@<TRIPOS>ATOM
      1  N         26.1240    7.9120   -1.7340 N.3    91  PRO91      -0.2102
      2  CA        25.3520    9.0150   -2.3370 C.3    91  PRO91       0.1504
      3  C         26.2240   10.0370   -3.0410 C.2    91  PRO91       0.2575
      4  O         25.8000   10.5910   -4.0640 O.2    91  PRO91      -0.2718
      5  CB        24.6190    9.6330   -1.1380 C.3    91  PRO91       0.0282
      6  CG        24.4730    8.5020   -0.1810 C.3    91  PRO91       0.0208
      7  CD        25.7570    7.7000   -0.3240 C.3    91  PRO91       0.0893
      8  N         27.4190   10.3200   -2.5060 N.am   92  GLU92      -0.1980
      9  CA        28.3970   11.1420   -3.2220 C.3    92  GLU92       0.1602
     10  C         28.9690   10.4070   -4.4270 C.2    92  GLU92       0.2287
     11  O         29.1370   11.0040   -5.4960 O.2    92  GLU92      -0.2864
     12  CB        29.5290   11.5630   -2.2890 C.3    92  GLU92       0.0415
     13  CG        29.1170   12.5890   -1.2590 C.3    92  GLU92       0.1163
     14  CD        28.7820   13.9250   -1.8960 C.2    92  GLU92       0.3649
     15  OE1       29.7320   14.6070   -2.3550 O.co2  92  GLU92      -0.2457
     16  OE2       27.5760   14.2830   -1.9510 O.co2  92  GLU92      -0.2457
     17  N         27.8910    7.0650   -6.1940 N.3    94  PRO94      -0.2116
     18  CA        27.1410    5.8300   -6.4240 C.3    94  PRO94       0.1372
     19  C         27.8840    4.9730   -7.4250 C.2    94  PRO94       0.2244
     20  O         28.7260    5.4570   -8.1760 O.2    94  PRO94      -0.2868
     21  CB        25.7970    6.3130   -6.9870 C.3    94  PRO94       0.0268
     22  CG        25.7810    7.8000   -6.7670 C.3    94  PRO94       0.0207
     23  CD        27.2030    8.2370   -6.7590 C.3    94  PRO94       0.0892
     24  N         24.7420    4.3420  -10.4780 N.3    97  GLY97      -0.1225
     25  CA        23.5340    4.9560   -9.9550 C.3    97  GLY97       0.1811
     26  C         23.0060    4.3600   -8.6730 C.2    97  GLY97       0.2280
     27  O         22.0830    4.9340   -8.0710 O.2    97  GLY97      -0.2866
     28  N         19.2810    6.7000   -7.6880 N.3   120  PHE120     -0.1227
     29  CA        18.8000    7.9940   -8.1540 C.3   120  PHE120      0.1736
     30  C         18.0930    7.7540   -9.4780 C.2   120  PHE120      0.2595
     31  O         18.7180    7.3160  -10.4490 O.2   120  PHE120     -0.2718
     32  CB        19.9380    9.0040   -8.3440 C.3   120  PHE120      0.0547
     33  CG        20.6920    9.3530   -7.0780 C.ar  120  PHE120     -0.0202
     34  CD1       20.1120   10.1520   -6.0940 C.ar  120  PHE120     -0.0042
     35  CD2       22.0020    8.9120   -6.8900 C.ar  120  PHE120     -0.0042
     36  CE1       20.8200   10.4760   -4.9350 C.ar  120  PHE120     -0.0003
     37  CE2       22.7090    9.2360   -5.7390 C.ar  120  PHE120     -0.0003
     38  CZ        22.1140   10.0230   -4.7610 C.ar  120  PHE120     -0.0000
     39  N         16.7930    8.0210   -9.5180 N.am  121  VAL121     -0.1966
     40  CA        16.0160    7.7130  -10.7130 C.3   121  VAL121      0.1727
     41  C         15.5020    9.0430  -11.2410 C.2   121  VAL121      0.2616
     42  O         15.9100   10.1030  -10.7510 O.2   121  VAL121     -0.2715
     43  CB        14.8840    6.7170  -10.3990 C.3   121  VAL121      0.0290
     44  CG1       14.4570    5.9560  -11.6450 C.3   121  VAL121      0.0023
     45  CG2       15.3390    5.7520   -9.3220 C.3   121  VAL121      0.0023
     46  N         14.6340    9.0180  -12.2480 N.am  122  GLU122     -0.1963
     47  CA        14.1110   10.2890  -12.7210 C.3   122  GLU122      0.1733
     48  C         13.3250   10.9530  -11.5870 C.2   122  GLU122      0.2617
     49  O         12.3000   10.4380  -11.1290 O.2   122  GLU122     -0.2715
     50  CB        13.3100   10.0860  -14.0170 C.3   122  GLU122      0.0429
     51  CG        11.8870    9.6000  -13.8760 C.3   122  GLU122      0.1163
     52  CD        11.1840    9.4490  -15.2160 C.2   122  GLU122      0.3649
     53  OE1        9.9450    9.2670  -15.2230 O.co2 122  GLU122     -0.2457
     54  OE2       11.8760    9.5110  -16.2590 O.co2 122  GLU122     -0.2457
     55  N         13.8830   12.0410  -11.0530 N.am  123  GLY123     -0.1940
     56  CA        13.2170   12.8820  -10.0760 C.3   123  GLY123      0.2014
     57  C         13.5570   12.6920   -8.6060 C.2   123  GLY123      0.2639
     58  O         13.7030   13.6770   -7.8710 O.2   123  GLY123     -0.2714
     59  N         13.6540   11.4450   -8.1480 N.am  124  GLY124     -0.1939
     60  CA        13.8470   11.1890   -6.7340 C.3   124  GLY124      0.2014
     61  C         14.6910    9.9630   -6.4470 C.2   124  GLY124      0.2638
     62  O         15.6380    9.6760   -7.1870 O.2   124  GLY124     -0.2714
     63  N         14.3550    9.2230   -5.3900 N.am  125  VAL125     -0.1977
     64  CA        15.1470    8.0780   -4.9440 C.3   125  VAL125      0.1596
     65  C         14.2340    6.8760   -4.7230 C.2   125  VAL125      0.2287
     66  O         13.2980    6.9430   -3.9180 O.2   125  VAL125     -0.2864
     67  CB        15.9280    8.3970   -3.6580 C.3   125  VAL125      0.0276
     68  CG1       16.5920    7.1470   -3.1180 C.3   125  VAL125      0.0022
     69  CG2       16.9550    9.4720   -3.9270 C.3   125  VAL125      0.0022
@<TRIPOS>BOND
     1    54    52   ar
     2    53    52   ar
     3    52    51    1
     4    50    51    1
     5    50    47    1
     6    47    46    1
     7    47    48    1
     8    46    41   am
     9    44    43    1
    10    48    49    2
    11    48    55   am
    12    41    42    2
    13    41    40    1
    14    55    56    1
    15    40    43    1
    16    40    39    1
    17    24    25    1
    18    31    30    2
    19    43    45    1
    20    56    57    1
    21    25    26    1
    22    39    30   am
    23    30    29    1
    24    26    27    2
    25    57    59   am
    26    57    58    2
    27    32    29    1
    28    32    33    1
    29    20    19    2
    30    29    28    1
    31    59    60    1
    32    19    18    1
    33    62    61    2
    34    33    35   ar
    35    33    34   ar
    36    21    22    1
    37    21    18    1
    38    35    37   ar
    39    22    23    1
    40    23    17    1
    41    60    61    1
    42    61    63   am
    43    18    17    1
    44    34    36   ar
    45    37    38   ar
    46    11    10    2
    47    63    64    1
    48    64    65    1
    49    64    67    1
    50    36    38   ar
    51    65    66    2
    52    10     9    1
    53     4     3    2
    54    69    67    1
    55    67    68    1
    56     9     8    1
    57     9    12    1
    58     3     8   am
    59     3     2    1
    60    15    14   ar
    61     2     1    1
    62     2     5    1
    63    12    13    1
    64    16    14   ar
    65    14    13    1
    66     1     7    1
    67     5     6    1
    68     7     6    1
