@<TRIPOS>MOLECULE
tmp/5mv7A01.pdb
 86 81 0 0 0
SMALL
GASTEIGER

@<TRIPOS>ATOM
      1  N         31.9000   -4.8650  -22.1320 N.3    13  LYS13      -0.1231
      2  CA        31.1210   -3.6790  -22.4630 C.3    13  LYS13       0.1693
      3  C         30.2570   -3.3250  -21.2390 C.2    13  LYS13       0.2591
      4  O         29.7120   -4.2270  -20.6010 O.2    13  LYS13      -0.2718
      5  CB        30.2060   -4.0510  -23.6470 C.3    13  LYS13       0.0285
      6  CG        29.5630   -2.9080  -24.4080 C.3    13  LYS13       0.0035
      7  CD        29.2900   -3.3130  -25.8720 C.3    13  LYS13       0.0206
      8  CE        28.2120   -4.3650  -26.0710 C.3    13  LYS13       0.1093
      9  NZ        28.1160   -4.8040  -27.4940 N.3    13  LYS13      -0.1314
     10  N         30.1440   -2.0300  -20.9070 N.am   14  LEU14      -0.1980
     11  CA        29.3100   -1.5740  -19.8000 C.3    14  LEU14       0.1596
     12  C         27.8450   -1.8890  -20.0920 C.2    14  LEU14       0.2287
     13  O         27.2970   -1.4420  -21.0980 O.2    14  LEU14      -0.2864
     14  CB        29.5360   -0.0820  -19.5360 C.3    14  LEU14       0.0297
     15  CG        30.5510    0.2720  -18.4350 C.3    14  LEU14       0.0022
     16  CD1       31.8890   -0.4150  -18.6380 C.3    14  LEU14       0.0001
     17  CD2       30.8190    1.7320  -18.4220 C.3    14  LEU14       0.0001
     18  N         23.8890   -1.9260  -19.9950 N.3    16  THR16      -0.1218
     19  CA        22.7900   -0.9710  -19.8960 C.3    16  THR16       0.1862
     20  C         21.4670   -1.7310  -19.7960 C.2    16  THR16       0.2287
     21  O         21.4480   -2.9630  -19.9300 O.2    16  THR16      -0.2866
     22  CB        22.8180   -0.0060  -21.0940 C.3    16  THR16       0.1770
     23  OG1       22.4050   -0.7040  -22.2680 O.3    16  THR16      -0.2211
     24  CG2       24.1920    0.6490  -21.3090 C.3    16  THR16       0.0375
     25  N         22.3750    6.3100  -13.9420 N.3   123  LEU123     -0.1231
     26  CA        23.7960    5.9510  -13.8770 C.3   123  LEU123      0.1693
     27  C         24.3120    5.5640  -15.2490 C.2   123  LEU123      0.2593
     28  O         25.5070    5.3380  -15.3850 O.2   123  LEU123     -0.2718
     29  CB        24.0250    4.8020  -12.8860 C.3   123  LEU123      0.0284
     30  CG        23.9440    5.1320  -11.3930 C.3   123  LEU123      0.0019
     31  CD1       23.9840    3.8620  -10.5490 C.3   123  LEU123      0.0001
     32  CD2       25.0140    6.1410  -10.9830 C.3   123  LEU123      0.0001
     33  N         23.4250    5.5050  -16.2700 N.am  124  THR124     -0.1939
     34  CA        23.7480    5.1630  -17.6640 C.3   124  THR124      0.2028
     35  C         23.9250    6.4350  -18.5200 C.2   124  THR124      0.2642
     36  O         23.0130    7.2380  -18.5920 O.2   124  THR124     -0.2714
     37  CB        22.6910    4.1790  -18.2290 C.3   124  THR124      0.1808
     38  OG1       22.6270    3.0250  -17.3940 O.3   124  THR124     -0.2208
     39  CG2       22.9690    3.7410  -19.6670 C.3   124  THR124      0.0379
     40  N         25.1000    6.6060  -19.1600 N.am  125  HIS125     -0.1959
     41  CA        25.5060    7.7140  -20.0460 C.3   125  HIS125      0.1787
     42  C         25.4890    9.0790  -19.3370 C.2   125  HIS125      0.2620
     43  O         25.3410   10.1220  -19.9830 O.2   125  HIS125     -0.2715
     44  CB        24.7230    7.7410  -21.3990 C.3   125  HIS125      0.0785
     45  CG        24.6930    6.4360  -22.1410 C.ar  125  HIS125      0.0821
     46  ND1       25.7870    5.5870  -22.1730 N.ar  125  HIS125     -0.2267
     47  CD2       23.7050    5.8950  -22.8930 C.ar  125  HIS125      0.1154
     48  CE1       25.4190    4.5500  -22.9090 C.ar  125  HIS125      0.1986
     49  NE2       24.1750    4.6910  -23.3640 N.ar  125  HIS125     -0.2212
     50  N         25.7280    9.0580  -18.0170 N.am  126  ASN126     -0.1972
     51  CA        25.7980   10.2270  -17.1710 C.3   126  ASN126      0.1688
     52  C         27.2030   10.8000  -17.2690 C.2   126  ASN126      0.2292
     53  O         28.1560   10.1540  -16.8330 O.2   126  ASN126     -0.2864
     54  CB        25.4800    9.8330  -15.7250 C.3   126  ASN126      0.1181
     55  CG        25.1060   10.9830  -14.8280 C.2   126  ASN126      0.2629
     56  OD1       25.5670   12.1230  -14.9750 O.2   126  ASN126     -0.2716
     57  ND2       24.2350   10.7160  -13.8900 N.am  126  ASN126     -0.0877
     58  N         26.8550   11.0850  -10.8870 N.3   132  GLU132     -0.1245
     59  CA        27.1630    9.6590  -10.9530 C.3   132  GLU132      0.1567
     60  C         27.5310    9.1420   -9.5630 C.2   132  GLU132      0.2260
     61  O         27.0080    8.1070   -9.1310 O.2   132  GLU132     -0.2867
     62  CB        28.2610    9.3750  -11.9790 C.3   132  GLU132      0.0388
     63  CG        28.3180    7.9240  -12.4250 C.3   132  GLU132      0.1160
     64  CD        29.3800    7.6070  -13.4570 C.2   132  GLU132      0.3649
     65  OE1       30.5070    8.1390  -13.3370 O.co2 132  GLU132     -0.2457
     66  OE2       29.0800    6.8360  -14.3970 O.co2 132  GLU132     -0.2457
     67  N         30.9440   -2.5180  -13.9590 N.3   163  ARG163     -0.1245
     68  CA        31.4200   -1.2670  -13.3750 C.3   163  ARG163      0.1563
     69  C         32.0610   -1.5130  -12.0120 C.2   163  ARG163      0.2260
     70  O         32.0750   -0.6030  -11.1770 O.2   163  ARG163     -0.2867
     71  CB        30.2730   -0.2620  -13.2410 C.3   163  ARG163      0.0307
     72  CG        29.7420    0.2470  -14.5480 C.3   163  ARG163      0.0489
     73  CD        28.3500    0.7520  -14.3440 C.3   163  ARG163      0.2205
     74  NE        27.8020    1.3100  -15.5710 N.pl3 163  ARG163     -0.0865
     75  CZ        27.0920    0.6210  -16.4450 C.cat 163  ARG163      0.5346
     76  NH1       26.8320   -0.6600  -16.2340 N.pl3 163  ARG163      0.1354
     77  NH2       26.6160    1.2110  -17.5280 N.pl3 163  ARG163      0.1354
     78  N         33.9360    1.0990   -9.7650 N.3   166  LYS166     -0.1245
     79  CA        33.2770    2.1670   -9.0090 C.3   166  LYS166      0.1561
     80  C         33.3960    1.8830   -7.5320 C.2   166  LYS166      0.2260
     81  O         33.1920    0.7460   -7.1130 O.2   166  LYS166     -0.2867
     82  CB        31.8000    2.3210   -9.4140 C.3   166  LYS166      0.0271
     83  CG        31.6050    2.8600  -10.8340 C.3   166  LYS166      0.0035
     84  CD        31.9250    4.3250  -10.9140 C.3   166  LYS166      0.0206
     85  CE        31.6810    4.8710  -12.2870 C.3   166  LYS166      0.1093
     86  NZ        32.3020    6.2120  -12.4130 N.3   166  LYS166     -0.1314
@<TRIPOS>BOND
     1     9     8    1
     2     8     7    1
     3     7     6    1
     4     6     5    1
     5     5     2    1
     6    49    48   ar
     7    49    47   ar
     8    48    46   ar
     9    47    45   ar
    10     2     1    1
    11     2     3    1
    12    23    22    1
    13    46    45   ar
    14    45    44    1
    15    44    41    1
    16    24    22    1
    17     3    10   am
    18     3     4    2
    19    13    12    2
    20    22    19    1
    21    10    11    1
    22    12    11    1
    23    41    42    1
    24    41    40    1
    25    18    19    1
    26    43    42    2
    27    21    20    2
    28    19    20    1
    29    11    14    1
    30    39    37    1
    31    14    15    1
    32    42    50   am
    33    40    35   am
    34    16    15    1
    35    36    35    2
    36    35    34    1
    37    15    17    1
    38    37    34    1
    39    37    38    1
    40    50    51    1
    41    34    33    1
    42    77    75    1
    43    52    51    1
    44    52    53    2
    45    51    54    1
    46    75    76    1
    47    75    74    2
    48    33    27   am
    49    54    55    1
    50    74    73    1
    51    28    27    2
    52    27    26    1
    53    56    55    2
    54    55    57   am
    55    72    73    1
    56    72    71    1
    57    66    64   ar
    58    67    68    1
    59    25    26    1
    60    26    29    1
    61    64    65   ar
    62    64    63    1
    63    68    71    1
    64    68    69    1
    65    29    30    1
    66    63    62    1
    67    86    85    1
    68    85    84    1
    69    69    70    2
    70    62    59    1
    71    30    32    1
    72    30    31    1
    73    59    58    1
    74    59    60    1
    75    84    83    1
    76    83    82    1
    77    78    79    1
    78    60    61    2
    79    82    79    1
    80    79    80    1
    81    80    81    2
