@<TRIPOS>MOLECULE
tmp/5mvcA02.pdb
 207 198 0 0 0
SMALL
GASTEIGER

@<TRIPOS>ATOM
      1  N         -5.5140   23.9560   -7.4860 N.3     7  TYR7       -0.1241
      2  CA        -5.3100   25.3550   -7.1020 C.3     7  TYR7        0.1605
      3  C         -4.0470   25.8980   -7.7420 C.2     7  TYR7        0.2264
      4  O         -4.0540   26.9760   -8.3460 O.2     7  TYR7       -0.2867
      5  CB        -5.2520   25.4840   -5.5630 C.3     7  TYR7        0.0534
      6  CG        -6.6460   25.6840   -4.9850 C.ar    7  TYR7       -0.0201
      7  CD1       -7.5270   24.6190   -4.8800 C.ar    7  TYR7       -0.0009
      8  CD2       -7.1070   26.9540   -4.6420 C.ar    7  TYR7       -0.0009
      9  CE1       -8.8120   24.7920   -4.3880 C.ar    7  TYR7        0.0417
     10  CE2       -8.3960   27.1460   -4.1620 C.ar    7  TYR7        0.0417
     11  CZ        -9.2380   26.0530   -4.0280 C.ar    7  TYR7        0.1957
     12  OH       -10.5190   26.2150   -3.5610 O.3     7  TYR7       -0.2866
     13  N         -6.7440   27.0090  -10.8460 N.3    11  LEU11      -0.1231
     14  CA        -7.6410   28.0110  -10.2720 C.3    11  LEU11       0.1693
     15  C         -6.9160   29.3100   -9.9380 C.2    11  LEU11       0.2591
     16  O         -7.3950   30.4010  -10.2820 O.2    11  LEU11      -0.2718
     17  CB        -8.3080   27.4530   -9.0280 C.3    11  LEU11       0.0284
     18  CG        -9.3230   28.3660   -8.3420 C.3    11  LEU11       0.0019
     19  CD1      -10.2900   28.8660   -9.3730 C.3    11  LEU11       0.0001
     20  CD2      -10.0770   27.6060   -7.2900 C.3    11  LEU11       0.0001
     21  N         -5.7980   29.2210   -9.1930 N.am   12  MET12      -0.1979
     22  CA        -5.0740   30.4350   -8.8100 C.3    12  MET12       0.1605
     23  C         -4.5110   31.1920   -9.9970 C.2    12  MET12       0.2287
     24  O         -4.7160   32.4130  -10.0680 O.2    12  MET12      -0.2864
     25  CB        -3.9730   30.1050   -7.7860 C.3    12  MET12       0.0413
     26  CG        -4.5300   29.5690   -6.4590 C.3    12  MET12       0.0598
     27  SD        -5.6560   30.7510   -5.6130 S.3    12  MET12      -0.1393
     28  CE        -4.4980   32.0410   -5.1150 C.3    12  MET12       0.0692
     29  N         -7.4790   33.0300  -11.5080 N.3    15  LEU15      -0.1231
     30  CA        -7.9210   34.1770  -10.7250 C.3    15  LEU15       0.1693
     31  C         -6.9460   35.3320  -10.8530 C.2    15  LEU15       0.2591
     32  O         -7.3590   36.4880  -10.9570 O.2    15  LEU15      -0.2718
     33  CB        -8.0730   33.8000   -9.2560 C.3    15  LEU15       0.0284
     34  CG        -9.3090   33.0110   -8.8590 C.3    15  LEU15       0.0019
     35  CD1       -9.1830   32.5070   -7.4320 C.3    15  LEU15       0.0001
     36  CD2      -10.5380   33.8790   -9.0170 C.3    15  LEU15       0.0001
     37  N         -5.6430   35.0320  -10.8260 N.am   16  GLN16      -0.1979
     38  CA        -4.6370   36.0940  -10.8860 C.3    16  GLN16       0.1601
     39  C         -4.5770   36.7380  -12.2610 C.2    16  GLN16       0.2287
     40  O         -4.1810   37.8920  -12.3700 O.2    16  GLN16      -0.2864
     41  CB        -3.2790   35.5430  -10.4930 C.3    16  GLN16       0.0394
     42  CG        -3.2660   35.0810   -9.0000 C.3    16  GLN16       0.0908
     43  CD        -1.8740   34.9260   -8.4370 C.2    16  GLN16       0.2608
     44  OE1       -0.9640   34.4260   -9.1080 O.2    16  GLN16      -0.2717
     45  NE2       -1.6970   35.3580   -7.1900 N.am   16  GLN16      -0.0878
     46  N         -7.8430   39.2220  -11.8670 N.3    19  LEU19      -0.1245
     47  CA        -7.9680   40.1710  -10.7690 C.3    19  LEU19       0.1561
     48  C         -6.5940   40.6920  -10.3650 C.2    19  LEU19       0.2260
     49  O         -5.6520   39.9060  -10.2010 O.2    19  LEU19      -0.2867
     50  CB        -8.6340   39.5000   -9.5720 C.3    19  LEU19       0.0270
     51  CG       -10.0670   39.0330   -9.7230 C.3    19  LEU19       0.0019
     52  CD1      -10.4340   38.1310   -8.5600 C.3    19  LEU19       0.0001
     53  CD2      -10.9330   40.2600   -9.7410 C.3    19  LEU19       0.0001
     54  N         -3.9170   42.2590   -7.6980 N.3    21  PRO21      -0.2116
     55  CA        -3.6710   41.6140   -6.3880 C.3    21  PRO21       0.1372
     56  C         -4.5360   42.1310   -5.2410 C.2    21  PRO21       0.2244
     57  O         -4.9760   41.3140   -4.4310 O.2    21  PRO21      -0.2868
     58  CB        -2.1590   41.8490   -6.1440 C.3    21  PRO21       0.0268
     59  CG        -1.7150   42.8810   -7.1340 C.3    21  PRO21       0.0207
     60  CD        -2.6610   42.7060   -8.3420 C.3    21  PRO21       0.0892
     61  N         -8.0030   40.5900   -5.5990 N.3    24  ALA24      -0.1231
     62  CA        -7.9200   39.1710   -5.2920 C.3    24  ALA24       0.1694
     63  C         -7.8570   38.9630   -3.7760 C.2    24  ALA24       0.2592
     64  O         -8.5090   38.0670   -3.2390 O.2    24  ALA24      -0.2718
     65  CB        -6.6870   38.5480   -5.9660 C.3    24  ALA24       0.0304
     66  N         -7.0580   39.7890   -3.0910 N.am   25  HIS25      -0.1976
     67  CA        -6.9210   39.6930   -1.6330 C.3    25  HIS25       0.1656
     68  C         -8.2580   39.9530   -0.9360 C.2    25  HIS25       0.2291
     69  O         -8.6610   39.2080   -0.0410 O.2    25  HIS25      -0.2864
     70  CB        -5.8640   40.6890   -1.1510 C.3    25  HIS25       0.0771
     71  CG        -5.8910   40.9310    0.3350 C.ar   25  HIS25       0.0820
     72  ND1       -5.4540   40.0050    1.2550 N.ar   25  HIS25      -0.2267
     73  CD2       -6.3690   41.9730    1.0530 C.ar   25  HIS25       0.1154
     74  CE1       -5.6130   40.4850    2.4770 C.ar   25  HIS25       0.1986
     75  NE2       -6.1600   41.6840    2.3790 N.ar   25  HIS25      -0.2212
     76  N        -11.2570   39.5530   -2.1710 N.3    27  LEU27      -0.1231
     77  CA       -12.0530   38.3620   -2.4350 C.3    27  LEU27       0.1693
     78  C        -11.6500   37.2310   -1.5070 C.2    27  LEU27       0.2591
     79  O        -12.5020   36.5740   -0.9080 O.2    27  LEU27      -0.2718
     80  CB       -11.8680   37.9250   -3.8850 C.3    27  LEU27       0.0284
     81  CG       -12.8530   36.8810   -4.3790 C.3    27  LEU27       0.0019
     82  CD1      -14.2460   37.4820   -4.2370 C.3    27  LEU27       0.0001
     83  CD2      -12.5860   36.5520   -5.8490 C.3    27  LEU27       0.0001
     84  N        -10.3400   36.9970   -1.3640 N.am   28  ALA28      -0.1980
     85  CA        -9.8820   35.9250   -0.4870 C.3    28  ALA28       0.1597
     86  C        -10.3780   36.1320    0.9480 C.2    28  ALA28       0.2287
     87  O        -10.8400   35.1850    1.5960 O.2    28  ALA28      -0.2864
     88  CB        -8.3520   35.8470   -0.5000 C.3    28  ALA28       0.0319
     89  N        -14.2190   35.2990    1.0160 N.3    31  PHE31      -0.1227
     90  CA       -14.4440   33.8470    0.9960 C.3    31  PHE31       0.1736
     91  C        -13.9960   33.1840    2.2900 C.2    31  PHE31       0.2596
     92  O        -14.6800   32.2940    2.8150 O.2    31  PHE31      -0.2718
     93  CB       -13.7080   33.2010   -0.1780 C.3    31  PHE31       0.0547
     94  CG       -14.5160   33.1600   -1.4280 C.ar   31  PHE31      -0.0202
     95  CD1      -14.8450   34.3190   -2.0870 C.ar   31  PHE31      -0.0042
     96  CD2      -15.0050   31.9630   -1.9130 C.ar   31  PHE31      -0.0042
     97  CE1      -15.6010   34.2940   -3.2320 C.ar   31  PHE31      -0.0003
     98  CE2      -15.7710   31.9290   -3.0490 C.ar   31  PHE31      -0.0003
     99  CZ       -16.0660   33.1030   -3.7100 C.ar   31  PHE31      -0.0000
    100  N        -12.8200   33.5650    2.7980 N.am   32  THR32      -0.1953
    101  CA       -12.3420   32.9500    4.0300 C.3    32  THR32       0.1897
    102  C        -13.2750   33.2770    5.1920 C.2    32  THR32       0.2313
    103  O        -13.6510   32.3810    5.9510 O.2    32  THR32      -0.2863
    104  CB       -10.8870   33.3800    4.3300 C.3    32  THR32       0.1794
    105  OG1      -10.0430   32.9390    3.2720 O.3    32  THR32      -0.2208
    106  CG2      -10.4000   32.7080    5.6260 C.3    32  THR32       0.0378
    107  N        -15.8900   29.5180    3.0040 N.3    36  LEU36      -0.1231
    108  CA       -15.9760   28.9110    1.6690 C.3    36  LEU36       0.1693
    109  C        -14.5920   28.4520    1.2390 C.2    36  LEU36       0.2592
    110  O        -13.8510   29.1750    0.5670 O.2    36  LEU36      -0.2718
    111  CB       -16.5540   29.8940    0.6710 C.3    36  LEU36       0.0284
    112  CG       -17.9400   30.4290    1.0480 C.3    36  LEU36       0.0019
    113  CD1      -18.3630   31.5150    0.0850 C.3    36  LEU36       0.0001
    114  CD2      -18.9580   29.2940    1.0630 C.3    36  LEU36       0.0001
    115  N        -14.2330   27.2420    1.6420 N.am   37  LEU37      -0.1966
    116  CA       -12.8580   26.7730    1.5440 C.3    37  LEU37       0.1713
    117  C        -12.8350   25.3350    1.0560 C.2    37  LEU37       0.2458
    118  O        -13.7790   24.5820    1.3070 O.2    37  LEU37      -0.2730
    119  CB       -12.1440   26.8620    2.9030 C.3    37  LEU37       0.0310
    120  CG       -12.0980   28.2650    3.5290 C.3    37  LEU37       0.0022
    121  CD1      -11.7140   28.2250    4.9820 C.3    37  LEU37       0.0001
    122  CD2      -11.1310   29.1590    2.7820 C.3    37  LEU37       0.0001
    123  N        -11.7610   24.9180    0.3720 N.am   38  PRO38      -0.2727
    124  CA       -11.6420   23.5190   -0.0610 C.3    38  PRO38       0.1402
    125  C        -11.5120   22.5140    1.0940 C.2    38  PRO38       0.2269
    126  O        -11.2080   22.9620    2.1950 O.2    38  PRO38      -0.2865
    127  CB       -10.3710   23.5310   -0.9270 C.3    38  PRO38       0.0296
    128  CG        -9.5880   24.7240   -0.4710 C.3    38  PRO38       0.0237
    129  CD       -10.6510   25.7480   -0.1360 C.3    38  PRO38       0.0939
    130  N         -2.6120   39.6120    6.2620 N.3    64  PHE64      -0.1241
    131  CA        -3.6620   38.9820    5.4740 C.3    64  PHE64       0.1605
    132  C         -5.0220   39.3660    6.0400 C.2    64  PHE64       0.2264
    133  O         -5.9140   39.8020    5.3050 O.2    64  PHE64      -0.2867
    134  CB        -3.5070   37.4560    5.4330 C.3    64  PHE64       0.0534
    135  CG        -4.6230   36.8130    4.6620 C.ar   64  PHE64      -0.0203
    136  CD1       -4.6180   36.8440    3.2870 C.ar   64  PHE64      -0.0042
    137  CD2       -5.7390   36.3160    5.3090 C.ar   64  PHE64      -0.0042
    138  CE1       -5.6720   36.3450    2.5740 C.ar   64  PHE64      -0.0003
    139  CE2       -6.7950   35.8140    4.5810 C.ar   64  PHE64      -0.0003
    140  CZ        -6.7440   35.8180    3.2270 C.ar   64  PHE64      -0.0000
    141  N         -8.9930   26.8710    7.6740 N.3    77  MET77      -0.1245
    142  CA        -7.9900   26.5780    6.6460 C.3    77  MET77       0.1570
    143  C         -6.8770   25.6690    7.1540 C.2    77  MET77       0.2261
    144  O         -6.1580   25.0590    6.3450 O.2    77  MET77      -0.2867
    145  CB        -7.4120   27.9020    6.1180 C.3    77  MET77       0.0387
    146  CG        -6.9980   27.8840    4.6710 C.3    77  MET77       0.0595
    147  SD        -6.3860   29.4970    4.1160 S.3    77  MET77      -0.1393
    148  CE        -7.8330   30.4890    3.8460 C.3    77  MET77       0.0692
    149  N          0.0300   47.2040   -4.2540 N.3   100  VAL100     -0.1245
    150  CA         0.5830   45.8510   -4.1330 C.3   100  VAL100      0.1561
    151  C          0.7610   45.3190   -5.5600 C.2   100  VAL100      0.2260
    152  O          0.0200   45.7000   -6.4790 O.2   100  VAL100     -0.2867
    153  CB        -0.3210   44.9400   -3.2530 C.3   100  VAL100      0.0252
    154  CG1       -1.7890   44.8530   -3.8180 C.3   100  VAL100      0.0019
    155  CG2        0.2660   43.5100   -3.0570 C.3   100  VAL100      0.0019
    156  N          2.3580   41.8540   -7.9950 N.3   102  ARG102     -0.1245
    157  CA         2.8740   40.4910   -8.0620 C.3   102  ARG102      0.1563
    158  C          4.1430   40.4630   -8.9040 C.2   102  ARG102      0.2260
    159  O          4.2790   41.2120   -9.8790 O.2   102  ARG102     -0.2867
    160  CB         1.8610   39.5210   -8.6700 C.3   102  ARG102      0.0307
    161  CG         0.5020   39.5740   -8.0160 C.3   102  ARG102      0.0489
    162  CD        -0.3650   38.4680   -8.6350 C.3   102  ARG102      0.2205
    163  NE        -1.7060   38.3990   -8.0770 N.pl3 102  ARG102     -0.0865
    164  CZ        -2.8110   38.7440   -8.7230 C.cat 102  ARG102      0.5346
    165  NH1       -2.7360   39.2100   -9.9580 N.pl3 102  ARG102      0.1354
    166  NH2       -3.9930   38.5750   -8.1560 N.pl3 102  ARG102      0.1354
    167  N          6.0240   39.0360   -3.9690 N.3   109  VAL109     -0.1245
    168  CA         5.0980   40.1640   -3.9770 C.3   109  VAL109      0.1561
    169  C          5.8470   41.3800   -3.4510 C.2   109  VAL109      0.2260
    170  O          6.7440   41.2530   -2.6010 O.2   109  VAL109     -0.2867
    171  CB         3.8280   39.8350   -3.1390 C.3   109  VAL109      0.0252
    172  CG1        2.9430   41.0920   -2.8030 C.3   109  VAL109      0.0019
    173  CG2        2.9930   38.7550   -3.8530 C.3   109  VAL109      0.0019
    174  N          2.4850   34.0130    4.3790 N.3   312  TYR312     -0.1241
    175  CA         1.4310   34.7740    3.7260 C.3   312  TYR312      0.1605
    176  C          1.5790   34.6240    2.2010 C.2   312  TYR312      0.2264
    177  O          0.6840   34.1100    1.5550 O.2   312  TYR312     -0.2867
    178  CB         1.5120   36.2120    4.2160 C.3   312  TYR312      0.0534
    179  CG         0.5070   37.2030    3.7020 C.ar  312  TYR312     -0.0201
    180  CD1       -0.3620   36.8960    2.6520 C.ar  312  TYR312     -0.0009
    181  CD2        0.4910   38.4970    4.2280 C.ar  312  TYR312     -0.0009
    182  CE1       -1.2590   37.8860    2.1520 C.ar  312  TYR312      0.0417
    183  CE2       -0.3920   39.4750    3.7720 C.ar  312  TYR312      0.0417
    184  CZ        -1.2540   39.1550    2.7240 C.ar  312  TYR312      0.1957
    185  OH        -2.1350   40.0900    2.2640 O.3   312  TYR312     -0.2866
    186  N          0.3260   31.6170    0.2730 N.3   315  LEU315     -0.1231
    187  CA        -1.1290   31.5070    0.1280 C.3   315  LEU315      0.1693
    188  C         -1.6190   32.2690   -1.1010 C.2   315  LEU315      0.2592
    189  O         -2.5050   31.7910   -1.8350 O.2   315  LEU315     -0.2718
    190  CB        -1.8240   32.0460    1.3930 C.3   315  LEU315      0.0284
    191  CG        -3.3390   32.0100    1.4310 C.3   315  LEU315      0.0019
    192  CD1       -3.8930   30.5450    1.3520 C.3   315  LEU315      0.0001
    193  CD2       -3.8100   32.6800    2.7530 C.3   315  LEU315      0.0001
    194  N         -1.0200   33.4380   -1.3640 N.am  316  THR316     -0.1953
    195  CA        -1.4410   34.2360   -2.5000 C.3   316  THR316      0.1897
    196  C         -1.1320   33.5560   -3.8220 C.2   316  THR316      0.2313
    197  O         -1.8230   33.8190   -4.8040 O.2   316  THR316     -0.2863
    198  CB        -0.8340   35.6420   -2.5000 C.3   316  THR316      0.1794
    199  OG1        0.5410   35.6220   -2.8860 O.3   316  THR316     -0.2208
    200  CG2       -1.0480   36.3570   -1.1230 C.3   316  THR316      0.0378
    201  N         -5.4480   28.1130   -0.5960 N.3   320  PRO320     -0.2116
    202  CA        -5.6500   27.4590    0.7120 C.3   320  PRO320      0.1372
    203  C         -5.0010   26.0870    0.8490 C.2   320  PRO320      0.2244
    204  O         -4.5810   25.7330    1.9570 O.2   320  PRO320     -0.2868
    205  CB        -7.1920   27.3760    0.8120 C.3   320  PRO320      0.0268
    206  CG        -7.6180   28.6460    0.1250 C.3   320  PRO320      0.0207
    207  CD        -6.6920   28.7590   -1.0740 C.3   320  PRO320      0.0892
@<TRIPOS>BOND
     1    40    39    2
     2    39    38    1
     3    46    47    1
     4    29    30    1
     5    32    31    2
     6    38    37    1
     7    38    41    1
     8    31    37   am
     9    31    30    1
    10    13    14    1
    11    47    48    1
    12    47    50    1
    13    30    33    1
    14    41    42    1
    15    48    49    2
    16    16    15    2
    17    14    15    1
    18    14    17    1
    19    24    23    2
    20    23    22    1
    21   165   164    1
    22    15    21   am
    23   159   158    2
    24    53    51    1
    25    51    50    1
    26    51    52    1
    27    19    18    1
    28    33    34    1
    29    21    22    1
    30    44    43    2
    31    17    18    1
    32    36    34    1
    33    42    43    1
    34   158   157    1
    35    34    35    1
    36    22    25    1
    37   164   166    1
    38   164   163    2
    39   160   157    1
    40   160   161    1
    41   162   163    1
    42   162   161    1
    43    43    45   am
    44     4     3    2
    45    18    20    1
    46    60    54    1
    47    60    59    1
    48   157   156    1
    49    25    26    1
    50     3     2    1
    51    54    55    1
    52     1     2    1
    53    59    58    1
    54     2     5    1
    55   152   151    2
    56    26    27    1
    57    55    58    1
    58    55    56    1
    59    65    62    1
    60    83    81    1
    61    27    28    1
    62    61    62    1
    63     5     6    1
    64   151   150    1
    65    62    63    1
    66    56    57    2
    67     6     7   ar
    68     6     8   ar
    69     7     9   ar
    70   197   196    2
    71     8    10   ar
    72     9    11   ar
    73    81    82    1
    74    81    80    1
    75   149   150    1
    76    10    11   ar
    77   150   153    1
    78    11    12    1
    79   168   167    1
    80   168   169    1
    81   168   171    1
    82    80    77    1
    83   173   171    1
    84   196   195    1
    85   154   153    1
    86    63    64    2
    87    63    66   am
    88    99    97   ar
    89    99    98   ar
    90   169   170    2
    91   153   155    1
    92    97    95   ar
    93   171   172    1
    94    66    67    1
    95    98    96   ar
    96   199   198    1
    97   195   198    1
    98   195   194    1
    99   198   200    1
   100    77    76    1
   101    77    78    1
   102    95    94   ar
   103    96    94   ar
   104   189   188    2
   105    67    70    1
   106    67    68    1
   107    78    84   am
   108    78    79    2
   109    94    93    1
   110    84    85    1
   111   194   188   am
   112    70    71    1
   113   188   187    1
   114   207   201    1
   115   207   206    1
   116    68    69    2
   117   127   128    1
   118   127   124    1
   119   201   202    1
   120    88    85    1
   121    85    86    1
   122   128   129    1
   123    93    90    1
   124   129   123    1
   125   124   123    1
   126   124   125    1
   127   113   112    1
   128   206   205    1
   129   187   186    1
   130   187   190    1
   131    71    73   ar
   132    71    72   ar
   133   123   117   am
   134   110   109    2
   135   111   112    1
   136   111   108    1
   137   202   205    1
   138   202   203    1
   139   203   204    2
   140    86    87    2
   141    90    89    1
   142    90    91    1
   143   112   114    1
   144    73    75   ar
   145   117   118    2
   146   117   116    1
   147   125   126    2
   148   109   115   am
   149   109   108    1
   150    72    74   ar
   151   192   191    1
   152   190   191    1
   153   191   193    1
   154   116   115    1
   155   116   119    1
   156   177   176    2
   157   108   107    1
   158   182   180   ar
   159   182   184   ar
   160   176   175    1
   161   185   184    1
   162    91   100   am
   163    91    92    2
   164    75    74   ar
   165   138   140   ar
   166   138   136   ar
   167   180   179   ar
   168   184   183   ar
   169   122   120    1
   170   100   101    1
   171   119   120    1
   172   140   139   ar
   173   105   104    1
   174   136   135   ar
   175   120   121    1
   176   179   178    1
   177   179   181   ar
   178   175   178    1
   179   175   174    1
   180   183   181   ar
   181   148   147    1
   182   101   104    1
   183   101   102    1
   184   147   146    1
   185   104   106    1
   186   139   137   ar
   187   135   137   ar
   188   135   134    1
   189   146   145    1
   190   102   103    2
   191   133   132    2
   192   134   131    1
   193   131   132    1
   194   131   130    1
   195   145   142    1
   196   144   143    2
   197   142   143    1
   198   142   141    1
