@<TRIPOS>MOLECULE
tmp/5mvdA02.pdb
 219 210 0 0 0
SMALL
GASTEIGER

@<TRIPOS>ATOM
      1  N         27.3510   95.7740   27.9640 N.3     5  TYR5       -0.1241
      2  CA        26.0570   96.2960   27.5220 C.3     5  TYR5        0.1605
      3  C         24.9190   95.5220   28.1530 C.2     5  TYR5        0.2264
      4  O         23.9820   96.1050   28.7130 O.2     5  TYR5       -0.2867
      5  CB        25.9640   96.2510   25.9830 C.3     5  TYR5        0.0534
      6  CG        26.5570   97.5080   25.3510 C.ar    5  TYR5       -0.0201
      7  CD1       27.9350   97.6770   25.2510 C.ar    5  TYR5       -0.0009
      8  CD2       25.7320   98.5570   24.9320 C.ar    5  TYR5       -0.0009
      9  CE1       28.4770   98.8320   24.7010 C.ar    5  TYR5        0.0417
     10  CE2       26.2590   99.7070   24.4010 C.ar    5  TYR5        0.0417
     11  CZ        27.6320   99.8480   24.2840 C.ar    5  TYR5        0.1957
     12  OH        28.1470  101.0160   23.7370 O.3     5  TYR5       -0.2866
     13  N         25.3160   98.5550   31.0720 N.3     9  LEU9       -0.1231
     14  CA        24.8550   99.7520   30.3760 C.3     9  LEU9        0.1693
     15  C         23.3530   99.7140   30.0930 C.2     9  LEU9        0.2591
     16  O         22.6160  100.6430   30.4490 O.2     9  LEU9       -0.2718
     17  CB        25.6560   99.9240   29.0920 C.3     9  LEU9        0.0284
     18  CG        25.3830  101.1550   28.2580 C.3     9  LEU9        0.0019
     19  CD1       25.0920  102.3540   29.1180 C.3     9  LEU9        0.0001
     20  CD2       26.6170  101.3680   27.4540 C.3     9  LEU9        0.0001
     21  N         22.8840   98.6590   29.4220 N.am   10  MET10      -0.1979
     22  CA        21.4740   98.6140   29.0290 C.3    10  MET10       0.1605
     23  C         20.5240   98.5750   30.2260 C.2    10  MET10       0.2287
     24  O         19.5820   99.3810   30.2490 O.2    10  MET10      -0.2864
     25  CB        21.2220   97.4420   28.0690 C.3    10  MET10       0.0413
     26  CG        21.9730   97.5600   26.7310 C.3    10  MET10       0.0598
     27  SD        21.7130   99.1380   25.8590 S.3    10  MET10      -0.1393
     28  CE        19.9970   98.9740   25.3700 C.3    10  MET10       0.0692
     29  N         20.4100  102.0920   31.5960 N.3    13  LEU13      -0.1231
     30  CA        19.5800  102.9480   30.7510 C.3    13  LEU13       0.1693
     31  C         18.1060  102.6100   30.9180 C.2    13  LEU13       0.2591
     32  O         17.2630  103.5060   30.9280 O.2    13  LEU13      -0.2718
     33  CB        19.9900  102.8150   29.2850 C.3    13  LEU13       0.0284
     34  CG        20.9670  103.8630   28.7330 C.3    13  LEU13       0.0019
     35  CD1       21.8800  104.4510   29.8230 C.3    13  LEU13       0.0001
     36  CD2       21.8020  103.3020   27.5670 C.3    13  LEU13       0.0001
     37  N         17.7880  101.3100   31.0370 N.am   14  GLN14      -0.1979
     38  CA        16.4160  100.8530   31.2660 C.3    14  GLN14       0.1601
     39  C         15.8740  101.3980   32.5820 C.2    14  GLN14       0.2287
     40  O         14.6870  101.7090   32.6880 O.2    14  GLN14      -0.2864
     41  CB        16.3650   99.3140   31.2770 C.3    14  GLN14       0.0394
     42  CG        15.9670   98.6240   29.9500 C.3    14  GLN14       0.0908
     43  CD        15.9240   97.0710   30.0360 C.2    14  GLN14       0.2608
     44  OE1       16.8550   96.3980   29.5830 O.2    14  GLN14      -0.2717
     45  NE2       14.8510   96.5140   30.6280 N.am   14  GLN14      -0.0878
     46  N         15.2110  105.5970   32.1820 N.3    17  LEU17      -0.1245
     47  CA        14.3790  106.1910   31.1470 C.3    17  LEU17       0.1561
     48  C         13.2050  105.2910   30.8160 C.2    17  LEU17       0.2260
     49  O         13.3540  104.0740   30.7080 O.2    17  LEU17      -0.2867
     50  CB        15.1930  106.4250   29.8840 C.3    17  LEU17       0.0270
     51  CG        16.3440  107.4210   29.9830 C.3    17  LEU17       0.0019
     52  CD1       17.2860  107.2770   28.8170 C.3    17  LEU17       0.0001
     53  CD2       15.7370  108.7900   29.9770 C.3    17  LEU17       0.0001
     54  N         10.7020  103.6040   28.1530 N.3    19  PRO19      -0.2116
     55  CA        11.1370  102.9740   26.8900 C.3    19  PRO19       0.1372
     56  C         11.1430  103.9100   25.6790 C.2    19  PRO19       0.2244
     57  O         12.0780  103.8410   24.8830 O.2    19  PRO19      -0.2868
     58  CB        10.1340  101.8280   26.6970 C.3    19  PRO19       0.0268
     59  CG         9.4490  101.6770   27.9840 C.3    19  PRO19       0.0207
     60  CD         9.4930  102.9780   28.7090 C.3    19  PRO19       0.0892
     61  N         14.1210  106.1880   25.8980 N.3    22  ALA22      -0.1231
     62  CA        15.3380  105.4480   25.6240 C.3    22  ALA22       0.1694
     63  C         15.4920  105.2100   24.1200 C.2    22  ALA22       0.2592
     64  O         16.5910  105.3200   23.5730 O.2    22  ALA22      -0.2718
     65  CB        15.3420  104.1270   26.3940 C.3    22  ALA22       0.0304
     66  N         14.3870  104.9270   23.4380 N.am   23  HIS23      -0.1976
     67  CA        14.4610  104.6790   22.0030 C.3    23  HIS23       0.1656
     68  C         14.9280  105.9270   21.2460 C.2    23  HIS23       0.2291
     69  O         15.8240  105.8490   20.4010 O.2    23  HIS23      -0.2864
     70  CB        13.1060  104.2280   21.4730 C.3    23  HIS23       0.0771
     71  CG        13.0720  104.1690   19.9740 C.ar   23  HIS23       0.0820
     72  ND1       12.3660  105.0710   19.2040 N.ar   23  HIS23      -0.2267
     73  CD2       13.7440  103.3860   19.1110 C.ar   23  HIS23       0.1154
     74  CE1       12.5460  104.7850   17.9230 C.ar   23  HIS23       0.1986
     75  NE2       13.3770  103.7640   17.8450 N.ar   23  HIS23      -0.2212
     76  N         16.6830  108.3970   22.3970 N.3    25  LEU25      -0.1231
     77  CA        18.0880  108.5960   22.6870 C.3    25  LEU25       0.1693
     78  C         18.9520  107.6380   21.8710 C.2    25  LEU25       0.2591
     79  O         19.9750  108.0380   21.3130 O.2    25  LEU25      -0.2718
     80  CB        18.3240  108.4150   24.1870 C.3    25  LEU25       0.0284
     81  CG        19.7030  108.8220   24.7180 C.3    25  LEU25       0.0019
     82  CD1       19.9450  110.3650   24.5850 C.3    25  LEU25       0.0001
     83  CD2       19.9010  108.3180   26.1720 C.3    25  LEU25       0.0001
     84  N         18.5310  106.3710   21.7660 N.am   26  ALA26      -0.1980
     85  CA        19.2260  105.4130   20.9120 C.3    26  ALA26       0.1597
     86  C         19.2810  105.8880   19.4600 C.2    26  ALA26       0.2287
     87  O         20.3220  105.7690   18.8220 O.2    26  ALA26      -0.2864
     88  CB        18.5600  104.0310   20.9950 C.3    26  ALA26       0.0319
     89  N         21.9480  108.7910   19.3280 N.3    29  PHE29      -0.1227
     90  CA        23.3290  108.3040   19.3870 C.3    29  PHE29       0.1736
     91  C         23.7240  107.5760   18.1160 C.2    29  PHE29       0.2596
     92  O         24.8580  107.7150   17.6350 O.2    29  PHE29      -0.2718
     93  CB        23.5370  107.3490   20.5570 C.3    29  PHE29       0.0547
     94  CG        23.8650  108.0270   21.8310 C.ar   29  PHE29      -0.0202
     95  CD1       22.8970  108.7090   22.5290 C.ar   29  PHE29      -0.0042
     96  CD2       25.1500  107.9890   22.3430 C.ar   29  PHE29      -0.0042
     97  CE1       23.2030  109.3500   23.7570 C.ar   29  PHE29      -0.0003
     98  CE2       25.4590  108.6350   23.5380 C.ar   29  PHE29      -0.0003
     99  CZ        24.4670  109.3110   24.2490 C.ar   29  PHE29      -0.0000
    100  N         22.8190  106.7360   17.6040 N.am   30  THR30      -0.1953
    101  CA        23.1140  105.9620   16.4000 C.3    30  THR30       0.1897
    102  C         23.3220  106.8960   15.2260 C.2    30  THR30       0.2313
    103  O         24.2890  106.7550   14.4860 O.2    30  THR30      -0.2863
    104  CB        21.9850  104.9600   16.1210 C.3    30  THR30       0.1794
    105  OG1       21.8610  104.0880   17.2300 O.3    30  THR30      -0.2208
    106  CG2       22.2480  104.1300   14.8710 C.3    30  THR30       0.0378
    107  N         27.8130  107.4160   17.4530 N.3    34  LEU34      -0.1231
    108  CA        28.3950  107.1500   18.7730 C.3    34  LEU34       0.1693
    109  C         28.1550  105.6940   19.1470 C.2    34  LEU34       0.2592
    110  O         27.1870  105.3650   19.8390 O.2    34  LEU34      -0.2718
    111  CB        27.7910  108.0790   19.8150 C.3    34  LEU34       0.0284
    112  CG        27.8830  109.5670   19.4730 C.3    34  LEU34       0.0019
    113  CD1       26.9620  110.3680   20.3760 C.3    34  LEU34       0.0001
    114  CD2       29.3180  110.0410   19.6120 C.3    34  LEU34       0.0001
    115  N         29.0430  104.8070   18.7070 N.am   35  LEU35      -0.1966
    116  CA        28.7400  103.3870   18.7730 C.3    35  LEU35       0.1713
    117  C         29.9770  102.5660   19.1060 C.2    35  LEU35       0.2458
    118  O         31.0650  102.8370   18.5740 O.2    35  LEU35      -0.2730
    119  CB        28.1580  102.8770   17.4330 C.3    35  LEU35       0.0310
    120  CG        26.8990  103.5340   16.8500 C.3    35  LEU35       0.0022
    121  CD1       26.7030  103.2730   15.3560 C.3    35  LEU35       0.0001
    122  CD2       25.7120  103.0420   17.6440 C.3    35  LEU35       0.0001
    123  N         29.8220  101.5080   19.9250 N.am   36  PRO36      -0.2727
    124  CA        30.9010  100.5500   20.1760 C.3    36  PRO36       0.1402
    125  C         31.2950   99.8310   18.8840 C.2    36  PRO36       0.2269
    126  O         32.2650  100.2430   18.2550 O.2    36  PRO36      -0.2865
    127  CB        30.2750   99.5810   21.1870 C.3    36  PRO36       0.0296
    128  CG        28.8180   99.5770   20.8150 C.3    36  PRO36       0.0237
    129  CD        28.5290  101.0180   20.4470 C.3    36  PRO36       0.0939
    130  N         12.5160  100.6820   14.2180 N.3    60  PHE60      -0.1241
    131  CA        13.5630  101.3230   15.0030 C.3    60  PHE60       0.1605
    132  C         13.8640  102.7070   14.4490 C.2    60  PHE60       0.2264
    133  O         13.9240  103.6950   15.2070 O.2    60  PHE60      -0.2867
    134  CB        14.8300  100.4810   15.0550 C.3    60  PHE60       0.0534
    135  CG        15.9480  101.1510   15.7720 C.ar   60  PHE60      -0.0203
    136  CD1       15.9850  101.1820   17.1780 C.ar   60  PHE60      -0.0042
    137  CD2       16.9090  101.8260   15.0870 C.ar   60  PHE60      -0.0042
    138  CE1       16.9650  101.8340   17.8310 C.ar   60  PHE60      -0.0003
    139  CE2       17.9290  102.5100   15.7650 C.ar   60  PHE60      -0.0003
    140  CZ        17.9370  102.4990   17.1460 C.ar   60  PHE60      -0.0000
    141  N         26.7260   99.9860   12.7420 N.3    73  MET73      -0.1245
    142  CA        26.4780   98.9710   13.7670 C.3    73  MET73       0.1570
    143  C         26.7290   97.5600   13.2700 C.2    73  MET73       0.2261
    144  O         26.9060   96.6570   14.0900 O.2    73  MET73      -0.2867
    145  CB        25.0300   99.0900   14.2630 C.3    73  MET73       0.0387
    146  CG        24.8240   98.8020   15.7260 C.3    73  MET73       0.0595
    147  SD        23.1350   99.1540   16.2530 S.3    73  MET73      -0.1393
    148  CE        23.0580  100.8760   16.6300 C.3    73  MET73       0.0692
    149  N          4.4910  102.2300   24.6610 N.3    96  VAL96      -0.1245
    150  CA         5.4130  101.1210   24.5230 C.3    96  VAL96       0.1561
    151  C          5.8720  100.7000   25.9200 C.2    96  VAL96       0.2260
    152  O          5.9640  101.5160   26.8430 O.2    96  VAL96      -0.2867
    153  CB         6.6040  101.4660   23.5670 C.3    96  VAL96       0.0252
    154  CG1        7.3920  102.6750   24.0360 C.3    96  VAL96       0.0019
    155  CG2        7.5480  100.2510   23.3650 C.3    96  VAL96       0.0019
    156  N          8.0980   97.5810   28.3250 N.3    98  ARG98      -0.1245
    157  CA         9.0990   96.5340   28.4390 C.3    98  ARG98       0.1563
    158  C          8.5550   95.4050   29.3130 C.2    98  ARG98       0.2260
    159  O          7.9000   95.6590   30.3220 O.2    98  ARG98      -0.2867
    160  CB        10.3790   97.0660   29.0560 C.3    98  ARG98       0.0307
    161  CG        11.0940   98.0970   28.2620 C.3    98  ARG98       0.0489
    162  CD        12.3730   98.3340   29.0300 C.3    98  ARG98       0.2205
    163  NE        13.2090   99.3890   28.5200 N.pl3  98  ARG98      -0.0865
    164  CZ        13.3620  100.6090   29.0440 C.cat  98  ARG98       0.5346
    165  NH1       12.7010  101.0190   30.1250 N.pl3  98  ARG98       0.1354
    166  NH2       14.2160  101.4230   28.4480 N.pl3  98  ARG98       0.1354
    167  N          8.7390   93.0360   24.3400 N.3   105  VAL105     -0.1245
    168  CA         8.1960   94.3960   24.3300 C.3   105  VAL105      0.1561
    169  C          6.7650   94.3300   23.8450 C.2   105  VAL105      0.2260
    170  O          6.4050   93.4760   23.0170 O.2   105  VAL105     -0.2867
    171  CB         9.0810   95.3560   23.4440 C.3   105  VAL105      0.0252
    172  CG1        8.3960   96.7370   23.1600 C.3   105  VAL105      0.0019
    173  CG2       10.4500   95.5400   24.0900 C.3   105  VAL105      0.0019
    174  N          2.5080  102.1490   19.0880 N.3   109  TYR109     -0.1241
    175  CA         2.8450  103.4830   18.5640 C.3   109  TYR109      0.1605
    176  C          1.7480  104.0320   17.6660 C.2   109  TYR109      0.2264
    177  O          1.4160  105.2110   17.7570 O.2   109  TYR109     -0.2867
    178  CB         4.1650  103.4600   17.8010 C.3   109  TYR109      0.0534
    179  CG         5.3580  103.6890   18.6670 C.ar  109  TYR109     -0.0201
    180  CD1        5.7400  104.9790   19.0500 C.ar  109  TYR109     -0.0009
    181  CD2        6.1230  102.6310   19.1190 C.ar  109  TYR109     -0.0009
    182  CE1        6.8550  105.1990   19.8310 C.ar  109  TYR109      0.0417
    183  CE2        7.2240  102.8380   19.9000 C.ar  109  TYR109      0.0417
    184  CZ         7.5860  104.1290   20.2580 C.ar  109  TYR109      0.1957
    185  OH         8.6620  104.3220   21.0470 O.3   109  TYR109     -0.2866
    186  N         14.8700   93.5430   16.0420 N.3   308  TYR308     -0.1241
    187  CA        14.7640   94.8410   16.6900 C.3   308  TYR308      0.1605
    188  C         14.8200   94.6650   18.2240 C.2   308  TYR308      0.2264
    189  O         15.7340   95.1800   18.8710 O.2   308  TYR308     -0.2867
    190  CB        13.4900   95.5120   16.2220 C.3   308  TYR308      0.0534
    191  CG        13.1350   96.8900   16.8060 C.ar  308  TYR308     -0.0201
    192  CD1       13.8930   97.4750   17.8060 C.ar  308  TYR308     -0.0009
    193  CD2       12.0150   97.5850   16.3290 C.ar  308  TYR308     -0.0009
    194  CE1       13.5440   98.7210   18.3310 C.ar  308  TYR308      0.0417
    195  CE2       11.6540   98.8120   16.8470 C.ar  308  TYR308      0.0417
    196  CZ        12.4200   99.3670   17.8620 C.ar  308  TYR308      0.1957
    197  OH        12.1330  100.5870   18.4070 O.3   308  TYR308     -0.2866
    198  N         17.9680   94.2390   20.2160 N.3   311  LEU311     -0.1231
    199  CA        18.8050   95.4290   20.3240 C.3   311  LEU311      0.1693
    200  C         18.4310   96.2390   21.5570 C.2   311  LEU311      0.2592
    201  O         19.3100   96.7950   22.2200 O.2   311  LEU311     -0.2718
    202  CB        18.6840   96.2540   19.0240 C.3   311  LEU311      0.0284
    203  CG        19.6050   97.4360   18.7690 C.3   311  LEU311      0.0019
    204  CD1       21.0540   96.9190   18.6980 C.3   311  LEU311      0.0001
    205  CD2       19.1620   98.1860   17.4760 C.3   311  LEU311      0.0001
    206  N         17.1320   96.2650   21.9240 N.am  312  THR312     -0.1953
    207  CA        16.7220   97.0400   23.0860 C.3   312  THR312      0.1897
    208  C         17.1390   96.4110   24.4130 C.2   312  THR312      0.2313
    209  O         17.2940   97.1380   25.3950 O.2   312  THR312     -0.2863
    210  CB        15.2110   97.2890   23.0790 C.3   312  THR312      0.1794
    211  OG1       14.5040   96.1180   23.4860 O.3   312  THR312     -0.2208
    212  CG2       14.7600   97.7220   21.6690 C.3   312  THR312      0.0378
    213  N         23.9310   97.4330   20.9840 N.3   316  PRO316     -0.2116
    214  CA        24.6070   97.2360   19.6920 C.3   316  PRO316      0.1372
    215  C         25.4480   95.9710   19.6090 C.2   316  PRO316      0.2244
    216  O         25.5450   95.3920   18.5200 O.2   316  PRO316     -0.2868
    217  CB        25.4810   98.4900   19.5700 C.3   316  PRO316      0.0268
    218  CG        24.6740   99.5330   20.3080 C.3   316  PRO316      0.0207
    219  CD        24.0320   98.8270   21.4590 C.3   316  PRO316      0.0892
@<TRIPOS>BOND
     1   141   142    1
     2   143   142    1
     3   143   144    2
     4   142   145    1
     5   130   131    1
     6   145   146    1
     7   132   131    1
     8   132   133    2
     9   103   102    2
    10   106   104    1
    11   131   134    1
    12   134   135    1
    13   137   139   ar
    14   137   135   ar
    15   102   101    1
    16   121   120    1
    17   146   147    1
    18   139   140   ar
    19   135   136   ar
    20   186   187    1
    21   104   101    1
    22   104   105    1
    23   190   187    1
    24   190   191    1
    25   147   148    1
    26   193   191   ar
    27   193   195   ar
    28   101   100    1
    29   187   188    1
    30   191   192   ar
    31   195   196   ar
    32   120   119    1
    33   120   122    1
    34   140   138   ar
    35   136   138   ar
    36   119   116    1
    37   107   108    1
    38   205   203    1
    39   100    91   am
    40    92    91    2
    41   176   177    2
    42   176   175    1
    43   178   175    1
    44   178   179    1
    45   192   194   ar
    46    75    74   ar
    47    75    73   ar
    48   196   194   ar
    49   196   197    1
    50    74    72   ar
    51    91    90    1
    52   188   189    2
    53   126   125    2
    54   216   215    2
    55   175   174    1
    56   118   117    2
    57   179   180   ar
    58   179   181   ar
    59   204   203    1
    60   115   116    1
    61   115   109   am
    62   203   202    1
    63   116   117    1
    64   108   109    1
    65   108   111    1
    66    87    86    2
    67   125   124    1
    68   202   199    1
    69   180   182   ar
    70   117   123   am
    71    73    71   ar
    72   181   183   ar
    73   109   110    2
    74    72    71   ar
    75    89    90    1
    76    90    93    1
    77    86    85    1
    78   112   114    1
    79   112   111    1
    80   112   113    1
    81   217   214    1
    82   217   218    1
    83   215   214    1
    84   214   213    1
    85   182   184   ar
    86   183   184   ar
    87   123   124    1
    88   123   129    1
    89    71    70    1
    90   124   127    1
    91   198   199    1
    92   184   185    1
    93   218   219    1
    94   199   200    1
    95    69    68    2
    96   129   128    1
    97    93    94    1
    98   128   127    1
    99    85    88    1
   100    85    84    1
   101   213   219    1
   102    68    67    1
   103    79    78    2
   104    70    67    1
   105   200   206   am
   106   200   201    2
   107   212   210    1
   108    84    78   am
   109    94    96   ar
   110    94    95   ar
   111    78    77    1
   112   206   207    1
   113    67    66    1
   114    96    98   ar
   115    76    77    1
   116    95    97   ar
   117    77    80    1
   118   170   169    2
   119   210   207    1
   120   210   211    1
   121   207   208    1
   122   172   171    1
   123   155   153    1
   124    66    63   am
   125   171   173    1
   126   171   168    1
   127    98    99   ar
   128   153   154    1
   129   153   150    1
   130    64    63    2
   131    12    11    1
   132    97    99   ar
   133   169   168    1
   134    63    62    1
   135    80    81    1
   136    11    10   ar
   137    11     9   ar
   138   168   167    1
   139    10     8   ar
   140   208   209    2
   141   150   149    1
   142   150   151    1
   143    82    81    1
   144     9     7   ar
   145    81    83    1
   146    57    56    2
   147     8     6   ar
   148     7     6   ar
   149     6     5    1
   150    28    27    1
   151    62    61    1
   152    62    65    1
   153    56    55    1
   154    27    26    1
   155   151   152    2
   156     5     2    1
   157    58    55    1
   158    58    59    1
   159    26    25    1
   160    55    54    1
   161    20    18    1
   162     2     1    1
   163     2     3    1
   164    36    34    1
   165    59    60    1
   166    25    22    1
   167     3     4    2
   168    54    60    1
   169    18    17    1
   170    18    19    1
   171   161   162    1
   172   161   160    1
   173   156   157    1
   174   157   160    1
   175   157   158    1
   176   166   164    1
   177   163   162    1
   178   163   164    2
   179    34    33    1
   180    34    35    1
   181    52    51    1
   182    22    21    1
   183    22    23    1
   184   164   165    1
   185    17    14    1
   186    33    30    1
   187   158   159    2
   188    21    15   am
   189    44    43    2
   190    50    51    1
   191    50    47    1
   192    42    43    1
   193    42    41    1
   194    53    51    1
   195    43    45   am
   196    15    14    1
   197    15    16    2
   198    23    24    2
   199    14    13    1
   200    49    48    2
   201    30    31    1
   202    30    29    1
   203    48    47    1
   204    31    32    2
   205    31    37   am
   206    37    38    1
   207    47    46    1
   208    38    41    1
   209    38    39    1
   210    39    40    2
