@<TRIPOS>MOLECULE
tmp/5mvfA00.pdb
 138 135 0 0 0
SMALL
GASTEIGER

@<TRIPOS>ATOM
      1  N         54.3870  359.6600   56.7670 N.3    51  GLN51      -0.1231
      2  CA        53.8180  359.4090   58.0790 C.3    51  GLN51       0.1698
      3  C         54.8990  358.9470   59.0520 C.2    51  GLN51       0.2592
      4  O         56.0440  358.6760   58.6810 O.2    51  GLN51      -0.2718
      5  CB        52.7010  358.3700   57.9890 C.3    51  GLN51       0.0381
      6  CG        51.3790  358.9510   57.5170 C.3    51  GLN51       0.0905
      7  CD        50.2730  357.9190   57.3460 C.2    51  GLN51       0.2608
      8  OE1       49.2100  358.2360   56.8130 O.2    51  GLN51      -0.2717
      9  NE2       50.5090  356.6880   57.8010 N.am   51  GLN51      -0.0878
     10  N         54.5120  358.8590   60.3200 N.am   52  TYR52      -0.1962
     11  CA        55.4610  358.5240   61.3690 C.3    52  TYR52       0.1771
     12  C         55.9990  357.1110   61.1690 C.2    52  TYR52       0.2620
     13  O         55.2610  356.1930   60.8010 O.2    52  TYR52      -0.2715
     14  CB        54.7870  358.6500   62.7380 C.3    52  TYR52       0.0574
     15  CG        55.7310  358.6260   63.9240 C.ar   52  TYR52      -0.0198
     16  CD1       55.2650  358.3100   65.1940 C.ar   52  TYR52      -0.0009
     17  CD2       57.0780  358.9360   63.7810 C.ar   52  TYR52      -0.0009
     18  CE1       56.1160  358.2890   66.2840 C.ar   52  TYR52       0.0417
     19  CE2       57.9360  358.9180   64.8640 C.ar   52  TYR52       0.0417
     20  CZ        57.4510  358.5940   66.1140 C.ar   52  TYR52       0.1957
     21  OH        58.3090  358.5780   67.1920 O.3    52  TYR52      -0.2866
     22  N         57.3010  356.9470   61.4000 N.am   53  SER53      -0.1936
     23  CA        57.9750  355.6530   61.3580 C.3    53  SER53       0.2055
     24  C         58.0690  355.0750   59.9510 C.2    53  SER53       0.2644
     25  O         58.3380  353.8800   59.7900 O.2    53  SER53      -0.2714
     26  CB        57.2860  354.6400   62.2790 C.3    53  SER53       0.2130
     27  OG        58.0470  353.4480   62.3750 O.3    53  SER53      -0.2179
     28  N         57.8510  355.8920   58.9190 N.am   54  THR54      -0.1936
     29  CA        57.9760  355.3980   57.5520 C.3    54  THR54       0.2028
     30  C         59.4270  355.1080   57.1890 C.2    54  THR54       0.2643
     31  O         59.6920  354.2540   56.3370 O.2    54  THR54      -0.2714
     32  CB        57.3900  356.4120   56.5700 C.3    54  THR54       0.1808
     33  OG1       56.0270  356.6890   56.9150 O.3    54  THR54      -0.2208
     34  CG2       57.4380  355.8760   55.1570 C.3    54  THR54       0.0379
     35  N         60.3660  355.8030   57.8140 N.am   55  GLY55      -0.1939
     36  CA        61.7690  355.6820   57.4970 C.3    55  GLY55       0.2014
     37  C         62.3970  356.9040   56.8450 C.2    55  GLY55       0.2639
     38  O         63.4460  356.7630   56.2020 O.2    55  GLY55      -0.2714
     39  N         61.7950  358.0870   56.9870 N.am   56  LYS56      -0.1963
     40  CA        62.3590  359.2860   56.3740 C.3    56  LYS56       0.1728
     41  C         63.7550  359.5740   56.9140 C.2    56  LYS56       0.2617
     42  O         64.6950  359.8000   56.1450 O.2    56  LYS56      -0.2715
     43  CB        61.4360  360.4840   56.6040 C.3    56  LYS56       0.0311
     44  CG        60.0720  360.3570   55.9520 C.3    56  LYS56       0.0038
     45  CD        59.2800  361.6490   56.0650 C.3    56  LYS56       0.0206
     46  CE        58.9840  361.9960   57.5130 C.3    56  LYS56       0.1093
     47  NZ        58.1110  363.1990   57.6080 N.3    56  LYS56      -0.1314
     48  N         63.9090  359.5710   58.2400 N.am   57  THR57      -0.1937
     49  CA        65.2040  359.8950   58.8310 C.3    57  THR57       0.2028
     50  C         66.2750  358.9150   58.3730 C.2    57  THR57       0.2642
     51  O         67.4210  359.3070   58.1240 O.2    57  THR57      -0.2714
     52  CB        65.1000  359.9070   60.3570 C.3    57  THR57       0.1808
     53  OG1       64.0350  360.7790   60.7550 O.3    57  THR57      -0.2208
     54  CG2       66.3970  360.4000   60.9830 C.3    57  THR57       0.0379
     55  N         65.9250  357.6340   58.2600 N.am   58  THR58      -0.1950
     56  CA        66.8630  356.6670   57.7030 C.3    58  THR58       0.1897
     57  C         67.0830  356.9200   56.2180 C.2    58  THR58       0.2313
     58  O         68.2220  356.9040   55.7390 O.2    58  THR58      -0.2863
     59  CB        66.3430  355.2510   57.9330 C.3    58  THR58       0.1794
     60  OG1       66.0400  355.0760   59.3230 O.3    58  THR58      -0.2208
     61  CG2       67.3820  354.2270   57.5120 C.3    58  THR58       0.0378
     62  N         66.7120  359.0980   65.0810 N.3    73  ILE73      -0.1245
     63  CA        65.8440  358.1930   64.3380 C.3    73  ILE73       0.1561
     64  C         64.6930  357.7090   65.2130 C.2    73  ILE73       0.2260
     65  O         64.9000  357.0080   66.2040 O.2    73  ILE73      -0.2867
     66  CB        66.6780  357.0130   63.7790 C.3    73  ILE73       0.0252
     67  CG1       67.3710  357.4340   62.4760 C.3    73  ILE73       0.0019
     68  CG2       65.8270  355.7650   63.5620 C.3    73  ILE73       0.0019
     69  CD1       68.4160  356.4430   61.9580 C.3    73  ILE73       0.0001
     70  N         63.5210  367.4440   55.7430 N.3   132  ASP132     -0.1239
     71  CA        62.6760  366.4710   56.4140 C.3   132  ASP132      0.1674
     72  C         61.4380  367.1640   56.9710 C.2   132  ASP132      0.2266
     73  O         61.4250  368.3730   57.2160 O.2   132  ASP132     -0.2867
     74  CB        63.4420  365.7800   57.5430 C.3   132  ASP132      0.1410
     75  CG        62.7840  364.4870   58.0010 C.2   132  ASP132      0.3668
     76  OD1       61.5810  364.2880   57.7320 O.co2 132  ASP132     -0.2456
     77  OD2       63.4800  363.6700   58.6410 O.co2 132  ASP132     -0.2456
     78  N         56.7160  363.5440   61.1160 N.3   135  GLY135     -0.1225
     79  CA        55.9930  362.3490   60.7330 C.3   135  GLY135      0.1811
     80  C         54.5030  362.5180   60.9580 C.2   135  GLY135      0.2280
     81  O         54.0640  362.7040   62.1110 O.2   135  GLY135     -0.2866
     82  N         58.5650  352.2420   50.7880 N.3   194  ASN194     -0.1225
     83  CA        59.7040  351.7880   51.5660 C.3   194  ASN194      0.1785
     84  C         59.3930  350.4620   52.2560 C.2   194  ASN194      0.2597
     85  O         58.2480  350.0100   52.3110 O.2   194  ASN194     -0.2718
     86  CB        60.0870  352.8530   52.5950 C.3   194  ASN194      0.1169
     87  CG        61.5070  352.7000   53.1020 C.2   194  ASN194      0.2627
     88  OD1       62.3330  352.0190   52.4920 O.2   194  ASN194     -0.2716
     89  ND2       61.8000  353.3480   54.2230 N.am  194  ASN194     -0.0877
     90  N         60.4440  349.8350   52.7850 N.am  195  LYS195     -0.1980
     91  CA        60.3150  348.5850   53.5350 C.3   195  LYS195      0.1596
     92  C         59.6590  347.4970   52.6880 C.2   195  LYS195      0.2287
     93  O         58.9070  346.6610   53.1920 O.2   195  LYS195     -0.2864
     94  CB        59.5330  348.8040   54.8320 C.3   195  LYS195      0.0298
     95  CG        60.0440  349.9560   55.6870 C.3   195  LYS195      0.0038
     96  CD        59.4240  349.9400   57.0790 C.3   195  LYS195      0.0206
     97  CE        59.7050  351.2320   57.8300 C.3   195  LYS195      0.1093
     98  NZ        59.0930  351.2380   59.1880 N.3   195  LYS195     -0.1314
     99  N         60.0890  343.7460   53.6350 N.3   198  GLN198     -0.1245
    100  CA        59.5240  343.2410   54.8810 C.3   198  GLN198      0.1566
    101  C         58.3410  342.3100   54.6410 C.2   198  GLN198      0.2260
    102  O         58.1150  341.3870   55.4320 O.2   198  GLN198     -0.2867
    103  CB        59.1010  344.4120   55.7690 C.3   198  GLN198      0.0367
    104  CG        60.1820  345.4700   55.9580 C.3   198  GLN198      0.0905
    105  CD        61.3040  345.0140   56.8710 C.2   198  GLN198      0.2608
    106  OE1       61.1520  344.9900   58.0930 O.2   198  GLN198     -0.2717
    107  NE2       62.4400  344.6530   56.2830 N.am  198  GLN198     -0.0878
    108  N         63.7260  348.9110   49.4640 N.3   231  SER231     -0.1202
    109  CA        64.0770  349.0690   50.8720 C.3   231  SER231      0.2020
    110  C         65.3100  349.9590   50.9200 C.2   231  SER231      0.2619
    111  O         66.4070  349.5290   50.5460 O.2   231  SER231     -0.2717
    112  CB        64.3370  347.7190   51.5370 C.3   231  SER231      0.2103
    113  OG        64.6130  347.8790   52.9180 O.3   231  SER231     -0.2182
    114  N         65.1290  351.1990   51.3730 N.am  232  PHE232     -0.1961
    115  CA        66.1340  352.2450   51.2030 C.3   232  PHE232      0.1771
    116  C         66.8930  352.4510   52.5110 C.2   232  PHE232      0.2619
    117  O         66.6360  353.3760   53.2810 O.2   232  PHE232     -0.2715
    118  CB        65.4670  353.5250   50.7170 C.3   232  PHE232      0.0574
    119  CG        64.8130  353.3790   49.3750 C.ar  232  PHE232     -0.0200
    120  CD1       63.5050  352.9380   49.2740 C.ar  232  PHE232     -0.0042
    121  CD2       65.5140  353.6550   48.2140 C.ar  232  PHE232     -0.0042
    122  CE1       62.9030  352.7880   48.0410 C.ar  232  PHE232     -0.0003
    123  CE2       64.9180  353.5080   46.9780 C.ar  232  PHE232     -0.0003
    124  CZ        63.6100  353.0730   46.8920 C.ar  232  PHE232     -0.0000
    125  N         67.8530  351.5640   52.7490 N.am  233  TRP233     -0.1974
    126  CA        68.7970  351.7020   53.8530 C.3   233  TRP233      0.1640
    127  C         69.9310  350.7060   53.6250 C.2   233  TRP233      0.2290
    128  O         69.9070  349.9110   52.6800 O.2   233  TRP233     -0.2864
    129  CB        68.1230  351.5090   55.2160 C.3   233  TRP233      0.0576
    130  CG        67.5400  350.1470   55.4810 C.ar  233  TRP233      0.0006
    131  CD1       67.3600  349.1310   54.5870 C.ar  233  TRP233      0.0946
    132  CD2       67.0590  349.6620   56.7410 C.ar  233  TRP233      0.0152
    133  NE1       66.7960  348.0440   55.2140 N.ar  233  TRP233     -0.2442
    134  CE2       66.6010  348.3460   56.5360 C.ar  233  TRP233      0.0810
    135  CE3       66.9710  350.2160   58.0220 C.ar  233  TRP233      0.0012
    136  CZ2       66.0660  347.5740   57.5670 C.ar  233  TRP233      0.0191
    137  CZ3       66.4390  349.4500   59.0410 C.ar  233  TRP233      0.0001
    138  CH2       65.9930  348.1440   58.8090 C.ar  233  TRP233      0.0015
@<TRIPOS>BOND
     1   124   123   ar
     2   124   122   ar
     3   123   121   ar
     4   122   120   ar
     5   121   119   ar
     6   120   119   ar
     7   119   118    1
     8   108   109    1
     9   111   110    2
    10   118   115    1
    11    82    83    1
    12   109   110    1
    13   109   112    1
    14   110   114   am
    15   115   114    1
    16   115   116    1
    17   112   113    1
    18    83    84    1
    19    83    86    1
    20    84    85    2
    21    84    90   am
    22    88    87    2
    23   116   125   am
    24   116   117    2
    25    86    87    1
    26   128   127    2
    27    92    93    2
    28    92    91    1
    29   125   126    1
    30    90    91    1
    31    87    89   am
    32    91    94    1
    33   127   126    1
    34    99   100    1
    35   126   129    1
    36   131   133   ar
    37   131   130   ar
    38   101   100    1
    39   101   102    2
    40    94    95    1
    41   100   103    1
    42    34    32    1
    43   133   134   ar
    44   129   130    1
    45   130   132   ar
    46    95    96    1
    47    58    57    2
    48    70    71    1
    49   103   104    1
    50    44    45    1
    51    44    43    1
    52   104   105    1
    53    45    46    1
    54    42    41    2
    55    38    37    2
    56    57    56    1
    57   107   105   am
    58    31    30    2
    59    40    43    1
    60    40    41    1
    61    40    39    1
    62    71    72    1
    63    71    74    1
    64   134   132   ar
    65   134   136   ar
    66    32    33    1
    67    32    29    1
    68   132   135   ar
    69     1     2    1
    70     8     7    2
    71    37    39   am
    72    37    36    1
    73   105   106    2
    74    41    48   am
    75    72    73    2
    76    96    97    1
    77    30    29    1
    78    30    35   am
    79     7     6    1
    80     7     9   am
    81    36    35    1
    82    61    59    1
    83    46    47    1
    84     6     5    1
    85    74    75    1
    86    29    28    1
    87   136   138   ar
    88    56    59    1
    89    56    55    1
    90    76    75   ar
    91    97    98    1
    92    59    60    1
    93     5     2    1
    94    75    77   ar
    95   135   137   ar
    96     2     3    1
    97    51    50    2
    98    48    49    1
    99    55    50   am
   100    50    49    1
   101     4     3    2
   102   138   137   ar
   103    49    52    1
   104    28    24   am
   105     3    10   am
   106    25    24    2
   107    24    23    1
   108    10    11    1
   109    52    53    1
   110    52    54    1
   111    79    80    1
   112    79    78    1
   113    13    12    2
   114    80    81    2
   115    12    11    1
   116    12    22   am
   117    23    22    1
   118    23    26    1
   119    11    14    1
   120    69    67    1
   121    26    27    1
   122    67    66    1
   123    14    15    1
   124    68    66    1
   125    66    63    1
   126    17    15   ar
   127    17    19   ar
   128    15    16   ar
   129    63    62    1
   130    63    64    1
   131    19    20   ar
   132    16    18   ar
   133    64    65    2
   134    20    18   ar
   135    20    21    1
