@<TRIPOS>MOLECULE
tmp/5mvmA04.pdb
 79 76 0 0 0
SMALL
GASTEIGER

@<TRIPOS>ATOM
      1  N         39.2290  -13.6970   50.4010 N.3   195  PRO195     -0.2102
      2  CA        39.4680  -14.9120   51.1940 C.3   195  PRO195      0.1504
      3  C         40.5490  -15.8160   50.6130 C.2   195  PRO195      0.2576
      4  O         41.1560  -16.6060   51.3490 O.2   195  PRO195     -0.2718
      5  CB        38.1070  -15.6170   51.1660 C.3   195  PRO195      0.0282
      6  CG        37.4510  -15.1510   49.9410 C.3   195  PRO195      0.0208
      7  CD        37.8550  -13.7140   49.8400 C.3   195  PRO195      0.0893
      8  N         40.7540  -15.7240   49.2810 N.am  196  ASN196     -0.1961
      9  CA        41.6970  -16.5770   48.5760 C.3   196  ASN196      0.1819
     10  C         43.1190  -16.1090   48.6420 C.2   196  ASN196      0.2621
     11  O         43.9340  -16.8760   49.0900 O.2   196  ASN196     -0.2715
     12  CB        41.2820  -16.8170   47.1370 C.3   196  ASN196      0.1195
     13  CG        39.9500  -17.5140   46.9730 C.2   196  ASN196      0.2630
     14  OD1       39.3250  -17.9960   47.9420 O.2   196  ASN196     -0.2716
     15  ND2       39.4770  -17.5580   45.7260 N.am  196  ASN196     -0.0877
     16  N         43.4490  -14.8810   48.2300 N.am  197  ILE197     -0.1977
     17  CA        44.8690  -14.5190   48.2400 C.3   197  ILE197      0.1596
     18  C         45.2160  -13.4340   49.2320 C.2   197  ILE197      0.2287
     19  O         46.2470  -13.5590   49.9030 O.2   197  ILE197     -0.2864
     20  CB        45.4000  -14.1680   46.8150 C.3   197  ILE197      0.0276
     21  CG1       45.1010  -15.2880   45.7920 C.3   197  ILE197      0.0022
     22  CG2       46.8960  -13.8510   46.8260 C.3   197  ILE197      0.0022
     23  CD1       45.8160  -16.6210   46.0560 C.3   197  ILE197      0.0001
     24  N         44.9860  -14.6690   53.2780 N.3   200  PRO200     -0.2102
     25  CA        46.0700  -15.6390   53.5460 C.3   200  PRO200      0.1504
     26  C         47.4560  -15.0240   53.4490 C.2   200  PRO200      0.2575
     27  O         48.2800  -15.2840   54.3370 O.2   200  PRO200     -0.2718
     28  CB        45.8400  -16.7250   52.4880 C.3   200  PRO200      0.0282
     29  CG        44.3800  -16.6490   52.2460 C.3   200  PRO200      0.0208
     30  CD        44.1010  -15.1750   52.2130 C.3   200  PRO200      0.0893
     31  N         47.6870  -14.1550   52.4230 N.am  201  MET201     -0.1980
     32  CA        48.9540  -13.4630   52.2360 C.3   201  MET201      0.1605
     33  C         49.3080  -12.5670   53.4370 C.2   201  MET201      0.2287
     34  O         50.4760  -12.5220   53.8280 O.2   201  MET201     -0.2864
     35  CB        48.9630  -12.6630   50.9410 C.3   201  MET201      0.0413
     36  CG        50.3730  -12.3860   50.4400 C.3   201  MET201      0.0598
     37  SD        50.4690  -11.3780   48.9350 S.3   201  MET201     -0.1393
     38  CE        49.8580  -12.4790   47.7900 C.3   201  MET201      0.0692
     39  N         50.1390  -14.8820   56.7620 N.3   204  ILE204     -0.1245
     40  CA        51.4670  -15.4870   56.7460 C.3   204  ILE204      0.1561
     41  C         52.5220  -14.4050   57.0320 C.2   204  ILE204      0.2260
     42  O         53.5380  -14.7250   57.6390 O.2   204  ILE204     -0.2867
     43  CB        51.7660  -16.3610   55.5010 C.3   204  ILE204      0.0252
     44  CG1       52.0260  -15.5150   54.2710 C.3   204  ILE204      0.0019
     45  CG2       50.6750  -17.3930   55.2400 C.3   204  ILE204      0.0019
     46  CD1       53.3980  -15.6010   53.7800 C.3   204  ILE204      0.0001
     47  N         56.5620  -19.2200   51.5780 N.3   230  ALA230     -0.1231
     48  CA        55.1190  -19.1590   51.3400 C.3   230  ALA230      0.1694
     49  C         54.7640  -17.9360   50.4800 C.2   230  ALA230      0.2592
     50  O         54.0280  -18.0920   49.4950 O.2   230  ALA230     -0.2718
     51  CB        54.3520  -19.1410   52.6440 C.3   230  ALA230      0.0304
     52  N         55.3650  -16.7540   50.7740 N.am  231  HIS231     -0.1976
     53  CA        55.1700  -15.5420   49.9690 C.3   231  HIS231      0.1656
     54  C         55.6470  -15.7540   48.5290 C.2   231  HIS231      0.2291
     55  O         54.9370  -15.3430   47.6080 O.2   231  HIS231     -0.2864
     56  CB        55.8180  -14.2900   50.5860 C.3   231  HIS231      0.0771
     57  CG        55.5770  -13.0550   49.7770 C.ar  231  HIS231      0.0820
     58  ND1       54.3040  -12.5270   49.6310 N.ar  231  HIS231     -0.2267
     59  CD2       56.4440  -12.3070   49.0590 C.ar  231  HIS231      0.1154
     60  CE1       54.4350  -11.4820   48.8300 C.ar  231  HIS231      0.1986
     61  NE2       55.7060  -11.2940   48.4800 N.ar  231  HIS231     -0.2212
     62  N         55.5910  -18.5220   46.8390 N.3   233  ALA233     -0.1231
     63  CA        54.5050  -19.3210   46.2450 C.3   233  ALA233      0.1694
     64  C         53.3250  -18.4420   45.8270 C.2   233  ALA233      0.2591
     65  O         52.8970  -18.5650   44.6790 O.2   233  ALA233     -0.2718
     66  CB        54.0580  -20.4240   47.1740 C.3   233  ALA233      0.0304
     67  N         52.8750  -17.4810   46.7060 N.am  234  ALA234     -0.1980
     68  CA        51.7860  -16.5310   46.3940 C.3   234  ALA234      0.1597
     69  C         52.1530  -15.6310   45.2480 C.2   234  ALA234      0.2287
     70  O         51.4380  -15.6160   44.2590 O.2   234  ALA234     -0.2864
     71  CB        51.4670  -15.6870   47.5900 C.3   234  ALA234      0.0319
     72  N         52.0630  -17.6010   42.0220 N.3   237  LEU237     -0.1245
     73  CA        50.6780  -17.9000   41.6870 C.3   237  LEU237      0.1561
     74  C         49.9420  -16.6730   41.1400 C.2   237  LEU237      0.2260
     75  O         49.2450  -16.7930   40.1230 O.2   237  LEU237     -0.2867
     76  CB        49.9730  -18.5140   42.8990 C.3   237  LEU237      0.0270
     77  CG        48.4490  -18.6950   42.8730 C.3   237  LEU237      0.0019
     78  CD1       48.0420  -19.8290   41.9640 C.3   237  LEU237      0.0001
     79  CD2       47.9190  -18.9920   44.2860 C.3   237  LEU237      0.0001
@<TRIPOS>BOND
     1    75    74    2
     2    74    73    1
     3    73    72    1
     4    73    76    1
     5    78    77    1
     6    77    76    1
     7    77    79    1
     8    70    69    2
     9    65    64    2
    10    69    68    1
    11    15    13   am
    12    21    23    1
    13    21    20    1
    14    64    63    1
    15    64    67   am
    16    63    62    1
    17    63    66    1
    18    68    67    1
    19    68    71    1
    20    20    22    1
    21    20    17    1
    22    13    12    1
    23    13    14    2
    24    12     9    1
    25    55    54    2
    26    38    37    1
    27    16    17    1
    28    16    10   am
    29    17    18    1
    30    61    60   ar
    31    61    59   ar
    32    54    53    1
    33     9    10    1
    34     9     8    1
    35    10    11    2
    36    60    58   ar
    37    37    36    1
    38    59    57   ar
    39    18    19    2
    40     8     3   am
    41    50    49    2
    42    58    57   ar
    43    57    56    1
    44     7     6    1
    45     7     1    1
    46     6     5    1
    47    53    56    1
    48    53    52    1
    49     1     2    1
    50    36    35    1
    51    49    52   am
    52    49    48    1
    53     3     2    1
    54     3     4    2
    55    35    32    1
    56     5     2    1
    57    48    47    1
    58    48    51    1
    59    30    29    1
    60    30    24    1
    61    32    31    1
    62    32    33    1
    63    29    28    1
    64    31    26   am
    65    28    25    1
    66    24    25    1
    67    33    34    2
    68    26    25    1
    69    26    27    2
    70    46    44    1
    71    44    43    1
    72    45    43    1
    73    43    40    1
    74    40    39    1
    75    40    41    1
    76    41    42    2
