@<TRIPOS>MOLECULE
tmp/5mvsA00.pdb
 123 117 0 0 0
SMALL
GASTEIGER

@<TRIPOS>ATOM
      1  N         36.8160  -10.6860   25.2030 N.3   117  ASN117     -0.1240
      2  CA        36.0820  -10.8750   23.9530 C.3   117  ASN117      0.1653
      3  C         35.6800  -12.3430   23.7940 C.2   117  ASN117      0.2266
      4  O         36.5350  -13.2100   23.5910 O.2   117  ASN117     -0.2867
      5  CB        36.9360  -10.3910   22.7660 C.3   117  ASN117      0.1155
      6  CG        36.1590   -9.9690   21.5450 C.2   117  ASN117      0.2627
      7  OD1       35.1100  -10.5350   21.2020 O.2   117  ASN117     -0.2716
      8  ND2       36.6870   -8.9810   20.8350 N.am  117  ASN117     -0.0877
      9  N         37.3220    1.1900   11.5720 N.3   152  LEU152     -0.1231
     10  CA        36.7400    1.8480   12.7570 C.3   152  LEU152      0.1693
     11  C         36.5270    0.8090   13.8510 C.2   152  LEU152      0.2592
     12  O         35.6360   -0.0240   13.7360 O.2   152  LEU152     -0.2718
     13  CB        35.3970    2.5340   12.3930 C.3   152  LEU152      0.0284
     14  CG        35.4250    3.6580   11.3680 C.3   152  LEU152      0.0019
     15  CD1       34.0170    4.2020   11.1440 C.3   152  LEU152      0.0001
     16  CD2       36.3580    4.7920   11.7820 C.3   152  LEU152      0.0001
     17  N         37.3390    0.8640   14.9010 N.am  153  GLY153     -0.1957
     18  CA        37.3240   -0.1000   16.0050 C.3   153  GLY153      0.1869
     19  C         38.1420   -1.3080   15.6080 C.2   153  GLY153      0.2309
     20  O         37.6230   -2.4290   15.5100 O.2   153  GLY153     -0.2863
     21  N         40.4910   -3.2010   16.9570 N.3   155  GLY155     -0.1225
     22  CA        40.9290   -4.2330   17.8970 C.3   155  GLY155      0.1811
     23  C         42.4370   -4.2450   18.0490 C.2   155  GLY155      0.2280
     24  O         43.0360   -3.2120   18.3650 O.2   155  GLY155     -0.2866
     25  N         41.6640    2.5200   14.0580 N.3   175  VAL175     -0.1231
     26  CA        41.4060    3.3330   15.2370 C.3   175  VAL175      0.1692
     27  C         40.7110    2.4710   16.2810 C.2   175  VAL175      0.2592
     28  O         39.6780    1.8770   15.9990 O.2   175  VAL175     -0.2718
     29  CB        40.7060    4.7170   14.9800 C.3   175  VAL175      0.0266
     30  CG1       39.3610    4.5850   14.2590 C.3   175  VAL175      0.0020
     31  CG2       40.5630    5.5210   16.2690 C.3   175  VAL175      0.0020
     32  N         41.2980    2.3830   17.4710 N.am  176  GLU176     -0.1966
     33  CA        40.7330    1.5710   18.5540 C.3   176  GLU176      0.1733
     34  C         40.6710    2.3770   19.8880 C.2   176  GLU176      0.2616
     35  O         41.6380    3.0290   20.2380 O.2   176  GLU176     -0.2715
     36  CB        41.5300    0.2490   18.6760 C.3   176  GLU176      0.0429
     37  CG        41.0660   -0.6900   19.7700 C.3   176  GLU176      0.1163
     38  CD        39.5800   -0.9770   19.7750 C.2   176  GLU176      0.3649
     39  OE1       39.0700   -1.5120   18.7670 O.co2 176  GLU176     -0.2457
     40  OE2       38.9150   -0.6010   20.7630 O.co2 176  GLU176     -0.2457
     41  N         39.5220    2.3350   20.6020 N.am  177  LYS177     -0.1963
     42  CA        39.2930    3.0720   21.8610 C.3   177  LYS177      0.1728
     43  C         39.6570    2.2650   23.0970 C.2   177  LYS177      0.2616
     44  O         40.0880    2.8500   24.0850 O.2   177  LYS177     -0.2715
     45  CB        37.8100    3.5120   21.9540 C.3   177  LYS177      0.0311
     46  CG        37.4480    4.4100   23.1490 C.3   177  LYS177      0.0038
     47  CD        35.9570    4.7930   23.1650 C.3   177  LYS177      0.0206
     48  CE        35.0370    3.6890   23.6510 C.3   177  LYS177      0.1093
     49  NZ        33.6050    4.0720   23.5650 N.3   177  LYS177     -0.1314
     50  N         39.3930    0.9450   23.0900 N.am  178  ALA178     -0.1977
     51  CA        39.6590    0.1330   24.2760 C.3   178  ALA178      0.1597
     52  C         41.1610   -0.0360   24.5300 C.2   178  ALA178      0.2287
     53  O         41.9340   -0.3070   23.6100 O.2   178  ALA178     -0.2864
     54  CB        38.9470   -1.2030   24.1830 C.3   178  ALA178      0.0319
     55  N         43.1250   -3.9060   23.7870 N.3   181  PRO181     -0.2116
     56  CA        43.4490   -4.1410   22.3710 C.3   181  PRO181      0.1372
     57  C         44.3260   -3.0420   21.7650 C.2   181  PRO181      0.2244
     58  O         45.2020   -3.3880   20.9950 O.2   181  PRO181     -0.2868
     59  CB        42.0730   -4.2620   21.6860 C.3   181  PRO181      0.0268
     60  CG        41.1300   -3.6150   22.5740 C.3   181  PRO181      0.0207
     61  CD        41.6620   -3.7490   23.9730 C.3   181  PRO181      0.0892
     62  N         42.1790    5.8270   19.7920 N.3   211  GLY211     -0.1210
     63  CA        41.2960    6.9790   19.6520 C.3   211  GLY211      0.1956
     64  C         39.8250    6.6280   19.6570 C.2   211  GLY211      0.2612
     65  O         39.4570    5.4530   19.6440 O.2   211  GLY211     -0.2717
     66  N         38.9800    7.6530   19.7090 N.am  212  ASP212     -0.1959
     67  CA        37.5270    7.5120   19.6790 C.3   212  ASP212      0.1840
     68  C         37.0780    7.9380   18.2850 C.2   212  ASP212      0.2622
     69  O         37.2620    9.1030   17.9320 O.2   212  ASP212     -0.2715
     70  CB        36.8700    8.3870   20.7790 C.3   212  ASP212      0.1450
     71  CG        35.3740    8.1820   20.9540 C.2   212  ASP212      0.3671
     72  OD1       34.7070    7.7280   19.9850 O.co2 212  ASP212     -0.2456
     73  OD2       34.8630    8.4890   22.0390 O.co2 212  ASP212     -0.2456
     74  N         36.5210    6.9990   17.4770 N.am  213  PHE213     -0.1960
     75  CA        36.1000    7.3310   16.1040 C.3   213  PHE213      0.1771
     76  C         34.8740    8.2700   16.0430 C.2   213  PHE213      0.2619
     77  O         34.4850    8.6920   14.9480 O.2   213  PHE213     -0.2715
     78  CB        35.8970    6.0800   15.2160 C.3   213  PHE213      0.0574
     79  CG        34.9230    5.0150   15.6620 C.ar  213  PHE213     -0.0200
     80  CD1       33.5610    5.2970   15.7830 C.ar  213  PHE213     -0.0042
     81  CD2       35.3400    3.6980   15.8360 C.ar  213  PHE213     -0.0042
     82  CE1       32.6540    4.2990   16.1570 C.ar  213  PHE213     -0.0003
     83  CE2       34.4280    2.7030   16.2040 C.ar  213  PHE213     -0.0003
     84  CZ        33.0910    3.0110   16.3560 C.ar  213  PHE213     -0.0000
     85  N         34.2770    8.6040   17.2170 N.am  214  LEU214     -0.1977
     86  CA        33.1430    9.5210   17.2880 C.3   214  LEU214      0.1596
     87  C         33.5670   10.9610   17.6080 C.2   214  LEU214      0.2287
     88  O         32.7220   11.8480   17.6090 O.2   214  LEU214     -0.2864
     89  CB        32.0430    9.0160   18.2510 C.3   214  LEU214      0.0297
     90  CG        31.3170    7.7040   17.8570 C.3   214  LEU214      0.0022
     91  CD1       30.1750    7.4310   18.8040 C.3   214  LEU214      0.0001
     92  CD2       30.7570    7.7550   16.4380 C.3   214  LEU214      0.0001
     93  N         33.1720   -3.3750   12.1200 N.3   231  ASN231     -0.1240
     94  CA        32.4350   -4.4900   12.6900 C.3   231  ASN231      0.1653
     95  C         31.4150   -3.8590   13.6610 C.2   231  ASN231      0.2266
     96  O         31.7080   -3.6480   14.8410 O.2   231  ASN231     -0.2867
     97  CB        33.3700   -5.5030   13.3860 C.3   231  ASN231      0.1155
     98  CG        32.6150   -6.5660   14.1470 C.2   231  ASN231      0.2627
     99  OD1       31.4510   -6.8890   13.8490 O.2   231  ASN231     -0.2716
    100  ND2       33.2330   -7.0780   15.1880 N.am  231  ASN231     -0.0877
    101  N         27.7000   -5.5210   17.2580 N.3   234  ALA234     -0.1231
    102  CA        27.2490   -5.2930   18.6340 C.3   234  ALA234      0.1694
    103  C         27.0220   -3.8200   18.9950 C.2   234  ALA234      0.2592
    104  O         26.7460   -3.5380   20.1510 O.2   234  ALA234     -0.2718
    105  CB        28.2400   -5.9330   19.6100 C.3   234  ALA234      0.0304
    106  N         27.1330   -2.8820   18.0320 N.am  235  PHE235     -0.1976
    107  CA        26.9460   -1.4510   18.3320 C.3   235  PHE235      0.1639
    108  C         25.5160   -1.1150   18.7410 C.2   235  PHE235      0.2290
    109  O         24.5600   -1.5760   18.1090 O.2   235  PHE235     -0.2864
    110  CB        27.3890   -0.5630   17.1650 C.3   235  PHE235      0.0560
    111  CG        28.8790   -0.5170   16.8800 C.ar  235  PHE235     -0.0200
    112  CD1       29.8000   -1.1110   17.7550 C.ar  235  PHE235     -0.0042
    113  CD2       29.3690    0.1670   15.7670 C.ar  235  PHE235     -0.0042
    114  CE1       31.1710   -1.0320   17.5050 C.ar  235  PHE235     -0.0003
    115  CE2       30.7450    0.2340   15.5150 C.ar  235  PHE235     -0.0003
    116  CZ        31.6320   -0.3720   16.3750 C.ar  235  PHE235     -0.0000
    117  N         25.5810    4.8090   18.9280 N.3   239  VAL239     -0.1245
    118  CA        26.7840    4.6740   18.1100 C.3   239  VAL239      0.1561
    119  C         26.3900    4.5210   16.6350 C.2   239  VAL239      0.2260
    120  O         26.9280    5.2200   15.7810 O.2   239  VAL239     -0.2867
    121  CB        27.7120    3.5340   18.6220 C.3   239  VAL239      0.0252
    122  CG1       28.8830    3.2920   17.6690 C.3   239  VAL239      0.0019
    123  CG2       28.2280    3.8480   20.0270 C.3   239  VAL239      0.0019
@<TRIPOS>BOND
     1    15    14    1
     2    14    16    1
     3    14    13    1
     4     9    10    1
     5    93    94    1
     6    13    10    1
     7    94    97    1
     8    94    95    1
     9    10    11    1
    10    97    98    1
    11    95    96    2
    12    12    11    2
    13    99    98    2
    14    11    17   am
    15    25    26    1
    16    98   100   am
    17    30    29    1
    18    17    18    1
    19    77    76    2
    20    29    26    1
    21    29    31    1
    22    78    79    1
    23    78    75    1
    24    26    27    1
    25    20    19    2
    26   115   113   ar
    27   115   116   ar
    28    19    18    1
    29    79    80   ar
    30    79    81   ar
    31   113   111   ar
    32   120   119    2
    33    80    82   ar
    34    81    83   ar
    35    28    27    2
    36    76    75    1
    37    76    85   am
    38    75    74    1
    39    82    84   ar
    40    83    84   ar
    41    27    32   am
    42   116   114   ar
    43    92    90    1
    44   119   118    1
    45   111   110    1
    46   111   112   ar
    47    21    22    1
    48   110   107    1
    49    85    86    1
    50   101   102    1
    51    86    87    1
    52    86    89    1
    53    32    33    1
    54    74    68   am
    55   114   112   ar
    56    87    88    2
    57   122   121    1
    58    90    89    1
    59    90    91    1
    60    22    23    1
    61    69    68    2
    62   106   107    1
    63   106   103   am
    64    23    24    2
    65   109   108    2
    66   118   121    1
    67   118   117    1
    68    68    67    1
    69   107   108    1
    70    33    36    1
    71    33    34    1
    72   121   123    1
    73   102   103    1
    74   102   105    1
    75    36    37    1
    76    39    38   ar
    77   103   104    2
    78    65    64    2
    79    63    64    1
    80    63    62    1
    81    64    66   am
    82    67    66    1
    83    67    70    1
    84    37    38    1
    85    38    40   ar
    86    34    35    2
    87    34    41   am
    88    72    71   ar
    89    41    42    1
    90    70    71    1
    91     8     6   am
    92    71    73   ar
    93    58    57    2
    94     7     6    2
    95     6     5    1
    96    59    56    1
    97    59    60    1
    98    57    56    1
    99    42    45    1
   100    42    43    1
   101    45    46    1
   102    56    55    1
   103    60    61    1
   104     5     2    1
   105    50    43   am
   106    50    51    1
   107    43    44    2
   108    46    47    1
   109    47    48    1
   110    49    48    1
   111     4     3    2
   112    53    52    2
   113    55    61    1
   114     3     2    1
   115     2     1    1
   116    54    51    1
   117    51    52    1
