@<TRIPOS>MOLECULE
tmp/5mvsA01.pdb
 152 147 0 0 0
SMALL
GASTEIGER

@<TRIPOS>ATOM
      1  N         32.3000  -14.2010   18.1200 N.3   120  PRO120     -0.2102
      2  CA        33.0130  -14.8440   16.9850 C.3   120  PRO120      0.1504
      3  C         34.0200  -13.9430   16.2550 C.2   120  PRO120      0.2575
      4  O         34.8330  -14.4350   15.4690 O.2   120  PRO120     -0.2718
      5  CB        31.8800  -15.2780   16.0400 C.3   120  PRO120      0.0282
      6  CG        30.7410  -14.4080   16.3910 C.3   120  PRO120      0.0208
      7  CD        30.8500  -14.0910   17.8470 C.3   120  PRO120      0.0893
      8  N         33.9900  -12.6450   16.5360 N.am  121  PHE121     -0.1977
      9  CA        34.8730  -11.6400   15.9130 C.3   121  PHE121      0.1639
     10  C         36.1240  -11.3780   16.7650 C.2   121  PHE121      0.2290
     11  O         36.8340  -10.3910   16.5460 O.2   121  PHE121     -0.2864
     12  CB        34.1140  -10.3270   15.7170 C.3   121  PHE121      0.0560
     13  CG        32.8440  -10.4140   14.9100 C.ar  121  PHE121     -0.0200
     14  CD1       32.8820  -10.3810   13.5240 C.ar  121  PHE121     -0.0042
     15  CD2       31.6030  -10.4690   15.5400 C.ar  121  PHE121     -0.0042
     16  CE1       31.7000  -10.4000   12.7830 C.ar  121  PHE121     -0.0003
     17  CE2       30.4200  -10.4960   14.8010 C.ar  121  PHE121     -0.0003
     18  CZ        30.4750  -10.4670   13.4270 C.ar  121  PHE121     -0.0000
     19  N         40.7520  -15.1300   14.7220 N.3   126  TYR126     -0.1241
     20  CA        40.8550  -14.4110   13.4430 C.3   126  TYR126      0.1605
     21  C         41.1870  -15.2990   12.2400 C.2   126  TYR126      0.2264
     22  O         40.6490  -15.0800   11.1500 O.2   126  TYR126     -0.2867
     23  CB        41.8440  -13.2320   13.5290 C.3   126  TYR126      0.0534
     24  CG        41.8330  -12.3390   12.3010 C.ar  126  TYR126     -0.0201
     25  CD1       40.9050  -11.3080   12.1730 C.ar  126  TYR126     -0.0009
     26  CD2       42.7530  -12.5220   11.2730 C.ar  126  TYR126     -0.0009
     27  CE1       40.8650  -10.5020   11.0370 C.ar  126  TYR126      0.0417
     28  CE2       42.7430  -11.7030   10.1400 C.ar  126  TYR126      0.0417
     29  CZ        41.7900  -10.6980   10.0250 C.ar  126  TYR126      0.1957
     30  OH        41.7810   -9.8660    8.9380 O.3   126  TYR126     -0.2866
     31  N         37.7480  -17.7770   10.1790 N.3   129  THR129     -0.1203
     32  CA        36.8320  -17.3320    9.1150 C.3   129  THR129      0.1994
     33  C         37.1430  -15.8880    8.6880 C.2   129  THR129      0.2618
     34  O         37.0160  -15.5470    7.5080 O.2   129  THR129     -0.2717
     35  CB        35.3560  -17.4650    9.6350 C.3   129  THR129      0.1784
     36  OG1       35.0830  -18.8270    9.9350 O.3   129  THR129     -0.2211
     37  CG2       34.2970  -16.9300    8.6580 C.3   129  THR129      0.0376
     38  N         37.4980  -15.0300    9.6550 N.am  130  SER130     -0.1951
     39  CA        37.7330  -13.6080    9.4000 C.3   130  SER130      0.1924
     40  C         38.7550  -13.3780    8.3240 C.2   130  SER130      0.2314
     41  O         38.5040  -12.6160    7.3960 O.2   130  SER130     -0.2863
     42  CB        38.1010  -12.8640   10.6850 C.3   130  SER130      0.2116
     43  OG        37.0210  -12.8920   11.6080 O.3   130  SER130     -0.2180
     44  N         37.2980  -14.2510    4.9210 N.3   133  LEU133     -0.1231
     45  CA        36.2960  -13.2680    4.5230 C.3   133  LEU133      0.1693
     46  C         36.9320  -11.9140    4.1960 C.2   133  LEU133      0.2591
     47  O         36.5500  -11.3040    3.2010 O.2   133  LEU133     -0.2718
     48  CB        35.1380  -13.1600    5.5370 C.3   133  LEU133      0.0284
     49  CG        33.7980  -12.6760    4.9420 C.3   133  LEU133      0.0019
     50  CD1       33.2960  -13.6180    3.8440 C.3   133  LEU133      0.0001
     51  CD2       32.7340  -12.5290    6.0360 C.3   133  LEU133      0.0001
     52  N         38.0030  -11.5130    4.9160 N.am  134  VAL134     -0.1980
     53  CA        38.7470  -10.2850    4.5760 C.3   134  VAL134      0.1595
     54  C         39.4400  -10.4600    3.1980 C.2   134  VAL134      0.2287
     55  O         39.4140   -9.5410    2.4080 O.2   134  VAL134     -0.2864
     56  CB        39.7480   -9.8570    5.6940 C.3   134  VAL134      0.0276
     57  CG1       40.6660   -8.7150    5.2290 C.3   134  VAL134      0.0022
     58  CG2       39.0110   -9.4740    6.9810 C.3   134  VAL134      0.0022
     59  N         36.8270  -10.0120    0.6000 N.3   137  MET137     -0.1245
     60  CA        36.4880   -8.5860    0.5840 C.3   137  MET137      0.1570
     61  C         37.5280   -7.7780   -0.2540 C.2   137  MET137      0.2261
     62  O         37.1490   -6.9750   -1.1120 O.2   137  MET137     -0.2867
     63  CB        36.3840   -8.0990    2.0380 C.3   137  MET137      0.0387
     64  CG        35.8770   -6.6980    2.2220 C.3   137  MET137      0.0595
     65  SD        37.1640   -5.4430    2.3040 S.3   137  MET137     -0.1393
     66  CE        38.1960   -5.9540    3.6970 C.3   137  MET137      0.0692
     67  N         42.8780   -6.7470   10.7280 N.3   159  VAL159     -0.1245
     68  CA        42.2750   -6.3980    9.4350 C.3   159  VAL159      0.1561
     69  C         43.1770   -5.4010    8.7050 C.2   159  VAL159      0.2260
     70  O         43.4720   -5.5960    7.5240 O.2   159  VAL159     -0.2867
     71  CB        40.8210   -5.8590    9.6040 C.3   159  VAL159      0.0252
     72  CG1       40.2700   -5.3460    8.2760 C.3   159  VAL159      0.0019
     73  CG2       39.8940   -6.9200   10.2220 C.3   159  VAL159      0.0019
     74  N         35.8840    0.1470    6.9710 N.3   229  PHE229     -0.1227
     75  CA        35.6250   -1.2310    7.3890 C.3   229  PHE229      0.1736
     76  C         35.1460   -1.0850    8.8190 C.2   229  PHE229      0.2595
     77  O         35.7930   -0.4020    9.6210 O.2   229  PHE229     -0.2718
     78  CB        36.9190   -2.0780    7.3710 C.3   229  PHE229      0.0547
     79  CG        36.7640   -3.5230    7.7770 C.ar  229  PHE229     -0.0202
     80  CD1       36.6760   -3.8820    9.1250 C.ar  229  PHE229     -0.0042
     81  CD2       36.8290   -4.5390    6.8260 C.ar  229  PHE229     -0.0042
     82  CE1       36.5930   -5.2270    9.5070 C.ar  229  PHE229     -0.0003
     83  CE2       36.7850   -5.8900    7.2080 C.ar  229  PHE229     -0.0003
     84  CZ        36.6560   -6.2250    8.5500 C.ar  229  PHE229     -0.0000
     85  N         34.0170   -1.7010    9.1530 N.am  230  VAL230     -0.1966
     86  CA        33.5370   -1.5710   10.5310 C.3   230  VAL230      0.1727
     87  C         32.7890   -2.8230   10.9710 C.2   230  VAL230      0.2616
     88  O         31.8810   -3.2790   10.2830 O.2   230  VAL230     -0.2715
     89  CB        32.7110   -0.2410   10.7700 C.3   230  VAL230      0.0290
     90  CG1       31.5140   -0.1020    9.8080 C.3   230  VAL230      0.0023
     91  CG2       32.2820   -0.0940   12.2370 C.3   230  VAL230      0.0023
     92  N         33.1720   -3.3750   12.1200 N.am  231  ASN231     -0.1972
     93  CA        32.4350   -4.4900   12.6900 C.3   231  ASN231      0.1688
     94  C         31.4150   -3.8590   13.6610 C.2   231  ASN231      0.2292
     95  O         31.7080   -3.6480   14.8410 O.2   231  ASN231     -0.2864
     96  CB        33.3700   -5.5030   13.3860 C.3   231  ASN231      0.1181
     97  CG        32.6150   -6.5660   14.1470 C.2   231  ASN231      0.2629
     98  OD1       31.4510   -6.8890   13.8490 O.2   231  ASN231     -0.2716
     99  ND2       33.2330   -7.0780   15.1880 N.am  231  ASN231     -0.0877
    100  N         32.1330   -1.1900    4.3460 N.3   257  VAL257     -0.1231
    101  CA        31.9640   -2.6390    4.4550 C.3   257  VAL257      0.1692
    102  C         31.7310   -2.9430    5.9250 C.2   257  VAL257      0.2593
    103  O         32.4900   -2.4740    6.7910 O.2   257  VAL257     -0.2718
    104  CB        33.0700   -3.4930    3.7780 C.3   257  VAL257      0.0266
    105  CG1       33.0510   -3.2990    2.2530 C.3   257  VAL257      0.0020
    106  CG2       34.4440   -3.1640    4.3230 C.3   257  VAL257      0.0020
    107  N         30.6390   -3.6470    6.2230 N.am  258  SER258     -0.1938
    108  CA        30.2850   -3.8960    7.6200 C.3   258  SER258      0.2055
    109  C         29.6980   -5.3030    7.8510 C.2   258  SER258      0.2643
    110  O         29.3670   -6.0110    6.8950 O.2   258  SER258     -0.2714
    111  CB        29.3210   -2.8020    8.0970 C.3   258  SER258      0.2130
    112  OG        28.0620   -2.9740    7.4700 O.3   258  SER258     -0.2179
    113  N         29.5460   -5.6850    9.1290 N.am  259  SER259     -0.1949
    114  CA        28.9810   -6.9880    9.5200 C.3   259  SER259      0.1924
    115  C         27.4430   -6.9300    9.6580 C.2   259  SER259      0.2314
    116  O         26.7830   -7.9660    9.5930 O.2   259  SER259     -0.2863
    117  CB        29.6460   -7.5160   10.7890 C.3   259  SER259      0.2116
    118  OG        29.6950   -6.5100   11.7840 O.3   259  SER259     -0.2180
    119  N         32.1980  -21.2410    6.6310 N.3   296  LYS296     -0.1245
    120  CA        30.9270  -20.8840    7.2870 C.3   296  LYS296      0.1561
    121  C         30.0090  -20.0880    6.3660 C.2   296  LYS296      0.2260
    122  O         30.4960  -19.3540    5.5050 O.2   296  LYS296     -0.2867
    123  CB        31.1670  -20.1230    8.6160 C.3   296  LYS296      0.0271
    124  CG        31.7810  -21.0170    9.6870 C.3   296  LYS296      0.0035
    125  CD        31.7770  -20.3720   11.0630 C.3   296  LYS296      0.0206
    126  CE        32.4090  -21.2950   12.0870 C.3   296  LYS296      0.1093
    127  NZ        31.4570  -22.3480   12.5260 N.3   296  LYS296     -0.1314
    128  N         28.5890  -17.2730    5.8690 N.3   298  VAL298     -0.1231
    129  CA        28.7070  -15.9100    6.3380 C.3   298  VAL298      0.1692
    130  C         28.5260  -14.9070    5.2070 C.2   298  VAL298      0.2593
    131  O         28.6740  -15.2480    4.0360 O.2   298  VAL298     -0.2718
    132  CB        30.0370  -15.6860    7.1420 C.3   298  VAL298      0.0266
    133  CG1       30.0570  -16.5540    8.4010 C.3   298  VAL298      0.0020
    134  CG2       31.2820  -15.9490    6.2860 C.3   298  VAL298      0.0020
    135  N         28.2350  -13.6760    5.5760 N.am  299  SER299     -0.1938
    136  CA        27.9950  -12.5320    4.6850 C.3   299  SER299      0.2055
    137  C         28.5580  -11.2850    5.3100 C.2   299  SER299      0.2643
    138  O         28.6330  -11.1770    6.5350 O.2   299  SER299     -0.2714
    139  CB        26.4900  -12.2730    4.5630 C.3   299  SER299      0.2130
    140  OG        25.8750  -13.1710    3.6570 O.3   299  SER299     -0.2179
    141  N         28.8050  -10.2870    4.4660 N.am  300  TYR300     -0.1973
    142  CA        29.1350   -8.9500    4.8830 C.3   300  TYR300      0.1639
    143  C         28.3550   -7.9870    3.9550 C.2   300  TYR300      0.2290
    144  O         27.7000   -8.4360    2.9980 O.2   300  TYR300     -0.2864
    145  CB        30.6500   -8.6850    5.0090 C.3   300  TYR300      0.0560
    146  CG        31.3710   -8.6160    3.6890 C.ar  300  TYR300     -0.0198
    147  CD1       31.8390   -9.7730    3.0620 C.ar  300  TYR300     -0.0009
    148  CD2       31.5690   -7.4010    3.0470 C.ar  300  TYR300     -0.0009
    149  CE1       32.5000   -9.7110    1.8310 C.ar  300  TYR300      0.0417
    150  CE2       32.2180   -7.3300    1.8190 C.ar  300  TYR300      0.0417
    151  CZ        32.6820   -8.4850    1.2170 C.ar  300  TYR300      0.1957
    152  OH        33.2940   -8.3800   -0.0010 O.3   300  TYR300     -0.2866
@<TRIPOS>BOND
     1    62    61    2
     2    61    60    1
     3   152   151    1
     4    60    59    1
     5    60    63    1
     6   151   150   ar
     7   151   149   ar
     8   150   148   ar
     9   149   147   ar
    10    63    64    1
    11    64    65    1
    12   105   104    1
    13    65    66    1
    14    55    54    2
    15   144   143    2
    16   148   146   ar
    17   147   146   ar
    18    54    53    1
    19    47    46    2
    20   140   139    1
    21   146   145    1
    22   104   106    1
    23   104   101    1
    24    50    49    1
    25   143   142    1
    26   131   130    2
    27    46    45    1
    28    46    52   am
    29   100   101    1
    30   101   102    1
    31   141   142    1
    32   141   137   am
    33    45    44    1
    34    45    48    1
    35   139   136    1
    36    53    52    1
    37    53    56    1
    38   136   137    1
    39   136   135    1
    40   142   145    1
    41    49    48    1
    42    49    51    1
    43   130   135   am
    44   130   129    1
    45    57    56    1
    46   137   138    2
    47   122   121    2
    48    56    58    1
    49   128   129    1
    50   102   107   am
    51   102   103    2
    52   107   108    1
    53   134   132    1
    54   129   132    1
    55   121   120    1
    56   119   120    1
    57    81    83   ar
    58    81    79   ar
    59   110   109    2
    60    74    75    1
    61   132   133    1
    62    83    84   ar
    63   120   123    1
    64    78    75    1
    65    78    79    1
    66    75    76    1
    67    41    40    2
    68   112   111    1
    69    34    33    2
    70    70    69    2
    71   108   109    1
    72   108   111    1
    73    79    80   ar
    74   109   113   am
    75    72    71    1
    76    40    39    1
    77    84    82   ar
    78   123   124    1
    79    37    35    1
    80    33    32    1
    81    33    38   am
    82    69    68    1
    83    76    85   am
    84    76    77    2
    85    30    29    1
    86    32    35    1
    87    32    31    1
    88    80    82   ar
    89   113   114    1
    90    85    86    1
    91    39    38    1
    92    39    42    1
    93    68    71    1
    94    68    67    1
    95   114   115    1
    96   114   117    1
    97   116   115    2
    98    71    73    1
    99    35    36    1
   100   124   125    1
   101    90    89    1
   102    29    28   ar
   103    29    27   ar
   104    28    26   ar
   105    88    87    2
   106    86    89    1
   107    86    87    1
   108    42    43    1
   109    89    91    1
   110   117   118    1
   111    87    92   am
   112    27    25   ar
   113   125   126    1
   114    22    21    2
   115    26    24   ar
   116   126   127    1
   117    92    93    1
   118    25    24   ar
   119    21    20    1
   120    24    23    1
   121    93    96    1
   122    93    94    1
   123    16    18   ar
   124    16    14   ar
   125    96    97    1
   126    18    17   ar
   127    20    23    1
   128    20    19    1
   129    14    13   ar
   130    94    95    2
   131    98    97    2
   132    97    99   am
   133    17    15   ar
   134    13    15   ar
   135    13    12    1
   136     4     3    2
   137    12     9    1
   138     9     8    1
   139     9    10    1
   140     5     6    1
   141     5     2    1
   142     3     8   am
   143     3     2    1
   144     6     7    1
   145    11    10    2
   146     2     1    1
   147     7     1    1
