@<TRIPOS>MOLECULE
tmp/5mw2A00.pdb
 102 100 0 0 0
SMALL
GASTEIGER

@<TRIPOS>ATOM
      1  N          8.2190   25.8080   21.6860 N.3    42  THR42      -0.1218
      2  CA         9.1720   24.7190   21.9210 C.3    42  THR42       0.1862
      3  C          8.6200   23.3630   21.4900 C.2    42  THR42       0.2287
      4  O          9.3660   22.5540   20.9370 O.2    42  THR42      -0.2866
      5  CB         9.6200   24.6990   23.3870 C.3    42  THR42       0.1770
      6  OG1        8.4710   24.5930   24.2290 O.3    42  THR42      -0.2211
      7  CG2       10.4520   25.9180   23.7670 C.3    42  THR42       0.0375
      8  N          8.5130   23.2570   17.4890 N.3    45  MET45      -0.1230
      9  CA         9.8560   23.0340   16.9400 C.3    45  MET45       0.1702
     10  C         10.2830   21.5720   17.0600 C.2    45  MET45       0.2592
     11  O         10.8910   21.0350   16.1330 O.2    45  MET45      -0.2718
     12  CB        10.8880   23.9130   17.6650 C.3    45  MET45       0.0401
     13  CG        10.7360   25.3880   17.4030 C.3    45  MET45       0.0596
     14  SD        11.9530   26.3390   18.3380 S.3    45  MET45      -0.1393
     15  CE        13.2890   26.3330   17.2080 C.3    45  MET45       0.0692
     16  N          9.9720   20.9450   18.2090 N.am   46  ALA46      -0.1966
     17  CA        10.3080   19.5610   18.5450 C.3    46  ALA46       0.1728
     18  C          9.6350   18.5070   17.6560 C.2    46  ALA46       0.2616
     19  O         10.2220   17.4480   17.4300 O.2    46  ALA46      -0.2715
     20  CB         9.9810   19.2920   20.0070 C.3    46  ALA46       0.0334
     21  N          8.4110   18.7860   17.1680 N.am   47  CYS47      -0.1954
     22  CA         7.6420   17.8390   16.3530 C.3    47  CYS47       0.1843
     23  C          7.5130   18.2320   14.8780 C.2    47  CYS47       0.2626
     24  O          7.1210   17.3910   14.0690 O.2    47  CYS47      -0.2714
     25  CB         6.2690   17.5820   16.9680 C.3    47  CYS47       0.0997
     26  SG         6.2500   17.5090   18.7780 S.3    47  CYS47      -0.0797
     27  N          7.8010   19.4970   14.5300 N.am   48  SER48      -0.1936
     28  CA         7.6620   19.9800   13.1570 C.3    48  SER48       0.2055
     29  C          8.9290   20.6380   12.6180 C.2    48  SER48       0.2643
     30  O          9.5470   21.4520   13.3050 O.2    48  SER48      -0.2714
     31  CB         6.4580   20.9150   13.0480 C.3    48  SER48       0.2130
     32  OG         6.5160   21.8030   11.9440 O.3    48  SER48      -0.2179
     33  N          9.2850   20.2760   11.3860 N.am   49  GLY49      -0.1954
     34  CA        10.4410   20.8120   10.6770 C.3    49  GLY49       0.1869
     35  C         10.2300   22.2400   10.2160 C.2    49  GLY49       0.2309
     36  O         11.1750   23.0330   10.2080 O.2    49  GLY49      -0.2863
     37  N         10.3380   24.4610   13.3390 N.3    52  TYR52      -0.1241
     38  CA        11.7280   24.5170   13.7920 C.3    52  TYR52       0.1605
     39  C         12.4740   25.5680   12.9690 C.2    52  TYR52       0.2264
     40  O         13.0980   26.4490   13.5500 O.2    52  TYR52      -0.2867
     41  CB        12.4210   23.1400   13.7020 C.3    52  TYR52       0.0534
     42  CG        13.9210   23.1930   13.9140 C.ar   52  TYR52      -0.0201
     43  CD1       14.4610   23.3920   15.1820 C.ar   52  TYR52      -0.0009
     44  CD2       14.8020   23.0530   12.8450 C.ar   52  TYR52      -0.0009
     45  CE1       15.8390   23.4520   15.3810 C.ar   52  TYR52       0.0417
     46  CE2       16.1830   23.1160   13.0310 C.ar   52  TYR52       0.0417
     47  CZ        16.6970   23.3120   14.3020 C.ar   52  TYR52       0.1957
     48  OH        18.0560   23.3690   14.4930 O.3    52  TYR52      -0.2866
     49  N         -1.6940   15.3750   18.2250 N.3    83  PHE83      -0.1241
     50  CA        -0.6790   14.3190   18.1910 C.3    83  PHE83       0.1605
     51  C          0.6330   14.7600   18.8600 C.2    83  PHE83       0.2264
     52  O          1.2900   13.9500   19.5090 O.2    83  PHE83      -0.2867
     53  CB        -0.4300   13.8560   16.7380 C.3    83  PHE83       0.0534
     54  CG         0.8890   13.1490   16.5300 C.ar   83  PHE83      -0.0203
     55  CD1        1.0670   11.8380   16.9540 C.ar   83  PHE83      -0.0042
     56  CD2        1.9710   13.8140   15.9660 C.ar   83  PHE83      -0.0042
     57  CE1        2.3000   11.2050   16.8130 C.ar   83  PHE83      -0.0003
     58  CE2        3.2040   13.1760   15.8230 C.ar   83  PHE83      -0.0003
     59  CZ         3.3570   11.8740   16.2420 C.ar   83  PHE83      -0.0000
     60  N          6.4630   19.4680    7.6000 N.3   107  GLN107     -0.1231
     61  CA         7.7170   18.7020    7.5600 C.3   107  GLN107      0.1698
     62  C          7.8190   17.7200    8.7380 C.2   107  GLN107      0.2592
     63  O          8.7310   17.8110    9.5620 O.2   107  GLN107     -0.2718
     64  CB         8.9570   19.6170    7.4370 C.3   107  GLN107      0.0381
     65  CG         9.0250   20.4240    6.1450 C.3   107  GLN107      0.0905
     66  CD        10.0030   21.5680    6.2520 C.2   107  GLN107      0.2608
     67  OE1       11.2170   21.3780    6.3860 O.2   107  GLN107     -0.2717
     68  NE2        9.4940   22.7880    6.1810 N.am  107  GLN107     -0.0878
     69  N          6.8380   16.8070    8.8250 N.am  108  MET108     -0.1965
     70  CA         6.7480   15.7680    9.8530 C.3   108  MET108      0.1736
     71  C          6.9360   14.4260    9.1330 C.2   108  MET108      0.2616
     72  O          5.9640   13.7240    8.8420 O.2   108  MET108     -0.2715
     73  CB         5.4000   15.8560   10.6070 C.3   108  MET108      0.0427
     74  CG         5.2010   17.1710   11.3520 C.3   108  MET108      0.0599
     75  SD         3.5740   17.3650   12.1280 S.3   108  MET108     -0.1393
     76  CE         3.8260   16.4710   13.6490 C.3   108  MET108      0.0692
     77  N          8.2070   14.1200    8.7920 N.am  109  GLU109     -0.1963
     78  CA         8.6610   12.9490    8.0270 C.3   109  GLU109      0.1733
     79  C          8.1600   11.6000    8.5460 C.2   109  GLU109      0.2616
     80  O          7.7420   10.7710    7.7370 O.2   109  GLU109     -0.2715
     81  CB        10.1930   12.9290    7.8980 C.3   109  GLU109      0.0429
     82  CG        10.7530   14.0480    7.0310 C.3   109  GLU109      0.1163
     83  CD        12.2640   14.1310    6.9060 C.2   109  GLU109      0.3649
     84  OE1       12.9780   13.5530    7.7580 O.co2 109  GLU109     -0.2457
     85  OE2       12.7350   14.8070    5.9630 O.co2 109  GLU109     -0.2457
     86  N          8.2050   11.3750    9.8740 N.am  110  HIS110     -0.1959
     87  CA         7.7510   10.1180   10.4790 C.3   110  HIS110      0.1787
     88  C          6.2310    9.9360   10.3990 C.2   110  HIS110      0.2620
     89  O          5.7630    8.8000   10.3110 O.2   110  HIS110     -0.2715
     90  CB         8.2690    9.9550   11.9150 C.3   110  HIS110      0.0785
     91  CG         9.7620    9.9760   12.0330 C.ar  110  HIS110      0.0821
     92  ND1       10.4180   11.0010   12.6940 N.ar  110  HIS110     -0.2267
     93  CD2       10.6810    9.0970   11.5670 C.ar  110  HIS110      0.1154
     94  CE1       11.7070   10.7120   12.6130 C.ar  110  HIS110      0.1986
     95  NE2       11.9150    9.5780   11.9420 N.ar  110  HIS110     -0.2212
     96  N          5.4700   11.0520   10.3990 N.am  111  VAL111     -0.1977
     97  CA         4.0080   11.0470   10.2610 C.3   111  VAL111      0.1596
     98  C          3.6680   10.6700    8.8070 C.2   111  VAL111      0.2287
     99  O          2.8040    9.8190    8.5840 O.2   111  VAL111     -0.2864
    100  CB         3.3520   12.3870   10.7000 C.3   111  VAL111      0.0276
    101  CG1        1.8410   12.3640   10.4840 C.3   111  VAL111      0.0022
    102  CG2        3.6730   12.7080   12.1570 C.3   111  VAL111      0.0022
@<TRIPOS>BOND
     1    85    83   ar
     2    65    66    1
     3    65    64    1
     4    68    66   am
     5    66    67    2
     6    83    82    1
     7    83    84   ar
     8    82    81    1
     9    64    61    1
    10    61    60    1
    11    61    62    1
    12    80    79    2
    13    81    78    1
    14    78    79    1
    15    78    77    1
    16    79    86   am
    17    99    98    2
    18    62    69   am
    19    62    63    2
    20    77    71   am
    21    98    97    1
    22    69    70    1
    23    72    71    2
    24    71    70    1
    25    70    73    1
    26    86    87    1
    27    36    35    2
    28    35    34    1
    29    97    96    1
    30    97   100    1
    31    89    88    2
    32    88    96   am
    33    88    87    1
    34    87    90    1
    35   101   100    1
    36    73    74    1
    37    34    33    1
    38   100   102    1
    39    74    75    1
    40    33    29   am
    41    93    95   ar
    42    93    91   ar
    43    90    91    1
    44    95    94   ar
    45    32    31    1
    46    91    92   ar
    47    75    76    1
    48    94    92   ar
    49    29    28    1
    50    29    30    2
    51    44    46   ar
    52    44    42   ar
    53    39    40    2
    54    39    38    1
    55    46    47   ar
    56    31    28    1
    57    28    27    1
    58    37    38    1
    59    41    38    1
    60    41    42    1
    61    42    43   ar
    62    24    23    2
    63    47    48    1
    64    47    45   ar
    65    27    23   am
    66    23    22    1
    67    43    45   ar
    68    58    56   ar
    69    58    59   ar
    70    56    54   ar
    71    11    10    2
    72    59    57   ar
    73    22    25    1
    74    22    21    1
    75    54    53    1
    76    54    55   ar
    77    53    50    1
    78    57    55   ar
    79     9    10    1
    80     9     8    1
    81     9    12    1
    82    25    26    1
    83    10    16   am
    84    21    18   am
    85    15    14    1
    86    13    12    1
    87    13    14    1
    88    19    18    2
    89    18    17    1
    90    50    49    1
    91    50    51    1
    92    16    17    1
    93    17    20    1
    94    51    52    2
    95     4     3    2
    96     3     2    1
    97     1     2    1
    98     2     5    1
    99     5     7    1
   100     5     6    1
