@<TRIPOS>MOLECULE
tmp/5mw3A01.pdb
 94 90 0 0 0
SMALL
GASTEIGER

@<TRIPOS>ATOM
      1  N         37.3190    0.8110   14.8720 N.3   153  GLY153     -0.1225
      2  CA        37.2720   -0.1610   15.9670 C.3   153  GLY153      0.1811
      3  C         38.1200   -1.3350   15.5480 C.2   153  GLY153      0.2280
      4  O         37.6220   -2.4540   15.3740 O.2   153  GLY153     -0.2866
      5  N         40.5760   -3.1520   16.8580 N.3   155  GLY155     -0.1225
      6  CA        41.0400   -4.1900   17.7810 C.3   155  GLY155      0.1811
      7  C         42.5500   -4.1780   17.9330 C.2   155  GLY155      0.2280
      8  O         43.1300   -3.1470   18.2760 O.2   155  GLY155     -0.2866
      9  N         41.7070    2.5280   13.9210 N.3   175  VAL175     -0.1231
     10  CA        41.4320    3.3650   15.0970 C.3   175  VAL175      0.1692
     11  C         40.7300    2.5000   16.1420 C.2   175  VAL175      0.2592
     12  O         39.7270    1.8690   15.8320 O.2   175  VAL175     -0.2718
     13  CB        40.7260    4.7290   14.8110 C.3   175  VAL175      0.0266
     14  CG1       39.3630    4.5610   14.1280 C.3   175  VAL175      0.0020
     15  CG2       40.6120    5.5740   16.0860 C.3   175  VAL175      0.0020
     16  N         41.2810    2.4510   17.3520 N.am  176  GLU176     -0.1966
     17  CA        40.7390    1.6310   18.4350 C.3   176  GLU176      0.1733
     18  C         40.6560    2.4500   19.7440 C.2   176  GLU176      0.2616
     19  O         41.6360    3.0660   20.1410 O.2   176  GLU176     -0.2715
     20  CB        41.5900    0.3470   18.5980 C.3   176  GLU176      0.0429
     21  CG        41.1860   -0.5430   19.7600 C.3   176  GLU176      0.1163
     22  CD        39.7260   -0.9590   19.7710 C.2   176  GLU176      0.3649
     23  OE1       39.2410   -1.4710   18.7400 O.co2 176  GLU176     -0.2457
     24  OE2       39.0590   -0.7510   20.8050 O.co2 176  GLU176     -0.2457
     25  N         39.4880    2.4380   20.3980 N.am  177  LYS177     -0.1963
     26  CA        39.1850    3.1810   21.6330 C.3   177  LYS177      0.1728
     27  C         39.6580    2.4580   22.8920 C.2   177  LYS177      0.2616
     28  O         40.1480    3.1120   23.8030 O.2   177  LYS177     -0.2715
     29  CB        37.6570    3.4260   21.7090 C.3   177  LYS177      0.0311
     30  CG        37.1280    4.2100   22.9010 C.3   177  LYS177      0.0038
     31  CD        35.6200    4.5090   22.7610 C.3   177  LYS177      0.0206
     32  CE        34.6910    3.3590   23.1110 C.3   177  LYS177      0.1093
     33  NZ        33.2830    3.8200   23.2580 N.3   177  LYS177     -0.1314
     34  N         39.4400    1.1270   22.9830 N.am  178  ALA178     -0.1977
     35  CA        39.7900    0.3730   24.1900 C.3   178  ALA178      0.1597
     36  C         41.3090    0.2640   24.4090 C.2   178  ALA178      0.2287
     37  O         42.0560   -0.0020   23.4640 O.2   178  ALA178     -0.2864
     38  CB        39.1310   -1.0000   24.1680 C.3   178  ALA178      0.0319
     39  N         43.2210   -3.7140   23.6920 N.3   181  PRO181     -0.2116
     40  CA        43.5600   -4.0180   22.2870 C.3   181  PRO181      0.1372
     41  C         44.4730   -2.9620   21.6510 C.2   181  PRO181      0.2244
     42  O         45.3630   -3.3480   20.9020 O.2   181  PRO181     -0.2868
     43  CB        42.1890   -4.1250   21.5950 C.3   181  PRO181      0.0268
     44  CG        41.2750   -3.3550   22.4400 C.3   181  PRO181      0.0207
     45  CD        41.7600   -3.5450   23.8570 C.3   181  PRO181      0.0892
     46  N         42.1340    5.9280   19.7470 N.3   211  GLY211     -0.1210
     47  CA        41.2550    7.0770   19.5830 C.3   211  GLY211      0.1956
     48  C         39.8040    6.6720   19.5150 C.2   211  GLY211      0.2612
     49  O         39.4910    5.4860   19.4440 O.2   211  GLY211     -0.2717
     50  N         38.9240    7.6570   19.5480 N.am  212  ASP212     -0.1959
     51  CA        37.4770    7.4880   19.4590 C.3   212  ASP212      0.1840
     52  C         37.0810    7.9810   18.0800 C.2   212  ASP212      0.2622
     53  O         37.2620    9.1700   17.7930 O.2   212  ASP212     -0.2715
     54  CB        36.7650    8.3220   20.5560 C.3   212  ASP212      0.1450
     55  CG        35.2740    8.0290   20.6930 C.2   212  ASP212      0.3671
     56  OD1       34.6060    7.8130   19.6530 O.co2 212  ASP212     -0.2456
     57  OD2       34.7680    8.0590   21.8310 O.co2 212  ASP212     -0.2456
     58  N         36.5490    7.0870   17.2180 N.am  213  PHE213     -0.1960
     59  CA        36.1740    7.4930   15.8590 C.3   213  PHE213      0.1771
     60  C         34.9470    8.4360   15.8210 C.2   213  PHE213      0.2619
     61  O         34.5650    8.9030   14.7400 O.2   213  PHE213     -0.2715
     62  CB        36.0050    6.2900   14.9100 C.3   213  PHE213      0.0574
     63  CG        34.9780    5.2410   15.2640 C.ar  213  PHE213     -0.0200
     64  CD1       33.6150    5.5400   15.2550 C.ar  213  PHE213     -0.0042
     65  CD2       35.3630    3.9300   15.5260 C.ar  213  PHE213     -0.0042
     66  CE1       32.6650    4.5680   15.5830 C.ar  213  PHE213     -0.0003
     67  CE2       34.4070    2.9490   15.8290 C.ar  213  PHE213     -0.0003
     68  CZ        33.0630    3.2780   15.8460 C.ar  213  PHE213     -0.0000
     69  N         34.3400    8.7250   16.9930 N.am  214  LEU214     -0.1977
     70  CA        33.2240    9.6640   17.0550 C.3   214  LEU214      0.1596
     71  C         33.6770   11.0770   17.4630 C.2   214  LEU214      0.2287
     72  O         32.8570   11.9970   17.4800 O.2   214  LEU214     -0.2864
     73  CB        32.0640    9.1340   17.9310 C.3   214  LEU214      0.0297
     74  CG        31.3840    7.8420   17.4370 C.3   214  LEU214      0.0022
     75  CD1       30.3190    7.4080   18.4100 C.3   214  LEU214      0.0001
     76  CD2       30.7880    8.0200   16.0270 C.3   214  LEU214      0.0001
     77  N         27.1520   -2.6930   17.9100 N.3   235  PHE235     -0.1241
     78  CA        26.9000   -1.2680   18.1350 C.3   235  PHE235      0.1605
     79  C         25.4770   -0.9990   18.6040 C.2   235  PHE235      0.2264
     80  O         24.5190   -1.5130   18.0230 O.2   235  PHE235     -0.2867
     81  CB        27.2040   -0.4250   16.8770 C.3   235  PHE235      0.0534
     82  CG        28.6560   -0.2470   16.4770 C.ar  235  PHE235     -0.0203
     83  CD1       29.6780   -0.8810   17.1840 C.ar  235  PHE235     -0.0042
     84  CD2       28.9960    0.5170   15.3690 C.ar  235  PHE235     -0.0042
     85  CE1       31.0160   -0.7510   16.7850 C.ar  235  PHE235     -0.0003
     86  CE2       30.3340    0.6440   14.9660 C.ar  235  PHE235     -0.0003
     87  CZ        31.3350    0.0060   15.6710 C.ar  235  PHE235     -0.0000
     88  N         25.7760    4.9430   19.0460 N.3   239  VAL239     -0.1245
     89  CA        26.9790    4.8240   18.2270 C.3   239  VAL239      0.1561
     90  C         26.5700    4.6830   16.7480 C.2   239  VAL239      0.2260
     91  O         27.1270    5.3760   15.9000 O.2   239  VAL239     -0.2867
     92  CB        27.9200    3.6850   18.7330 C.3   239  VAL239      0.0252
     93  CG1       28.9940    3.3420   17.6900 C.3   239  VAL239      0.0019
     94  CG2       28.5670    4.0740   20.0670 C.3   239  VAL239      0.0019
@<TRIPOS>BOND
     1     9    10    1
     2    14    13    1
     3    61    60    2
     4    13    10    1
     5    13    15    1
     6     1     2    1
     7    62    63    1
     8    62    59    1
     9    86    84   ar
    10    86    87   ar
    11    10    11    1
    12    64    63   ar
    13    64    66   ar
    14    63    65   ar
    15    84    82   ar
    16     4     3    2
    17    65    67   ar
    18     3     2    1
    19    66    68   ar
    20    87    85   ar
    21    60    59    1
    22    60    69   am
    23    67    68   ar
    24    12    11    2
    25    59    58    1
    26    91    90    2
    27    76    74    1
    28    11    16   am
    29    82    81    1
    30    82    83   ar
    31    90    89    1
    32    85    83   ar
    33     5     6    1
    34    81    78    1
    35    69    70    1
    36    70    71    1
    37    70    73    1
    38    58    52   am
    39    16    17    1
    40    74    73    1
    41    74    75    1
    42    71    72    2
    43    93    92    1
    44     6     7    1
    45    53    52    2
    46    77    78    1
    47     7     8    2
    48    80    79    2
    49    52    51    1
    50    78    79    1
    51    89    92    1
    52    89    88    1
    53    17    20    1
    54    17    18    1
    55    20    21    1
    56    92    94    1
    57    23    22   ar
    58    49    48    2
    59    51    50    1
    60    51    54    1
    61    48    50   am
    62    48    47    1
    63    47    46    1
    64    56    55   ar
    65    18    19    2
    66    18    25   am
    67    21    22    1
    68    22    24   ar
    69    25    26    1
    70    54    55    1
    71    55    57   ar
    72    42    41    2
    73    43    40    1
    74    43    44    1
    75    26    29    1
    76    26    27    1
    77    41    40    1
    78    29    30    1
    79    40    39    1
    80    44    45    1
    81    31    30    1
    82    31    32    1
    83    27    34   am
    84    27    28    2
    85    34    35    1
    86    32    33    1
    87    37    36    2
    88    39    45    1
    89    38    35    1
    90    35    36    1
