@<TRIPOS>MOLECULE
tmp/5mw6B00.pdb
 74 71 0 0 0
SMALL
GASTEIGER

@<TRIPOS>ATOM
      1  N         23.8580    9.7020   15.7680 N.3    40  THR40      -0.1218
      2  CA        23.0920   10.1340   14.5780 C.3    40  THR40       0.1862
      3  C         21.6370   10.4460   14.9300 C.2    40  THR40       0.2287
      4  O         21.1290   11.4940   14.5370 O.2    40  THR40      -0.2866
      5  CB        23.1370    9.0870   13.4590 C.3    40  THR40       0.1770
      6  OG1       22.7880    7.8060   13.9930 O.3    40  THR40      -0.2211
      7  CG2       24.5070    9.0280   12.7600 C.3    40  THR40       0.0375
      8  N         21.5000   13.6780   17.1650 N.3    43  MET43      -0.1230
      9  CA        21.6930   14.8800   16.3410 C.3    43  MET43       0.1702
     10  C         20.4590   15.1480   15.4950 C.2    43  MET43       0.2592
     11  O         20.1200   16.2990   15.2940 O.2    43  MET43      -0.2718
     12  CB        22.8690   14.7070   15.3790 C.3    43  MET43       0.0401
     13  CG        24.1890   14.7020   16.0560 C.3    43  MET43       0.0596
     14  SD        25.4330   14.4770   14.7790 S.3    43  MET43      -0.1393
     15  CE        25.6080   16.1130   14.2370 C.3    43  MET43       0.0692
     16  N         19.8230   14.1060   14.9700 N.am   44  ALA44      -0.1966
     17  CA        18.6230   14.2410   14.1330 C.3    44  ALA44       0.1728
     18  C         17.4140   14.8040   14.8880 C.2    44  ALA44       0.2616
     19  O         16.4700   15.2840   14.2550 O.2    44  ALA44      -0.2715
     20  CB        18.2750   12.8940   13.5140 C.3    44  ALA44       0.0334
     21  N         17.4400   14.7780   16.2270 N.am   45  CYS45      -0.1954
     22  CA        16.2980   15.2190   17.0390 C.3    45  CYS45       0.1843
     23  C         16.5350   16.4460   17.8800 C.2    45  CYS45       0.2626
     24  O         15.5670   17.0320   18.3520 O.2    45  CYS45      -0.2714
     25  CB        15.8260   14.0770   17.9300 C.3    45  CYS45       0.0997
     26  SG        15.3380   12.5800   17.0400 S.3    45  CYS45      -0.0797
     27  N         17.7920   16.7420   18.2120 N.am   46  SER46      -0.1936
     28  CA        18.0700   17.7940   19.1810 C.3    46  SER46       0.2055
     29  C         19.1180   18.7720   18.7120 C.2    46  SER46       0.2643
     30  O         20.1830   18.3530   18.2680 O.2    46  SER46      -0.2714
     31  CB        18.5110   17.1310   20.4860 C.3    46  SER46       0.2130
     32  OG        19.4170   17.8760   21.2800 O.3    46  SER46      -0.2179
     33  N         18.8170   20.0720   18.8560 N.am   47  GLY47      -0.1954
     34  CA        19.7580   21.1330   18.5210 C.3    47  GLY47       0.1869
     35  C         21.0100   21.0410   19.3650 C.2    47  GLY47       0.2309
     36  O         22.1160   21.2700   18.8710 O.2    47  GLY47      -0.2863
     37  N         23.1660   18.1820   18.0800 N.3    50  TYR50      -0.1241
     38  CA        23.7610   18.5540   16.7930 C.3    50  TYR50       0.1605
     39  C         25.0520   19.3320   17.0670 C.2    50  TYR50       0.2264
     40  O         26.0810   19.0530   16.4430 O.2    50  TYR50      -0.2867
     41  CB        22.8210   19.4090   15.9430 C.3    50  TYR50       0.0534
     42  CG        23.2630   19.5000   14.4960 C.ar   50  TYR50      -0.0201
     43  CD1       22.8690   18.5460   13.5680 C.ar   50  TYR50      -0.0009
     44  CD2       24.0550   20.5570   14.0500 C.ar   50  TYR50      -0.0009
     45  CE1       23.2730   18.6200   12.2360 C.ar   50  TYR50       0.0417
     46  CE2       24.4550   20.6490   12.7150 C.ar   50  TYR50       0.0417
     47  CZ        24.0590   19.6750   11.8110 C.ar   50  TYR50       0.1957
     48  OH        24.4390   19.7310   10.4920 O.3    50  TYR50      -0.2866
     49  N         16.9280   21.6670   23.0740 N.3   105  GLN105     -0.1231
     50  CA        16.5750   22.4970   21.9210 C.3   105  GLN105      0.1698
     51  C         15.6690   21.7030   20.9700 C.2   105  GLN105      0.2592
     52  O         16.0510   21.3810   19.8420 O.2   105  GLN105     -0.2718
     53  CB        17.8350   23.0540   21.2270 C.3   105  GLN105      0.0381
     54  CG        18.7310   23.8580   22.1630 C.3   105  GLN105      0.0905
     55  CD        20.0750   24.1360   21.5450 C.2   105  GLN105      0.2608
     56  OE1       20.2480   24.0870   20.3220 O.2   105  GLN105     -0.2717
     57  NE2       21.0540   24.4310   22.3880 N.am  105  GLN105     -0.0878
     58  N         14.4990   21.3030   21.4990 N.am  106  MET106     -0.1965
     59  CA        13.4720   20.5320   20.7890 C.3   106  MET106      0.1736
     60  C         12.1900   21.3620   20.9070 C.2   106  MET106      0.2616
     61  O         11.2850   21.0560   21.6970 O.2   106  MET106     -0.2715
     62  CB        13.3260   19.1170   21.3980 C.3   106  MET106      0.0427
     63  CG        14.6090   18.2900   21.3570 C.3   106  MET106      0.0599
     64  SD        14.4990   16.7750   22.3570 S.3   106  MET106     -0.1393
     65  CE        13.3780   15.7900   21.3510 C.3   106  MET106      0.0692
     66  N         12.1620   22.4690   20.1470 N.am  107  GLU107     -0.1977
     67  CA        11.1180   23.4870   20.1710 C.3   107  GLU107      0.1602
     68  C          9.6760   22.9570   20.0540 C.2   107  GLU107      0.2287
     69  O          8.8270   23.3880   20.8360 O.2   107  GLU107     -0.2864
     70  CB        11.3700   24.5720   19.1160 C.3   107  GLU107      0.0415
     71  CG        10.3720   25.7130   19.2240 C.3   107  GLU107      0.1163
     72  CD        10.4110   26.7180   18.0970 C.2   107  GLU107      0.3649
     73  OE1       11.3660   27.5250   18.0720 O.co2 107  GLU107     -0.2457
     74  OE2        9.4650   26.7380   17.2770 O.co2 107  GLU107     -0.2457
@<TRIPOS>BOND
     1    48    47    1
     2    47    45   ar
     3    47    46   ar
     4    45    43   ar
     5    46    44   ar
     6     7     5    1
     7     5     6    1
     8     5     2    1
     9    20    17    1
    10    43    42   ar
    11    44    42   ar
    12    17    18    1
    13    17    16    1
    14    15    14    1
    15    19    18    2
    16    42    41    1
    17     4     3    2
    18     2     3    1
    19     2     1    1
    20    14    13    1
    21    18    21   am
    22    16    10   am
    23    11    10    2
    24    12    13    1
    25    12     9    1
    26    10     9    1
    27    41    38    1
    28    21    22    1
    29     9     8    1
    30    40    39    2
    31    38    39    1
    32    38    37    1
    33    22    23    1
    34    22    25    1
    35    26    25    1
    36    74    72   ar
    37    23    27   am
    38    23    24    2
    39    73    72   ar
    40    72    71    1
    41    27    28    1
    42    30    29    2
    43    34    33    1
    44    34    35    1
    45    29    33   am
    46    29    28    1
    47    36    35    2
    48    70    71    1
    49    70    67    1
    50    28    31    1
    51    52    51    2
    52    68    67    1
    53    68    69    2
    54    66    67    1
    55    66    60   am
    56    56    55    2
    57    31    32    1
    58    59    60    1
    59    59    62    1
    60    59    58    1
    61    60    61    2
    62    51    58   am
    63    51    50    1
    64    53    50    1
    65    53    54    1
    66    65    64    1
    67    63    62    1
    68    63    64    1
    69    55    54    1
    70    55    57   am
    71    50    49    1
