@<TRIPOS>MOLECULE
tmp/5mwaA00.pdb
 218 208 0 0 0
SMALL
GASTEIGER

@<TRIPOS>ATOM
      1  N        -18.6870   -3.4450   11.2710 N.3    14  ASP14      -0.1239
      2  CA       -17.5370   -4.0400   11.9260 C.3    14  ASP14       0.1674
      3  C        -16.8400   -5.0030   10.9670 C.2    14  ASP14       0.2266
      4  O        -17.4230   -5.4780    9.9890 O.2    14  ASP14      -0.2867
      5  CB       -18.0260   -4.7460   13.1950 C.3    14  ASP14       0.1410
      6  CG       -16.9460   -5.4910   13.9260 C.2    14  ASP14       0.3668
      7  OD1      -15.8440   -4.9420   14.1420 O.co2  14  ASP14      -0.2456
      8  OD2      -17.2390   -6.6310   14.3240 O.co2  14  ASP14      -0.2456
      9  N        -14.2210   -8.0860   11.9890 N.3    16  ASP16      -0.1239
     10  CA       -14.2220   -9.4860   12.4220 C.3    16  ASP16       0.1674
     11  C        -15.5350   -9.8730   13.0970 C.2    16  ASP16       0.2266
     12  O        -15.9460   -9.2650   14.0940 O.2    16  ASP16      -0.2867
     13  CB       -13.0370   -9.7200   13.3470 C.3    16  ASP16       0.1410
     14  CG       -11.7260   -9.3300   12.6920 C.2    16  ASP16       0.3668
     15  OD1      -11.0550   -8.3910   13.1890 O.co2  16  ASP16      -0.2456
     16  OD2      -11.3590   -9.9430   11.6630 O.co2  16  ASP16      -0.2456
     17  N        -13.3900  -15.8200   11.1590 N.3    22  PRO22      -0.2116
     18  CA       -14.1970  -15.7540   12.3840 C.3    22  PRO22       0.1372
     19  C        -13.8250  -14.5790   13.2840 C.2    22  PRO22       0.2244
     20  O        -12.7830  -13.9500   13.0540 O.2    22  PRO22      -0.2868
     21  CB       -13.8390  -17.0620   13.0850 C.3    22  PRO22       0.0268
     22  CG       -12.3810  -17.1890   12.7820 C.3    22  PRO22       0.0207
     23  CD       -12.2230  -16.6980   11.3410 C.3    22  PRO22       0.0892
     24  N        -12.6420  -13.4390   17.1550 N.3    24  VAL24      -0.1231
     25  CA       -11.6770  -14.0360   18.0600 C.3    24  VAL24       0.1692
     26  C        -12.2910  -14.8590   19.1960 C.2    24  VAL24       0.2592
     27  O        -11.7260  -15.7890   19.6440 O.2    24  VAL24      -0.2718
     28  CB       -10.7700  -12.9500   18.6380 C.3    24  VAL24       0.0266
     29  CG1      -11.5620  -11.9860   19.5100 C.3    24  VAL24       0.0020
     30  CG2       -9.6370  -13.5820   19.4000 C.3    24  VAL24       0.0020
     31  N        -13.4770  -14.4740   19.6110 N.am   25  PHE25      -0.1976
     32  CA       -14.0970  -15.1040   20.7450 C.3    25  PHE25       0.1639
     33  C        -14.5410  -16.5400   20.4290 C.2    25  PHE25       0.2290
     34  O        -14.3970  -17.4180   21.2280 O.2    25  PHE25      -0.2864
     35  CB       -15.2440  -14.2030   21.2620 C.3    25  PHE25       0.0560
     36  CG       -14.8040  -12.7820   21.5410 C.ar   25  PHE25      -0.0200
     37  CD1      -15.1780  -11.7620   20.6970 C.ar   25  PHE25      -0.0042
     38  CD2      -14.0100  -12.4910   22.5950 C.ar   25  PHE25      -0.0042
     39  CE1      -14.7430  -10.4990   20.8800 C.ar   25  PHE25      -0.0003
     40  CE2      -13.5860  -11.2080   22.8010 C.ar   25  PHE25      -0.0003
     41  CZ       -13.9510  -10.2250   21.9470 C.ar   25  PHE25      -0.0000
     42  N        -13.0260  -18.2330   18.0420 N.3    27  VAL27      -0.1245
     43  CA       -11.7080  -18.8800   17.9390 C.3    27  VAL27       0.1561
     44  C        -11.3540  -19.5120   19.2800 C.2    27  VAL27       0.2260
     45  O        -11.1040  -20.7290   19.3570 O.2    27  VAL27      -0.2867
     46  CB       -10.5670  -17.9930   17.3830 C.3    27  VAL27       0.0252
     47  CG1       -9.2450  -18.7950   17.4550 C.3    27  VAL27       0.0019
     48  CG2      -10.8070  -17.7800   15.8770 C.3    27  VAL27       0.0019
     49  N         -8.1050  -13.4840   27.7920 N.3    46  PHE46      -0.1227
     50  CA        -8.0280  -12.5220   26.6940 C.3    46  PHE46       0.1736
     51  C         -8.5090  -11.1390   27.1100 C.2    46  PHE46       0.2595
     52  O         -7.9840  -10.1130   26.6540 O.2    46  PHE46      -0.2718
     53  CB        -8.8790  -13.0670   25.5460 C.3    46  PHE46       0.0547
     54  CG        -8.8010  -12.2700   24.2910 C.ar   46  PHE46      -0.0202
     55  CD1       -7.6150  -12.2280   23.5500 C.ar   46  PHE46      -0.0042
     56  CD2       -9.9210  -11.5890   23.8110 C.ar   46  PHE46      -0.0042
     57  CE1       -7.5290  -11.5030   22.3760 C.ar   46  PHE46      -0.0003
     58  CE2       -9.8570  -10.8630   22.6320 C.ar   46  PHE46      -0.0003
     59  CZ        -8.6590  -10.8110   21.8980 C.ar   46  PHE46      -0.0000
     60  N         -9.4760  -11.0830   28.0100 N.am   47  GLN47      -0.1979
     61  CA       -10.1020   -9.8240   28.3850 C.3    47  GLN47       0.1601
     62  C         -9.6080   -9.3110   29.7280 C.2    47  GLN47       0.2287
     63  O        -10.0900   -8.2790   30.2030 O.2    47  GLN47      -0.2864
     64  CB       -11.6240  -10.0070   28.3950 C.3    47  GLN47       0.0394
     65  CG       -12.1620  -10.1870   26.9670 C.3    47  GLN47       0.0908
     66  CD       -13.6340  -10.5330   26.9330 C.2    47  GLN47       0.2608
     67  OE1      -14.4700   -9.6550   26.8800 O.2    47  GLN47      -0.2717
     68  NE2      -13.9460  -11.8140   26.9840 N.am   47  GLN47      -0.0878
     69  N         -5.0560   -6.6390   26.0030 N.3    55  THR55      -0.1203
     70  CA        -5.7610   -6.6560   24.7220 C.3    55  THR55       0.1994
     71  C         -6.2820   -5.2730   24.3440 C.2    55  THR55       0.2618
     72  O         -6.1360   -4.8520   23.1910 O.2    55  THR55      -0.2717
     73  CB        -6.8630   -7.6980   24.7690 C.3    55  THR55       0.1784
     74  OG1       -6.2540   -8.9820   24.9550 O.3    55  THR55      -0.2211
     75  CG2       -7.6480   -7.7050   23.4570 C.3    55  THR55       0.0376
     76  N         -6.8440   -4.5230   25.3020 N.am   56  THR56      -0.1952
     77  CA        -7.2460   -3.1450   25.0020 C.3    56  THR56       0.1897
     78  C         -6.0470   -2.3040   24.5930 C.2    56  THR56       0.2313
     79  O         -6.1480   -1.4760   23.6840 O.2    56  THR56      -0.2863
     80  CB        -7.9660   -2.5200   26.2010 C.3    56  THR56       0.1794
     81  OG1       -9.1680   -3.2470   26.4410 O.3    56  THR56      -0.2208
     82  CG2       -8.3160   -1.0490   25.9170 C.3    56  THR56       0.0378
     83  N         -3.4020   -3.3370   23.0480 N.3    58  LEU58      -0.1231
     84  CA        -3.1170   -3.7160   21.6620 C.3    58  LEU58       0.1693
     85  C         -4.1150   -3.0670   20.7000 C.2    58  LEU58       0.2591
     86  O         -3.7200   -2.4940   19.6760 O.2    58  LEU58      -0.2718
     87  CB        -3.1400   -5.2420   21.5200 C.3    58  LEU58       0.0284
     88  CG        -2.8860   -5.7800   20.1090 C.3    58  LEU58       0.0019
     89  CD1       -1.4140   -5.5890   19.7120 C.3    58  LEU58       0.0001
     90  CD2       -3.2930   -7.2500   20.0690 C.3    58  LEU58       0.0001
     91  N         -5.4140   -3.1310   21.0260 N.am   59  MET59      -0.1979
     92  CA        -6.4070   -2.5410   20.1210 C.3    59  MET59       0.1605
     93  C         -6.2010   -1.0390   19.9910 C.2    59  MET59       0.2287
     94  O         -6.4830   -0.4640   18.9420 O.2    59  MET59      -0.2864
     95  CB        -7.8470   -2.8150   20.5970 C.3    59  MET59       0.0413
     96  CG        -8.3020   -4.2780   20.6620 C.3    59  MET59       0.0598
     97  SD        -8.2190   -5.1640   19.0830 S.3    59  MET59      -0.1393
     98  CE        -6.6730   -5.9640   19.4290 C.3    59  MET59       0.0692
     99  N          1.6760   -6.4070   18.4180 N.3    65  LEU65      -0.1245
    100  CA         1.3620   -7.8290   18.5460 C.3    65  LEU65       0.1561
    101  C          2.4700   -8.5850   19.2770 C.2    65  LEU65       0.2260
    102  O          2.1980   -9.4080   20.1610 O.2    65  LEU65      -0.2867
    103  CB         1.1180   -8.4280   17.1570 C.3    65  LEU65       0.0270
    104  CG         0.7820   -9.9180   17.1490 C.3    65  LEU65       0.0019
    105  CD1       -0.4960  -10.1580   17.9030 C.3    65  LEU65       0.0001
    106  CD2        0.6610  -10.4080   15.7240 C.3    65  LEU65       0.0001
    107  N          2.2450   -8.0140   22.9160 N.3    68  TRP68      -0.1241
    108  CA         1.0280   -8.5460   23.5180 C.3    68  TRP68       0.1605
    109  C          1.1420  -10.0420   23.8030 C.2    68  TRP68       0.2264
    110  O          0.6370  -10.5170   24.8300 O.2    68  TRP68      -0.2867
    111  CB        -0.1570   -8.2560   22.5980 C.3    68  TRP68       0.0550
    112  CG        -1.4310   -8.9300   22.9800 C.ar   68  TRP68       0.0003
    113  CD1       -2.4070   -8.4410   23.7960 C.ar   68  TRP68       0.0946
    114  CD2       -1.8850  -10.2100   22.5280 C.ar   68  TRP68       0.0152
    115  NE1       -3.4350   -9.3520   23.9090 N.ar   68  TRP68      -0.2442
    116  CE2       -3.1350  -10.4460   23.1350 C.ar   68  TRP68       0.0810
    117  CE3       -1.3480  -11.1840   21.6750 C.ar   68  TRP68       0.0012
    118  CZ2       -3.8730  -11.6180   22.8910 C.ar   68  TRP68       0.0191
    119  CZ3       -2.0720  -12.3430   21.4570 C.ar   68  TRP68       0.0001
    120  CH2       -3.3090  -12.5460   22.0720 C.ar   68  TRP68       0.0015
    121  N         -3.3250  -17.8530   17.4230 N.3    86  PHE86      -0.1241
    122  CA        -3.7650  -16.6380   16.7490 C.3    86  PHE86       0.1605
    123  C         -3.2750  -16.5900   15.3070 C.2    86  PHE86       0.2264
    124  O         -4.0590  -16.2910   14.4010 O.2    86  PHE86      -0.2867
    125  CB        -3.3070  -15.4170   17.5480 C.3    86  PHE86       0.0534
    126  CG        -4.2270  -15.1010   18.7010 C.ar   86  PHE86      -0.0203
    127  CD1       -4.2080  -15.8760   19.8440 C.ar   86  PHE86      -0.0042
    128  CD2       -5.1340  -14.0620   18.6180 C.ar   86  PHE86      -0.0042
    129  CE1       -5.0780  -15.6190   20.8990 C.ar   86  PHE86      -0.0003
    130  CE2       -6.0050  -13.8050   19.6630 C.ar   86  PHE86      -0.0003
    131  CZ        -5.9720  -14.5680   20.8030 C.ar   86  PHE86      -0.0000
    132  N         -5.4690  -18.9240   13.1420 N.3    89  ALA89      -0.1231
    133  CA        -6.8200  -18.4350   12.9170 C.3    89  ALA89       0.1694
    134  C         -6.8140  -17.2000   12.0240 C.2    89  ALA89       0.2591
    135  O         -7.6960  -17.0320   11.1770 O.2    89  ALA89      -0.2718
    136  CB        -7.4980  -18.1350   14.2650 C.3    89  ALA89       0.0304
    137  N         -5.8400  -16.3130   12.2100 N.am   90  ILE90      -0.1980
    138  CA        -5.7700  -15.1150   11.3840 C.3    90  ILE90       0.1595
    139  C         -5.4520  -15.4800    9.9320 C.2    90  ILE90       0.2287
    140  O         -6.0070  -14.8850    8.9910 O.2    90  ILE90      -0.2864
    141  CB        -4.7550  -14.1440   12.0090 C.3    90  ILE90       0.0276
    142  CG1       -5.3070  -13.6180   13.3360 C.3    90  ILE90       0.0022
    143  CG2       -4.5040  -12.9880   11.1240 C.3    90  ILE90       0.0022
    144  CD1       -4.2470  -12.9280   14.2010 C.3    90  ILE90       0.0001
    145  N         -8.7530  -16.4800    8.1050 N.3    93  ARG93      -0.1245
    146  CA        -9.8730  -15.5510    7.9850 C.3    93  ARG93       0.1563
    147  C        -10.3750  -15.5130    6.5450 C.2    93  ARG93       0.2260
    148  O         -9.6180  -15.6950    5.5900 O.2    93  ARG93      -0.2867
    149  CB        -9.4630  -14.1440    8.4280 C.3    93  ARG93       0.0307
    150  CG        -9.2350  -14.0140    9.9190 C.3    93  ARG93       0.0489
    151  CD        -9.2550  -12.5300   10.3420 C.3    93  ARG93       0.2205
    152  NE        -8.1770  -11.7760    9.7240 N.pl3  93  ARG93      -0.0865
    153  CZ        -8.0760  -10.4520    9.7190 C.cat  93  ARG93       0.5346
    154  NH1       -9.0070   -9.6910   10.2880 N.pl3  93  ARG93       0.1354
    155  NH2       -7.0340   -9.8940    9.1270 N.pl3  93  ARG93       0.1354
    156  N        -12.2270   -2.6950   15.9520 N.3   118  ASN118     -0.1240
    157  CA       -11.0450   -2.8920   16.7760 C.3   118  ASN118      0.1653
    158  C        -10.0780   -3.7990   16.0350 C.2   118  ASN118      0.2266
    159  O        -10.4660   -4.8770   15.5740 O.2   118  ASN118     -0.2867
    160  CB       -11.4510   -3.5000   18.1120 C.3   118  ASN118      0.1155
    161  CG       -12.1510   -2.5000   19.0140 C.2   118  ASN118      0.2627
    162  OD1      -11.9520   -1.2940   18.8930 O.2   118  ASN118     -0.2716
    163  ND2      -12.9570   -3.0120   19.9460 N.am  118  ASN118     -0.0877
    164  N         -5.4560   -4.6390   15.3340 N.3   120  TRP120     -0.1241
    165  CA        -4.1390   -4.6340   15.9520 C.3   120  TRP120      0.1605
    166  C         -3.0560   -4.2510   14.9480 C.2   120  TRP120      0.2264
    167  O         -3.2320   -4.3660   13.7310 O.2   120  TRP120     -0.2867
    168  CB        -3.8330   -6.0150   16.5630 C.3   120  TRP120      0.0550
    169  CG        -3.8370   -7.1200   15.5390 C.ar  120  TRP120      0.0003
    170  CD1       -2.7390   -7.6940   14.9230 C.ar  120  TRP120      0.0946
    171  CD2       -4.9860   -7.7820   15.0060 C.ar  120  TRP120      0.0152
    172  NE1       -3.1630   -8.6580   14.0320 N.ar  120  TRP120     -0.2442
    173  CE2       -4.5270   -8.7400   14.0740 C.ar  120  TRP120      0.0810
    174  CE3       -6.3620   -7.6570   15.2250 C.ar  120  TRP120      0.0012
    175  CZ2       -5.4000   -9.5630   13.3570 C.ar  120  TRP120      0.0191
    176  CZ3       -7.2300   -8.4840   14.5160 C.ar  120  TRP120      0.0001
    177  CH2       -6.7390   -9.4210   13.5980 C.ar  120  TRP120      0.0015
    178  N        -13.5140    0.6960   20.5080 N.3   146  LYS146     -0.1245
    179  CA       -14.8990    0.4330   20.8490 C.3   146  LYS146      0.1561
    180  C        -14.8360   -0.3980   22.1230 C.2   146  LYS146      0.2260
    181  O        -14.0060   -1.2980   22.2220 O.2   146  LYS146     -0.2867
    182  CB       -15.6140   -0.3480   19.7350 C.3   146  LYS146      0.0271
    183  CG       -15.5280    0.3320   18.3480 C.3   146  LYS146      0.0035
    184  CD       -15.3100   -0.7210   17.2320 C.3   146  LYS146      0.0206
    185  CE       -16.5560   -1.5150   17.0020 C.3   146  LYS146      0.1093
    186  NZ       -16.3890   -2.5890   15.9500 N.3   146  LYS146     -0.1314
    187  N        -22.5140   -4.9750   14.2640 N.3   170  ASP170     -0.1225
    188  CA       -21.3850   -5.5130   15.0260 C.3   170  ASP170      0.1805
    189  C        -21.7950   -6.8550   15.6190 C.2   170  ASP170      0.2598
    190  O        -22.9720   -7.0680   15.9230 O.2   170  ASP170     -0.2718
    191  CB       -20.9890   -4.5450   16.1560 C.3   170  ASP170      0.1424
    192  CG       -19.5620   -4.7270   16.6620 C.2   170  ASP170      0.3668
    193  OD1      -19.1840   -5.7630   17.2700 O.co2 170  ASP170     -0.2456
    194  OD2      -18.8030   -3.7570   16.5190 O.co2 170  ASP170     -0.2456
    195  N        -20.8250   -7.7650   15.7730 N.am  171  ASP171     -0.1960
    196  CA       -21.0880   -9.0490   16.4270 C.3   171  ASP171      0.1840
    197  C        -21.1150   -8.9450   17.9540 C.2   171  ASP171      0.2621
    198  O        -21.5470   -9.9040   18.6210 O.2   171  ASP171     -0.2715
    199  CB       -20.0500  -10.1200   15.9820 C.3   171  ASP171      0.1450
    200  CG       -18.5820   -9.7300   16.2820 C.2   171  ASP171      0.3671
    201  OD1      -17.8060  -10.5410   16.8450 O.co2 171  ASP171     -0.2456
    202  OD2      -18.1340   -8.6360   15.9130 O.co2 171  ASP171     -0.2456
    203  N        -20.6950   -7.8130   18.5150 N.am  172  ILE172     -0.1977
    204  CA       -20.5290   -7.6470   19.9620 C.3   172  ILE172      0.1596
    205  C        -21.5270   -6.6040   20.4600 C.2   172  ILE172      0.2287
    206  O        -21.4600   -5.4250   20.0800 O.2   172  ILE172     -0.2864
    207  CB       -19.0900   -7.2370   20.3220 C.3   172  ILE172      0.0276
    208  CG1      -18.0850   -8.3070   19.8880 C.3   172  ILE172      0.0022
    209  CG2      -18.9690   -6.9340   21.8170 C.3   172  ILE172      0.0022
    210  CD1      -18.2930   -9.6710   20.5220 C.3   172  ILE172      0.0001
    211  N        -20.4310   -3.2310   21.9080 N.3   175  ASN175     -0.1240
    212  CA       -20.0380   -2.2200   20.9330 C.3   175  ASN175      0.1653
    213  C        -21.2260   -1.4940   20.3260 C.2   175  ASN175      0.2266
    214  O        -21.0540   -0.3810   19.8160 O.2   175  ASN175     -0.2867
    215  CB       -19.2320   -2.8510   19.7870 C.3   175  ASN175      0.1155
    216  CG       -17.8570   -3.3010   20.2190 C.2   175  ASN175      0.2627
    217  OD1      -17.3520   -2.8980   21.2740 O.2   175  ASN175     -0.2716
    218  ND2      -17.2180   -4.1360   19.3910 N.am  175  ASN175     -0.0877
@<TRIPOS>BOND
     1   148   147    2
     2   147   146    1
     3   146   145    1
     4   146   149    1
     5   149   150    1
     6   140   139    2
     7   155   153    1
     8   153   152    2
     9   153   154    1
    10   152   151    1
    11   150   151    1
    12   139   138    1
    13     4     3    2
    14     3     2    1
    15   143   141    1
    16    17    23    1
    17    17    18    1
    18   135   134    2
    19     1     2    1
    20    23    22    1
    21   138   141    1
    22   138   137    1
    23    16    14   ar
    24     2     5    1
    25     9    10    1
    26   141   142    1
    27   134   137   am
    28   134   133    1
    29    18    21    1
    30    18    19    1
    31    10    11    1
    32    10    13    1
    33    14    15   ar
    34    14    13    1
    35    22    21    1
    36   133   132    1
    37   133   136    1
    38    20    19    2
    39    11    12    2
    40     5     6    1
    41   142   144    1
    42   175   177   ar
    43   175   173   ar
    44   177   176   ar
    45   167   166    2
    46     6     7   ar
    47     6     8   ar
    48   172   173   ar
    49   172   170   ar
    50   173   171   ar
    51   187   188    1
    52   124   123    2
    53   176   174   ar
    54   170   169   ar
    55   166   165    1
    56   171   174   ar
    57   171   169   ar
    58   188   189    1
    59   188   191    1
    60   123   122    1
    61   164   165    1
    62   169   168    1
    63   159   158    2
    64   189   195   am
    65   189   190    2
    66   106   104    1
    67   195   196    1
    68    48    46    1
    69   202   200   ar
    70   186   185    1
    71   156   157    1
    72   165   168    1
    73   199   200    1
    74   199   196    1
    75   158   157    1
    76   191   192    1
    77   200   201   ar
    78   196   197    1
    79   194   192   ar
    80   192   193   ar
    81   122   121    1
    82   122   125    1
    83   157   160    1
    84   185   184    1
    85   104   103    1
    86   104   105    1
    87    24    25    1
    88   103   100    1
    89   184   183    1
    90    46    47    1
    91    46    43    1
    92   125   126    1
    93    43    42    1
    94    43    44    1
    95   197   203   am
    96   197   198    2
    97    25    28    1
    98    25    26    1
    99   160   161    1
   100   183   182    1
   101    99   100    1
   102   203   204    1
   103   100   101    1
   104   128   126   ar
   105   128   130   ar
   106    28    30    1
   107    28    29    1
   108   126   127   ar
   109   162   161    2
   110    94    93    2
   111   161   163   am
   112    97    98    1
   113    97    96    1
   114    26    31   am
   115    26    27    2
   116   101   102    2
   117    44    45    2
   118   218   216   am
   119    31    32    1
   120   130   131   ar
   121    86    85    2
   122    89    88    1
   123   182   179    1
   124   215   216    1
   125   215   212    1
   126   214   213    2
   127   127   129   ar
   128   208   207    1
   129   208   210    1
   130   204   207    1
   131   204   205    1
   132    93    92    1
   133    90    88    1
   134   206   205    2
   135    88    87    1
   136    92    95    1
   137    92    91    1
   138   216   217    2
   139   207   209    1
   140   213   212    1
   141    33    32    1
   142    33    34    2
   143   178   179    1
   144    95    96    1
   145    37    39   ar
   146    37    36   ar
   147    85    91   am
   148    85    84    1
   149    32    35    1
   150   131   129   ar
   151   179   180    1
   152    39    41   ar
   153   212   211    1
   154    35    36    1
   155   119   117   ar
   156   119   120   ar
   157    87    84    1
   158    36    38   ar
   159    84    83    1
   160   117   114   ar
   161    59    57   ar
   162    59    58   ar
   163    41    40   ar
   164   120   118   ar
   165   180   181    2
   166    57    55   ar
   167   114   112   ar
   168   114   116   ar
   169    38    40   ar
   170   111   112    1
   171   111   108    1
   172    58    56   ar
   173   118   116   ar
   174   107   108    1
   175   112   113   ar
   176   116   115   ar
   177    72    71    2
   178    75    73    1
   179   108   109    1
   180    55    54   ar
   181    79    78    2
   182   113   115   ar
   183   109   110    2
   184    56    54   ar
   185    54    53    1
   186    71    70    1
   187    71    76   am
   188    78    77    1
   189    70    73    1
   190    70    69    1
   191    73    74    1
   192    77    76    1
   193    77    80    1
   194    53    50    1
   195    82    80    1
   196    80    81    1
   197    52    51    2
   198    50    51    1
   199    50    49    1
   200    67    66    2
   201    66    65    1
   202    66    68   am
   203    65    64    1
   204    51    60   am
   205    60    61    1
   206    61    64    1
   207    61    62    1
   208    62    63    2
