@<TRIPOS>MOLECULE
tmp/5mwdA00.pdb
 84 82 0 0 0
SMALL
GASTEIGER

@<TRIPOS>ATOM
      1  N          7.8630   25.1940   21.6070 N.3    42  THR42      -0.1218
      2  CA         8.8000   24.1110   21.9290 C.3    42  THR42       0.1862
      3  C          8.2690   22.7560   21.4890 C.2    42  THR42       0.2287
      4  O          9.0240   21.9780   20.9100 O.2    42  THR42      -0.2866
      5  CB         9.1740   24.1230   23.4130 C.3    42  THR42       0.1770
      6  OG1        7.9730   24.0940   24.1840 O.3    42  THR42      -0.2211
      7  CG2       10.0380   25.3260   23.7880 C.3    42  THR42       0.0375
      8  N          8.1460   22.5940   17.5640 N.3    45  MET45      -0.1230
      9  CA         9.5160   22.3950   17.0720 C.3    45  MET45       0.1702
     10  C          9.9450   20.9500   17.2720 C.2    45  MET45       0.2592
     11  O         10.5670   20.3650   16.3800 O.2    45  MET45      -0.2718
     12  CB        10.5000   23.3150   17.7990 C.3    45  MET45       0.0401
     13  CG        10.3740   24.7750   17.4210 C.3    45  MET45       0.0596
     14  SD        11.4820   25.7570   18.4560 S.3    45  MET45      -0.1393
     15  CE        12.9590   25.6190   17.5360 C.3    45  MET45       0.0692
     16  N          9.5940   20.3690   18.4370 N.am   46  ALA46      -0.1966
     17  CA         9.9310   18.9940   18.7880 C.3    46  ALA46       0.1728
     18  C          9.3030   17.9560   17.8540 C.2    46  ALA46       0.2616
     19  O          9.8510   16.8620   17.7360 O.2    46  ALA46      -0.2715
     20  CB         9.5330   18.6980   20.2280 C.3    46  ALA46       0.0334
     21  N          8.1680   18.2890   17.2030 N.am   47  CYS47      -0.1954
     22  CA         7.4160   17.3460   16.3600 C.3    47  CYS47       0.1843
     23  C          7.4670   17.6080   14.8680 C.2    47  CYS47       0.2626
     24  O          7.1160   16.7190   14.0940 O.2    47  CYS47      -0.2714
     25  CB         5.9620   17.2870   16.8190 C.3    47  CYS47       0.0997
     26  SG         5.7400   16.9480   18.5790 S.3    47  CYS47      -0.0797
     27  N          7.7930   18.8290   14.4590 N.am   48  SER48      -0.1936
     28  CA         7.6870   19.2290   13.0650 C.3    48  SER48       0.2055
     29  C          8.9410   19.8740   12.4960 C.2    48  SER48       0.2643
     30  O          9.4300   20.8470   13.0600 O.2    48  SER48      -0.2714
     31  CB         6.4830   20.1670   12.9290 C.3    48  SER48       0.2130
     32  OG         6.4870   21.0300   11.8050 O.3    48  SER48      -0.2179
     33  N          9.4050   19.3590   11.3490 N.am   49  GLY49      -0.1954
     34  CA        10.5330   19.9250   10.6140 C.3    49  GLY49       0.1869
     35  C         10.2720   21.3700   10.2240 C.2    49  GLY49       0.2309
     36  O         11.1770   22.2050   10.3010 O.2    49  GLY49      -0.2863
     37  N         10.3120   23.5990   13.4480 N.3    52  TYR52      -0.1241
     38  CA        11.7130   23.6140   13.8700 C.3    52  TYR52       0.1605
     39  C         12.4650   24.6540   13.0260 C.2    52  TYR52       0.2264
     40  O         13.0760   25.5450   13.5980 O.2    52  TYR52      -0.2867
     41  CB        12.3640   22.2330   13.7100 C.3    52  TYR52       0.0534
     42  CG        13.8530   22.2560   13.9730 C.ar   52  TYR52      -0.0201
     43  CD1       14.3520   22.2640   15.2730 C.ar   52  TYR52      -0.0009
     44  CD2       14.7650   22.2970   12.9220 C.ar   52  TYR52      -0.0009
     45  CE1       15.7230   22.2800   15.5210 C.ar   52  TYR52       0.0417
     46  CE2       16.1360   22.3410   13.1590 C.ar   52  TYR52       0.0417
     47  CZ        16.6100   22.3380   14.4600 C.ar   52  TYR52       0.1957
     48  OH        17.9610   22.3840   14.6890 O.3    52  TYR52      -0.2866
     49  N          6.4150   18.6180    7.5680 N.3   107  GLN107     -0.1231
     50  CA         7.6770   17.8680    7.5810 C.3   107  GLN107      0.1698
     51  C          7.7500   16.9820    8.8370 C.2   107  GLN107      0.2592
     52  O          8.6690   17.0980    9.6550 O.2   107  GLN107     -0.2718
     53  CB         8.8960   18.8020    7.4550 C.3   107  GLN107      0.0381
     54  CG         8.8840   19.6920    6.2170 C.3   107  GLN107      0.0905
     55  CD         9.8690   20.8260    6.3380 C.2   107  GLN107      0.2608
     56  OE1       10.9540   20.6840    6.9140 O.2   107  GLN107     -0.2717
     57  NE2        9.5150   21.9790    5.7870 N.am  107  GLN107     -0.0878
     58  N          6.7150   16.1500    9.0140 N.am  108  MET108     -0.1965
     59  CA         6.6050   15.1970   10.1130 C.3   108  MET108      0.1736
     60  C          6.8090   13.8420    9.4540 C.2   108  MET108      0.2616
     61  O          5.8440   13.1470    9.1260 O.2   108  MET108     -0.2715
     62  CB         5.2340   15.3190   10.8030 C.3   108  MET108      0.0427
     63  CG         5.0320   16.6600   11.5180 C.3   108  MET108      0.0599
     64  SD         3.3240   16.9300   12.0570 S.3   108  MET108     -0.1393
     65  CE         3.2810   15.8590   13.5490 C.3   108  MET108      0.0692
     66  N          8.0840   13.5230    9.1750 N.am  109  GLU109     -0.1963
     67  CA         8.5260   12.3300    8.4500 C.3   109  GLU109      0.1733
     68  C          7.9370   11.0160    8.9690 C.2   109  GLU109      0.2616
     69  O          7.4600   10.2130    8.1660 O.2   109  GLU109     -0.2715
     70  CB        10.0590   12.2560    8.3930 C.3   109  GLU109      0.0429
     71  CG        10.5720   11.5050    7.1730 C.3   109  GLU109      0.1163
     72  CD        12.0610   11.2220    7.1410 C.2   109  GLU109      0.3649
     73  OE1       12.8570   12.1670    7.3510 O.co2 109  GLU109     -0.2457
     74  OE2       12.4340   10.0600    6.8620 O.co2 109  GLU109     -0.2457
     75  N          7.9460   10.8060   10.2940 N.am  110  HIS110     -0.1973
     76  CA         7.4200    9.5880   10.9070 C.3   110  HIS110      0.1656
     77  C          5.9280    9.4100   10.6400 C.2   110  HIS110      0.2291
     78  O          5.5040    8.3070   10.3020 O.2   110  HIS110     -0.2864
     79  CB         7.7420    9.5370   12.4070 C.3   110  HIS110      0.0771
     80  CG         7.7520    8.1570   12.9790 C.ar  110  HIS110      0.0820
     81  ND1        7.4900    7.9340   14.3170 N.ar  110  HIS110     -0.2267
     82  CD2        7.9730    6.9650   12.3740 C.ar  110  HIS110      0.1154
     83  CE1        7.5610    6.6240   14.4850 C.ar  110  HIS110      0.1986
     84  NE2        7.8500    6.0000   13.3440 N.ar  110  HIS110     -0.2212
@<TRIPOS>BOND
     1    57    55   am
     2    54    55    1
     3    54    53    1
     4    55    56    2
     5    74    72   ar
     6    72    71    1
     7    72    73   ar
     8    71    70    1
     9    53    50    1
    10    49    50    1
    11    50    51    1
    12    69    68    2
    13    70    67    1
    14    67    68    1
    15    67    66    1
    16    51    58   am
    17    51    52    2
    18    68    75   am
    19    58    59    1
    20    61    60    2
    21    66    60   am
    22    60    59    1
    23    59    62    1
    24    35    36    2
    25    35    34    1
    26    75    76    1
    27    78    77    2
    28    34    33    1
    29    77    76    1
    30    62    63    1
    31    76    79    1
    32    33    29   am
    33    63    64    1
    34    32    31    1
    35    64    65    1
    36    82    80   ar
    37    82    84   ar
    38    79    80    1
    39    29    30    2
    40    29    28    1
    41    44    46   ar
    42    44    42   ar
    43    31    28    1
    44    80    81   ar
    45    39    40    2
    46    39    38    1
    47    28    27    1
    48    46    47   ar
    49    84    83   ar
    50    37    38    1
    51    41    38    1
    52    41    42    1
    53    42    43   ar
    54    24    23    2
    55    81    83   ar
    56    27    23   am
    57    47    48    1
    58    47    45   ar
    59    23    22    1
    60    43    45   ar
    61    22    25    1
    62    22    21    1
    63    11    10    2
    64    25    26    1
    65     9    10    1
    66     9     8    1
    67     9    12    1
    68    21    18   am
    69    10    16   am
    70    13    12    1
    71    13    14    1
    72    15    14    1
    73    19    18    2
    74    18    17    1
    75    16    17    1
    76    17    20    1
    77     4     3    2
    78     3     2    1
    79     1     2    1
    80     2     5    1
    81     5     7    1
    82     5     6    1
