@<TRIPOS>MOLECULE
tmp/5mwgB00.pdb
 134 133 0 0 0
SMALL
GASTEIGER

@<TRIPOS>ATOM
      1  N         20.6860   -1.6700    2.8280 N.3    23  GLY23      -0.1210
      2  CA        21.8050   -2.4700    3.2910 C.3    23  GLY23       0.1956
      3  C         21.8370   -3.8730    2.7380 C.2    23  GLY23       0.2612
      4  O         22.7980   -4.6140    2.9700 O.2    23  GLY23      -0.2717
      5  N         20.7990   -4.2520    1.9910 N.am   24  ASN24      -0.1960
      6  CA        20.6610   -5.5820    1.4110 C.3    24  ASN24       0.1819
      7  C         20.6560   -6.6590    2.4850 C.2    24  ASN24       0.2621
      8  O         20.9910   -7.8100    2.2210 O.2    24  ASN24      -0.2715
      9  CB        21.7460   -5.8630    0.3660 C.3    24  ASN24       0.1195
     10  CG        21.5690   -5.0390   -0.8900 C.2    24  ASN24       0.2630
     11  OD1       20.5430   -4.3940   -1.0840 O.2    24  ASN24      -0.2716
     12  ND2       22.5780   -5.0540   -1.7520 N.am   24  ASN24      -0.0877
     13  N         20.2120   -6.3180    3.6970 N.am   25  ILE25      -0.1963
     14  CA        20.3330   -7.2910    4.7700 C.3    25  ILE25       0.1727
     15  C         19.2490   -8.3560    4.6970 C.2    25  ILE25       0.2616
     16  O         19.4290   -9.4400    5.2600 O.2    25  ILE25      -0.2715
     17  CB        20.3300   -6.6040    6.1440 C.3    25  ILE25       0.0290
     18  CG1       18.9940   -5.9330    6.4230 C.3    25  ILE25       0.0022
     19  CG2       21.4420   -5.5620    6.2120 C.3    25  ILE25       0.0023
     20  CD1       18.9760   -5.3150    7.8030 C.3    25  ILE25       0.0001
     21  N         18.1490   -8.0970    3.9850 N.am   26  PHE26      -0.1974
     22  CA        17.0920   -9.0810    3.7990 C.3    26  PHE26       0.1639
     23  C         17.1570   -9.7530    2.4340 C.2    26  PHE26       0.2290
     24  O         16.1960  -10.4090    2.0330 O.2    26  PHE26      -0.2864
     25  CB        15.7240   -8.4210    4.0060 C.3    26  PHE26       0.0560
     26  CG        15.5850   -7.7450    5.3530 C.ar   26  PHE26      -0.0200
     27  CD1       15.5410   -8.4980    6.5170 C.ar   26  PHE26      -0.0042
     28  CD2       15.5200   -6.3640    5.4560 C.ar   26  PHE26      -0.0042
     29  CE1       15.4220   -7.8890    7.7620 C.ar   26  PHE26      -0.0003
     30  CE2       15.4020   -5.7500    6.7060 C.ar   26  PHE26      -0.0003
     31  CZ        15.3630   -6.5100    7.8460 C.ar   26  PHE26      -0.0000
     32  N         18.9670  -12.2360    1.1740 N.3    28  GLU28      -0.1231
     33  CA        19.1750  -13.6750    1.1490 C.3    28  GLU28       0.1684
     34  C         18.7670  -14.2460    2.4930 C.2    28  GLU28       0.2434
     35  O         18.6090  -13.5000    3.4680 O.2    28  GLU28      -0.2733
     36  CB        20.6510  -13.9960    0.8480 C.3    28  GLU28       0.0402
     37  CG        21.0200  -13.8040   -0.6120 C.3    28  GLU28       0.1161
     38  CD        22.4990  -14.0430   -0.8600 C.2    28  GLU28       0.3649
     39  OE1       23.0080  -15.0910   -0.4120 O.co2  28  GLU28      -0.2457
     40  OE2       23.1490  -13.1810   -1.4870 O.co2  28  GLU28      -0.2457
     41  N         18.5520  -15.5630    2.5860 N.am   29  PRO29      -0.2718
     42  CA        18.1660  -16.1580    3.8700 C.3    29  PRO29       0.1535
     43  C         19.1640  -15.8180    4.9630 C.2    29  PRO29       0.2598
     44  O         20.3730  -15.7550    4.7270 O.2    29  PRO29      -0.2715
     45  CB        18.1380  -17.6640    3.5780 C.3    29  PRO29       0.0310
     46  CG        17.8480  -17.7590    2.1270 C.3    29  PRO29       0.0237
     47  CD        18.4790  -16.5440    1.4800 C.3    29  PRO29       0.0939
     48  N         18.6400  -15.5780    6.1610 N.am   30  VAL30      -0.1964
     49  CA        19.4740  -15.3780    7.3390 C.3    30  VAL30       0.1712
     50  C         20.4290  -16.5650    7.4030 C.2    30  VAL30       0.2458
     51  O         19.9940  -17.7250    7.2950 O.2    30  VAL30      -0.2730
     52  CB        18.6250  -15.2370    8.6110 C.3    30  VAL30       0.0289
     53  CG1       19.5160  -15.2320    9.8270 C.3    30  VAL30       0.0023
     54  CG2       17.8050  -13.9470    8.5680 C.3    30  VAL30       0.0023
     55  N         21.7340  -16.3230    7.5200 N.am   31  PRO31      -0.2727
     56  CA        22.7050  -17.4190    7.3900 C.3    31  PRO31       0.1402
     57  C         22.7490  -18.3280    8.6060 C.2    31  PRO31       0.2269
     58  O         23.2740  -17.9450    9.6530 O.2    31  PRO31      -0.2865
     59  CB        24.0380  -16.6820    7.1910 C.3    31  PRO31       0.0296
     60  CG        23.8280  -15.3390    7.8180 C.3    31  PRO31       0.0237
     61  CD        22.3770  -15.0000    7.5550 C.3    31  PRO31       0.0939
     62  N         26.0260  -18.6400   10.4730 N.3    34  GLU34      -0.1231
     63  CA        26.3470  -17.5580   11.3940 C.3    34  GLU34       0.1699
     64  C         25.4000  -17.5040   12.5840 C.2    34  GLU34       0.2592
     65  O         25.7680  -16.9580   13.6300 O.2    34  GLU34      -0.2718
     66  CB        26.3270  -16.2110   10.6610 C.3    34  GLU34       0.0402
     67  CG        27.2240  -16.1510    9.4210 C.3    34  GLU34       0.1161
     68  CD        28.5950  -15.5420    9.6980 C.2    34  GLU34       0.3649
     69  OE1       29.0580  -15.5850   10.8590 O.co2  34  GLU34      -0.2457
     70  OE2       29.2140  -15.0190    8.7470 O.co2  34  GLU34      -0.2457
     71  N         24.1980  -18.0580   12.4570 N.am   35  VAL35      -0.1980
     72  CA        23.2430  -18.0510   13.5620 C.3    35  VAL35       0.1595
     73  C         22.6300  -19.4440   13.6840 C.2    35  VAL35       0.2287
     74  O         21.5120  -19.6970   13.2050 O.2    35  VAL35      -0.2864
     75  CB        22.2060  -16.9290   13.3720 C.3    35  VAL35       0.0276
     76  CG1       21.6100  -16.9580   11.9880 C.3    35  VAL35       0.0022
     77  CG2       21.1390  -16.9990   14.4160 C.3    35  VAL35       0.0022
     78  N         18.8180  -20.0190   14.8370 N.3    38  TYR38      -0.1241
     79  CA        17.7730  -19.1930   14.2400 C.3    38  TYR38       0.1605
     80  C         16.4690  -19.9680   14.0870 C.2    38  TYR38       0.2264
     81  O         15.3920  -19.4570   14.4180 O.2    38  TYR38      -0.2867
     82  CB        18.2480  -18.6540   12.8890 C.3    38  TYR38       0.0534
     83  CG        17.2970  -17.6570   12.2630 C.ar   38  TYR38      -0.0201
     84  CD1       17.1750  -16.3680   12.7700 C.ar   38  TYR38      -0.0009
     85  CD2       16.5190  -18.0080   11.1650 C.ar   38  TYR38      -0.0009
     86  CE1       16.3040  -15.4530   12.2030 C.ar   38  TYR38       0.0417
     87  CE2       15.6470  -17.1120   10.5970 C.ar   38  TYR38       0.0417
     88  CZ        15.5430  -15.8400   11.1140 C.ar   38  TYR38       0.1957
     89  OH        14.6660  -14.9480   10.5330 O.3    38  TYR38      -0.2866
     90  N         12.1950  -10.9320   11.7690 N.3    77  CYS77      -0.1235
     91  CA        13.3150  -10.1130   12.2180 C.3    77  CYS77       0.1677
     92  C         13.0070   -9.4500   13.5490 C.2    77  CYS77       0.2270
     93  O         13.8440   -9.4450   14.4660 O.2    77  CYS77      -0.2867
     94  CB        13.6300   -9.0660   11.1580 C.3    77  CYS77       0.0956
     95  SG        15.0790   -8.0670   11.5350 S.3    77  CYS77      -0.0801
     96  N         13.2150  -12.3510   16.1920 N.3    80  TYR80      -0.1227
     97  CA        14.5000  -12.9410   16.5570 C.3    80  TYR80       0.1736
     98  C         15.4000  -11.9470   17.2760 C.2    80  TYR80       0.2595
     99  O         16.1120  -12.3190   18.2190 O.2    80  TYR80      -0.2718
    100  CB        15.2180  -13.4810   15.3220 C.3    80  TYR80       0.0548
    101  CG        16.4960  -14.1660   15.7220 C.ar   80  TYR80      -0.0200
    102  CD1       16.4630  -15.4290   16.2850 C.ar   80  TYR80      -0.0009
    103  CD2       17.7250  -13.5340   15.5800 C.ar   80  TYR80      -0.0009
    104  CE1       17.6190  -16.0570   16.6950 C.ar   80  TYR80       0.0417
    105  CE2       18.8890  -14.1570   15.9780 C.ar   80  TYR80       0.0417
    106  CZ        18.8280  -15.4220   16.5340 C.ar   80  TYR80       0.1957
    107  OH        19.9840  -16.0550   16.9430 O.3    80  TYR80      -0.2866
    108  N         15.3860  -10.6880   16.8570 N.am   81  ASN81      -0.1974
    109  CA        16.4100   -9.7330   17.2620 C.3    81  ASN81       0.1688
    110  C         15.9110   -8.8190   18.3760 C.2    81  ASN81       0.2292
    111  O         14.7350   -8.4460   18.4170 O.2    81  ASN81      -0.2864
    112  CB        16.8600   -8.9030   16.0620 C.3    81  ASN81       0.1181
    113  CG        17.4060   -9.7690   14.9410 C.2    81  ASN81       0.2629
    114  OD1       16.7130  -10.0450   13.9570 O.2    81  ASN81      -0.2716
    115  ND2       18.6520  -10.1980   15.0780 N.am   81  ASN81      -0.0877
    116  N         20.7070   -3.2530   15.0170 N.3    86  ILE86      -0.1231
    117  CA        20.6100   -2.7990   13.6340 C.3    86  ILE86       0.1692
    118  C         19.4930   -3.5350   12.9030 C.2    86  ILE86       0.2592
    119  O         18.7010   -2.9250   12.1750 O.2    86  ILE86      -0.2718
    120  CB        21.9740   -2.9690   12.9410 C.3    86  ILE86       0.0266
    121  CG1       22.0190   -2.2060   11.6240 C.3    86  ILE86       0.0019
    122  CG2       22.3890   -4.4490   12.8080 C.3    86  ILE86       0.0020
    123  CD1       23.4190   -1.7740   11.2980 C.3    86  ILE86       0.0001
    124  N         19.3900   -4.8490   13.1030 N.am   87  PHE87      -0.1976
    125  CA        18.4070   -5.6140   12.3450 C.3    87  PHE87       0.1639
    126  C         16.9860   -5.2380   12.7510 C.2    87  PHE87       0.2290
    127  O         16.1310   -5.0150   11.8900 O.2    87  PHE87      -0.2864
    128  CB        18.6430   -7.1090   12.5330 C.3    87  PHE87       0.0560
    129  CG        19.9710   -7.5910   12.0100 C.ar   87  PHE87      -0.0200
    130  CD1       20.5940   -6.9620   10.9410 C.ar   87  PHE87      -0.0042
    131  CD2       20.5900   -8.6690   12.6000 C.ar   87  PHE87      -0.0042
    132  CE1       21.8200   -7.4130   10.4750 C.ar   87  PHE87      -0.0003
    133  CE2       21.8160   -9.1150   12.1390 C.ar   87  PHE87      -0.0003
    134  CZ        22.4170   -8.4900   11.0690 C.ar   87  PHE87      -0.0000
@<TRIPOS>BOND
     1    12    10   am
     2    40    38   ar
     3    11    10    2
     4    10     9    1
     5    38    37    1
     6    38    39   ar
     7    37    36    1
     8     9     6    1
     9    36    33    1
    10    33    32    1
    11    33    34    1
    12     6     5    1
    13     6     7    1
    14    47    46    1
    15    47    41    1
    16     5     3   am
    17    24    23    2
    18    46    45    1
    19     8     7    2
    20    23    22    1
    21     7    13   am
    22    34    41   am
    23    34    35    2
    24    41    42    1
    25     3     4    2
    26     3     2    1
    27     1     2    1
    28    45    42    1
    29    13    14    1
    30    22    21    1
    31    22    25    1
    32    42    43    1
    33    21    15   am
    34    25    26    1
    35    15    14    1
    36    15    16    2
    37    44    43    2
    38    14    17    1
    39    43    48   am
    40    26    28   ar
    41    26    27   ar
    42    28    30   ar
    43    17    19    1
    44    17    18    1
    45    48    49    1
    46    18    20    1
    47    27    29   ar
    48    30    31   ar
    49    59    56    1
    50    59    60    1
    51    51    50    2
    52    49    50    1
    53    49    52    1
    54    56    55    1
    55    56    57    1
    56    50    55   am
    57    55    61    1
    58    61    60    1
    59    29    31   ar
    60    54    52    1
    61    57    58    2
    62    52    53    1
    63    70    68   ar
    64    67    68    1
    65    67    66    1
    66    68    69   ar
    67    62    63    1
    68   132   130   ar
    69   132   134   ar
    70    89    88    1
    71    87    88   ar
    72    87    85   ar
    73    66    63    1
    74   130   129   ar
    75   134   133   ar
    76    88    86   ar
    77    94    95    1
    78    94    91    1
    79    85    83   ar
    80   123   121    1
    81    63    64    1
    82   121   120    1
    83    90    91    1
    84   127   126    2
    85    76    75    1
    86   129   128    1
    87   129   131   ar
    88   133   131   ar
    89   119   118    2
    90    86    84   ar
    91    91    92    1
    92    83    84   ar
    93    83    82    1
    94   125   128    1
    95   125   126    1
    96   125   124    1
    97    71    64   am
    98    71    72    1
    99    64    65    2
   100   122   120    1
   101    82    79    1
   102   118   124   am
   103   118   117    1
   104   120   117    1
   105    74    73    2
   106    75    72    1
   107    75    77    1
   108    92    93    2
   109    72    73    1
   110   117   116    1
   111   114   113    2
   112    80    79    1
   113    80    81    2
   114    79    78    1
   115   113   115   am
   116   113   112    1
   117   100   101    1
   118   100    97    1
   119   103   101   ar
   120   103   105   ar
   121   101   102   ar
   122   105   106   ar
   123   112   109    1
   124    96    97    1
   125   102   104   ar
   126   106   104   ar
   127   106   107    1
   128    97    98    1
   129   108   109    1
   130   108    98   am
   131   109   110    1
   132    98    99    2
   133   110   111    2
