@<TRIPOS>MOLECULE
tmp/5mwhB00.pdb
 134 133 0 0 0
SMALL
GASTEIGER

@<TRIPOS>ATOM
      1  N         -8.4640    0.1240   25.8940 N.3    23  GLY23      -0.1210
      2  CA        -8.3170    0.8890   27.1200 C.3    23  GLY23       0.1956
      3  C         -8.8690    2.2970   27.0530 C.2    23  GLY23       0.2612
      4  O         -8.7570    3.0460   28.0280 O.2    23  GLY23      -0.2717
      5  N         -9.4430    2.6810   25.9060 N.am   24  ASN24      -0.1960
      6  CA        -9.9500    4.0310   25.6540 C.3    24  ASN24       0.1819
      7  C         -8.8880    5.1050   25.8620 C.2    24  ASN24       0.2621
      8  O         -9.2110    6.2550   26.1570 O.2    24  ASN24      -0.2715
      9  CB       -11.1810    4.3390   26.5030 C.3    24  ASN24       0.1195
     10  CG       -12.4060    3.5960   26.0310 C.2    24  ASN24       0.2630
     11  OD1      -12.4210    3.0300   24.9350 O.2    24  ASN24      -0.2716
     12  ND2      -13.4500    3.5960   26.8570 N.am   24  ASN24      -0.0877
     13  N         -7.6090    4.7620   25.6940 N.am   25  ILE25      -0.1963
     14  CA        -6.5770    5.7500   25.9890 C.3    25  ILE25       0.1727
     15  C         -6.4190    6.7730   24.8810 C.2    25  ILE25       0.2616
     16  O         -5.8010    7.8200   25.1100 O.2    25  ILE25      -0.2715
     17  CB        -5.2180    5.0880   26.2650 C.3    25  ILE25       0.0290
     18  CG1       -4.7390    4.3350   25.0260 C.3    25  ILE25       0.0022
     19  CG2       -5.3120    4.1730   27.4870 C.3    25  ILE25       0.0023
     20  CD1       -3.2920    3.9250   25.1200 C.3    25  ILE25       0.0001
     21  N         -6.9970    6.5160   23.7010 N.am   26  PHE26      -0.1974
     22  CA        -6.9960    7.4630   22.5920 C.3    26  PHE26       0.1639
     23  C         -8.3730    8.0650   22.3550 C.2    26  PHE26       0.2290
     24  O         -8.5910    8.7130   21.3230 O.2    26  PHE26      -0.2864
     25  CB        -6.4870    6.7880   21.3160 C.3    26  PHE26       0.0560
     26  CG        -5.1270    6.1830   21.4700 C.ar   26  PHE26      -0.0200
     27  CD1       -4.0220    6.9860   21.6410 C.ar   26  PHE26      -0.0042
     28  CD2       -4.9600    4.8080   21.4560 C.ar   26  PHE26      -0.0042
     29  CE1       -2.7580    6.4350   21.7950 C.ar   26  PHE26      -0.0003
     30  CE2       -3.6980    4.2480   21.5980 C.ar   26  PHE26      -0.0003
     31  CZ        -2.5980    5.0650   21.7730 C.ar   26  PHE26      -0.0000
     32  N        -10.0170   10.4500   24.0310 N.3    28  GLU28      -0.1231
     33  CA       -10.1680   11.8580   24.3500 C.3    28  GLU28       0.1684
     34  C         -8.7980   12.5210   24.2780 C.2    28  GLU28       0.2434
     35  O         -7.7780   11.8310   24.3080 O.2    28  GLU28      -0.2733
     36  CB       -10.7910   12.0430   25.7420 C.3    28  GLU28       0.0402
     37  CG       -12.2590   11.6710   25.7820 C.3    28  GLU28       0.1161
     38  CD       -13.0770   12.6330   26.6130 C.2    28  GLU28       0.3649
     39  OE1      -12.9960   12.5620   27.8580 O.co2  28  GLU28      -0.2457
     40  OE2      -13.7920   13.4690   26.0170 O.co2  28  GLU28      -0.2457
     41  N         -8.7560   13.8500   24.1610 N.am   29  PRO29      -0.2718
     42  CA        -7.4530   14.5230   24.0710 C.3    29  PRO29       0.1535
     43  C         -6.5630   14.1710   25.2500 C.2    29  PRO29       0.2598
     44  O         -7.0320   14.0090   26.3800 O.2    29  PRO29      -0.2715
     45  CB        -7.8220   16.0110   24.0810 C.3    29  PRO29       0.0310
     46  CG        -9.2270   16.0630   23.6150 C.3    29  PRO29       0.0237
     47  CD        -9.8730   14.8090   24.1030 C.3    29  PRO29       0.0939
     48  N         -5.2690   14.0350   24.9670 N.am   30  VAL30      -0.1964
     49  CA        -4.2480   13.9160   26.0040 C.3    30  VAL30       0.1712
     50  C         -4.4410   15.1080   26.9330 C.2    30  VAL30       0.2458
     51  O         -4.4830   16.2550   26.4660 O.2    30  VAL30      -0.2730
     52  CB        -2.8320   13.8740   25.4020 C.3    30  VAL30       0.0289
     53  CG1       -1.7800   13.8680   26.4960 C.3    30  VAL30       0.0023
     54  CG2       -2.6650   12.6460   24.4870 C.3    30  VAL30       0.0023
     55  N         -4.6060   14.8840   28.2350 N.am   31  PRO31      -0.2727
     56  CA        -4.9380   15.9880   29.1520 C.3    31  PRO31       0.1402
     57  C         -3.7720   16.9380   29.3800 C.2    31  PRO31       0.2269
     58  O         -2.8370   16.6180   30.1200 O.2    31  PRO31      -0.2865
     59  CB        -5.3340   15.2590   30.4430 C.3    31  PRO31       0.0296
     60  CG        -4.6330   13.9400   30.3670 C.3    31  PRO31       0.0237
     61  CD        -4.6120   13.5730   28.9030 C.3    31  PRO31       0.0939
     62  N         -2.4210   17.7900   32.8780 N.3    34  GLU34      -0.1231
     63  CA        -1.5870   16.7930   33.5280 C.3    34  GLU34       0.1699
     64  C         -0.2770   16.5620   32.7890 C.2    34  GLU34       0.2592
     65  O          0.6490   15.9780   33.3630 O.2    34  GLU34      -0.2718
     66  CB        -2.3720   15.4870   33.6630 C.3    34  GLU34       0.0402
     67  CG        -3.8390   15.7210   34.0300 C.3    34  GLU34       0.1161
     68  CD        -4.5740   14.4540   34.4290 C.2    34  GLU34       0.3649
     69  OE1       -3.9850   13.6180   35.1460 O.co2  34  GLU34      -0.2457
     70  OE2       -5.7500   14.3020   34.0290 O.co2  34  GLU34      -0.2457
     71  N         -0.1800   17.0220   31.5440 N.am   35  VAL35      -0.1980
     72  CA         0.9960   16.8440   30.6920 C.3    35  VAL35       0.1595
     73  C          1.4300   18.2020   30.1460 C.2    35  VAL35       0.2287
     74  O          1.2240   18.4800   28.9550 O.2    35  VAL35      -0.2864
     75  CB         0.7050   15.8760   29.5310 C.3    35  VAL35       0.0276
     76  CG1        2.0000   15.3480   28.9500 C.3    35  VAL35       0.0022
     77  CG2       -0.1980   14.7370   29.9820 C.3    35  VAL35       0.0022
     78  N          3.4230   18.7600   26.7410 N.3    38  TYR38      -0.1241
     79  CA         2.9890   17.9900   25.5790 C.3    38  TYR38       0.1605
     80  C          3.0380   18.8370   24.3130 C.2    38  TYR38       0.2264
     81  O          3.5640   18.4010   23.2850 O.2    38  TYR38      -0.2867
     82  CB         1.5830   17.4310   25.8110 C.3    38  TYR38       0.0534
     83  CG         1.1310   16.4290   24.7650 C.ar   38  TYR38      -0.0201
     84  CD1        1.5690   15.1120   24.8020 C.ar   38  TYR38      -0.0009
     85  CD2        0.2400   16.7970   23.7550 C.ar   38  TYR38      -0.0009
     86  CE1        1.1440   14.1810   23.8510 C.ar   38  TYR38       0.0417
     87  CE2       -0.1850   15.8760   22.8070 C.ar   38  TYR38       0.0417
     88  CZ         0.2740   14.5740   22.8550 C.ar   38  TYR38       0.1957
     89  OH        -0.1460   13.6610   21.9040 O.3    38  TYR38      -0.2866
     90  N          1.7340    9.6870   19.5920 N.3    77  CYS77      -0.1235
     91  CA         1.9960    8.8470   20.7510 C.3    77  CYS77       0.1677
     92  C          3.4040    8.2620   20.7040 C.2    77  CYS77       0.2270
     93  O          4.1130    8.2670   21.7160 O.2    77  CYS77      -0.2867
     94  CB         0.9470    7.7470   20.8130 C.3    77  CYS77       0.0956
     95  SG         1.0530    6.6890   22.2460 S.3    77  CYS77      -0.0801
     96  N          5.9110   11.1830   21.4840 N.3    80  TYR80      -0.1227
     97  CA         5.9950   11.7340   22.8330 C.3    80  TYR80       0.1736
     98  C          6.4970   10.7170   23.8540 C.2    80  TYR80       0.2595
     99  O          7.1930   11.1000   24.8030 O.2    80  TYR80      -0.2718
    100  CB         4.6350   12.2930   23.2680 C.3    80  TYR80       0.0548
    101  CG         4.7080   12.9340   24.6310 C.ar   80  TYR80      -0.0200
    102  CD1        5.2790   14.1920   24.7960 C.ar   80  TYR80      -0.0009
    103  CD2        4.2320   12.2740   25.7570 C.ar   80  TYR80      -0.0009
    104  CE1        5.3780   14.7790   26.0550 C.ar   80  TYR80       0.0417
    105  CE2        4.3300   12.8550   27.0210 C.ar   80  TYR80       0.0417
    106  CZ         4.9000   14.1070   27.1580 C.ar   80  TYR80       0.1957
    107  OH         4.9990   14.6940   28.4050 O.3    80  TYR80      -0.2866
    108  N          6.1930    9.4350   23.6770 N.am   81  ASN81      -0.1974
    109  CA         6.4030    8.4400   24.7260 C.3    81  ASN81       0.1688
    110  C          7.6240    7.5640   24.4630 C.2    81  ASN81       0.2292
    111  O          7.9470    7.2450   23.3160 O.2    81  ASN81      -0.2864
    112  CB         5.1540    7.5640   24.8570 C.3    81  ASN81       0.1181
    113  CG         3.9670    8.3400   25.3710 C.2    81  ASN81       0.2629
    114  OD1        3.8680    8.6070   26.5730 O.2    81  ASN81      -0.2716
    115  ND2        3.0760    8.7370   24.4710 N.am   81  ASN81      -0.0877
    116  N          3.3930    1.6830   28.2670 N.3    86  ILE86      -0.1231
    117  CA         2.0860    1.1930   27.8480 C.3    86  ILE86       0.1692
    118  C          1.5600    2.0090   26.6680 C.2    86  ILE86       0.2592
    119  O          0.9880    1.4580   25.7160 O.2    86  ILE86      -0.2718
    120  CB         1.1180    1.2030   29.0470 C.3    86  ILE86       0.0266
    121  CG1        1.4350    0.0230   29.9600 C.3    86  ILE86       0.0019
    122  CG2       -0.3290    1.1350   28.5900 C.3    86  ILE86       0.0020
    123  CD1        0.6760    0.0420   31.2800 C.3    86  ILE86       0.0001
    124  N          1.7600    3.3270   26.6960 N.am   87  PHE87      -0.1976
    125  CA         1.2320    4.1640   25.6200 C.3    87  PHE87       0.1639
    126  C          1.8890    3.8320   24.2830 C.2    87  PHE87       0.2290
    127  O          1.2020    3.6210   23.2740 O.2    87  PHE87      -0.2864
    128  CB         1.4080    5.6450   25.9660 C.3    87  PHE87       0.0560
    129  CG         0.5310    6.1090   27.1030 C.ar   87  PHE87      -0.0200
    130  CD1       -0.6940    5.5150   27.3240 C.ar   87  PHE87      -0.0042
    131  CD2        0.9430    7.1280   27.9470 C.ar   87  PHE87      -0.0042
    132  CE1       -1.5050    5.9290   28.3820 C.ar   87  PHE87      -0.0003
    133  CE2        0.1460    7.5450   29.0060 C.ar   87  PHE87      -0.0003
    134  CZ        -1.0800    6.9460   29.2200 C.ar   87  PHE87      -0.0000
@<TRIPOS>BOND
     1    90    91    1
     2    92    91    1
     3    92    93    2
     4    91    94    1
     5    94    95    1
     6    25    26    1
     7    25    22    1
     8    24    23    2
     9    28    26   ar
    10    28    30   ar
    11    26    27   ar
    12    96    97    1
    13    30    31   ar
    14    27    29   ar
    15    31    29   ar
    16    89    88    1
    17    23    22    1
    18    22    21    1
    19    87    88   ar
    20    87    85   ar
    21    97   100    1
    22    97    98    1
    23    88    86   ar
    24   100   101    1
    25   127   126    2
    26    81    80    2
    27   111   110    2
    28    46    45    1
    29    46    47    1
    30   108    98   am
    31   108   109    1
    32    21    15   am
    33    85    83   ar
    34    86    84   ar
    35    98    99    2
    36    32    33    1
    37    42    45    1
    38    42    41    1
    39    42    43    1
    40    47    41    1
    41    41    34   am
    42    34    35    2
    43    34    33    1
    44   126   125    1
    45    80    79    1
    46    33    36    1
    47   110   109    1
    48   115   113   am
    49    54    52    1
    50   101   102   ar
    51   101   103   ar
    52   109   112    1
    53    83    84   ar
    54    83    82    1
    55   102   104   ar
    56   112   113    1
    57    15    16    2
    58    15    14    1
    59    11    10    2
    60    48    43   am
    61    48    49    1
    62    18    20    1
    63    18    17    1
    64    43    44    2
    65   113   114    2
    66    52    49    1
    67    52    53    1
    68    79    82    1
    69    79    78    1
    70   125   128    1
    71   125   124    1
    72     6     7    1
    73     6     5    1
    74     6     9    1
    75    13     7   am
    76    13    14    1
    77   119   118    2
    78    36    37    1
    79   103   105   ar
    80    37    38    1
    81     7     8    2
    82     1     2    1
    83     5     3   am
    84   128   129    1
    85    14    17    1
    86    49    50    1
    87    40    38   ar
    88    10     9    1
    89    10    12   am
    90   104   106   ar
    91    17    19    1
    92    51    50    2
    93    38    39   ar
    94   118   124   am
    95   118   117    1
    96    50    55   am
    97   105   106   ar
    98     3     2    1
    99     3     4    2
   100   129   130   ar
   101   129   131   ar
   102   106   107    1
   103   130   132   ar
   104   117   116    1
   105   117   120    1
   106   131   133   ar
   107    55    61    1
   108    55    56    1
   109   132   134   ar
   110   122   120    1
   111    61    60    1
   112    76    75    1
   113    74    73    2
   114   133   134   ar
   115   120   121    1
   116    56    57    1
   117    56    59    1
   118    57    58    2
   119    75    77    1
   120    75    72    1
   121   121   123    1
   122    73    72    1
   123    60    59    1
   124    72    71    1
   125    71    64   am
   126    64    65    2
   127    64    63    1
   128    62    63    1
   129    63    66    1
   130    66    67    1
   131    70    68   ar
   132    67    68    1
   133    68    69   ar
