@<TRIPOS>MOLECULE
tmp/5mwlA01.pdb
 194 183 0 0 0
SMALL
GASTEIGER

@<TRIPOS>ATOM
      1  N         74.4230   12.6130   31.5680 N.3    13  GLY13      -0.1210
      2  CA        75.2260   11.5040   31.0470 C.3    13  GLY13       0.1956
      3  C         76.2760   12.0920   30.1250 C.2    13  GLY13       0.2612
      4  O         76.1010   13.2030   29.6320 O.2    13  GLY13      -0.2717
      5  N         77.3520   11.3490   29.8770 N.am   14  ASN14      -0.1960
      6  CA        78.5180   11.8620   29.1210 C.3    14  ASN14       0.1819
      7  C         78.2510   12.5210   27.7450 C.2    14  ASN14       0.2621
      8  O         79.0870   13.2960   27.2870 O.2    14  ASN14      -0.2715
      9  CB        79.5830   10.7680   28.9560 C.3    14  ASN14       0.1195
     10  CG        79.0790    9.5790   28.1650 C.2    14  ASN14       0.2630
     11  OD1       77.8830    9.2950   28.1620 O.2    14  ASN14      -0.2716
     12  ND2       79.9880    8.8740   27.4990 N.am   14  ASN14      -0.0877
     13  N         77.1200   12.2170   27.0970 N.am   15  LYS15      -0.1977
     14  CA        76.7570   12.8400   25.8050 C.3    15  LYS15       0.1596
     15  C         75.7530   14.0090   25.8710 C.2    15  LYS15       0.2287
     16  O         75.6780   14.7860   24.9170 O.2    15  LYS15      -0.2864
     17  CB        76.2670   11.7810   24.7970 C.3    15  LYS15       0.0298
     18  CG        77.3840   11.2040   23.9340 C.3    15  LYS15       0.0038
     19  CD        76.8720   10.2580   22.8550 C.3    15  LYS15       0.0206
     20  CE        78.0180    9.7140   22.0100 C.3    15  LYS15       0.1093
     21  NZ        77.6400    8.4880   21.2520 N.3    15  LYS15      -0.1314
     22  N         69.2920    1.2180   34.8030 N.3   130  LYS130     -0.1245
     23  CA        70.0700    1.0580   33.5730 C.3   130  LYS130      0.1561
     24  C         70.5680   -0.4080   33.5210 C.2   130  LYS130      0.2260
     25  O         71.6370   -0.7280   34.0630 O.2   130  LYS130     -0.2867
     26  CB        71.2230    2.0600   33.5560 C.3   130  LYS130      0.0271
     27  CG        71.7730    2.3460   32.1760 C.3   130  LYS130      0.0035
     28  CD        73.0540    3.1560   32.2620 C.3   130  LYS130      0.0206
     29  CE        73.4770    3.6580   30.8900 C.3   130  LYS130      0.1093
     30  NZ        74.8420    4.2550   30.8960 N.3   130  LYS130     -0.1314
     31  N         71.7910   -2.6800   31.3060 N.3   132  LYS132     -0.1245
     32  CA        72.9220   -3.1840   30.4980 C.3   132  LYS132      0.1561
     33  C         72.5240   -4.3950   29.6430 C.2   132  LYS132      0.2260
     34  O         71.3530   -4.7980   29.6460 O.2   132  LYS132     -0.2867
     35  CB        74.1570   -3.4700   31.3750 C.3   132  LYS132      0.0271
     36  CG        74.6740   -2.2370   32.1050 C.3   132  LYS132      0.0035
     37  CD        75.4450   -1.3300   31.1470 C.3   132  LYS132      0.0206
     38  CE        75.1610    0.1500   31.3600 C.3   132  LYS132      0.1093
     39  NZ        75.3090    0.9020   30.0820 N.3   132  LYS132     -0.1314
     40  N         79.4380   -8.8810   29.6330 N.3   152  ARG152     -0.1231
     41  CA        80.3270   -7.7200   29.5230 C.3   152  ARG152      0.1694
     42  C         80.2620   -6.8070   30.7400 C.2   152  ARG152      0.2592
     43  O         81.2740   -6.2090   31.1000 O.2   152  ARG152     -0.2718
     44  CB        80.0460   -6.9130   28.2520 C.3   152  ARG152      0.0321
     45  CG        80.9340   -5.6840   28.0950 C.3   152  ARG152      0.0489
     46  CD        81.1730   -5.3330   26.6390 C.3   152  ARG152      0.2205
     47  NE        81.5360   -3.9290   26.4600 N.pl3 152  ARG152     -0.0865
     48  CZ        81.8150   -3.3580   25.2860 C.cat 152  ARG152      0.5346
     49  NH1       81.7920   -4.0640   24.1520 N.pl3 152  ARG152      0.1354
     50  NH2       82.1270   -2.0630   25.2420 N.pl3 152  ARG152      0.1354
     51  N         79.0930   -6.7060   31.3760 N.am  153  TYR153     -0.1976
     52  CA        78.9460   -5.8390   32.5470 C.3   153  TYR153      0.1639
     53  C         79.8890   -6.2730   33.6610 C.2   153  TYR153      0.2290
     54  O         80.7090   -5.4760   34.1290 O.2   153  TYR153     -0.2864
     55  CB        77.5060   -5.8030   33.0700 C.3   153  TYR153      0.0560
     56  CG        77.3760   -4.9140   34.2870 C.ar  153  TYR153     -0.0198
     57  CD1       77.5720   -3.5400   34.1880 C.ar  153  TYR153     -0.0009
     58  CD2       77.1080   -5.4480   35.5440 C.ar  153  TYR153     -0.0009
     59  CE1       77.4770   -2.7200   35.3020 C.ar  153  TYR153      0.0417
     60  CE2       77.0160   -4.6360   36.6630 C.ar  153  TYR153      0.0417
     61  CZ        77.1940   -3.2760   36.5390 C.ar  153  TYR153      0.1957
     62  OH        77.0940   -2.4750   37.6550 O.3   153  TYR153     -0.2866
     63  N         83.4350   -5.7530   32.7910 N.3   156  HIS156     -0.1241
     64  CA        83.7550   -4.3140   32.8090 C.3   156  HIS156      0.1621
     65  C         83.9070   -3.7740   34.2400 C.2   156  HIS156      0.2264
     66  O         84.6190   -2.7850   34.4380 O.2   156  HIS156     -0.2867
     67  CB        82.6880   -3.5020   32.0470 C.3   156  HIS156      0.0745
     68  CG        83.1930   -2.2310   31.4260 C.ar  156  HIS156      0.0817
     69  ND1       84.1680   -1.4410   31.9980 N.ar  156  HIS156     -0.2268
     70  CD2       82.8200   -1.5960   30.2890 C.ar  156  HIS156      0.1154
     71  CE1       84.3870   -0.3870   31.2320 C.ar  156  HIS156      0.1986
     72  NE2       83.5810   -0.4570   30.1890 N.ar  156  HIS156     -0.2212
     73  N         86.8330   -1.0280   35.6280 N.3   160  LYS160     -0.1245
     74  CA        86.3450    0.2210   36.2210 C.3   160  LYS160      0.1561
     75  C         86.7840    0.3960   37.6820 C.2   160  LYS160      0.2260
     76  O         87.1150    1.5130   38.0980 O.2   160  LYS160     -0.2867
     77  CB        84.8150    0.3400   36.1010 C.3   160  LYS160      0.0271
     78  CG        84.3430    0.9160   34.7700 C.3   160  LYS160      0.0035
     79  CD        82.8410    1.1640   34.7380 C.3   160  LYS160      0.0206
     80  CE        82.0520   -0.1160   34.5070 C.3   160  LYS160      0.1093
     81  NZ        80.5850    0.0870   34.6690 N.3   160  LYS160     -0.1314
     82  N         87.3560    4.4980   38.8920 N.3   165  LYS165     -0.1231
     83  CA        86.0310    5.0490   38.6030 C.3   165  LYS165      0.1693
     84  C         85.0060    4.6530   39.6670 C.2   165  LYS165      0.2592
     85  O         84.1740    5.4750   40.0550 O.2   165  LYS165     -0.2718
     86  CB        85.5610    4.5870   37.2190 C.3   165  LYS165      0.0285
     87  CG        84.2310    5.1750   36.7710 C.3   165  LYS165      0.0035
     88  CD        84.0510    5.0460   35.2670 C.3   165  LYS165      0.0206
     89  CE        82.6890    5.5530   34.8110 C.3   165  LYS165      0.1093
     90  NZ        82.4910    7.0040   35.0820 N.3   165  LYS165     -0.1314
     91  N         85.0690    3.3980   40.1210 N.am  166  TRP166     -0.1976
     92  CA        84.2260    2.9010   41.2190 C.3   166  TRP166      0.1640
     93  C         85.0730    2.2500   42.3140 C.2   166  TRP166      0.2290
     94  O         86.1930    1.7990   42.0630 O.2   166  TRP166     -0.2864
     95  CB        83.1730    1.9180   40.6930 C.3   166  TRP166      0.0576
     96  CG        82.2550    2.5310   39.6710 C.ar  166  TRP166      0.0006
     97  CD1       82.1420    2.1800   38.3600 C.ar  166  TRP166      0.0946
     98  CD2       81.3410    3.6170   39.8760 C.ar  166  TRP166      0.0152
     99  NE1       81.2080    2.9700   37.7330 N.ar  166  TRP166     -0.2442
    100  CE2       80.7030    3.8640   38.6400 C.ar  166  TRP166      0.0810
    101  CE3       80.9970    4.4030   40.9860 C.ar  166  TRP166      0.0012
    102  CZ2       79.7360    4.8650   38.4790 C.ar  166  TRP166      0.0191
    103  CZ3       80.0360    5.4020   40.8260 C.ar  166  TRP166      0.0001
    104  CH2       79.4180    5.6230   39.5790 C.ar  166  TRP166      0.0015
    105  N         76.1390    4.1160   38.2360 N.3   198  ASN198     -0.1225
    106  CA        75.2390    4.8720   37.3620 C.3   198  ASN198      0.1785
    107  C         74.0550    4.0090   36.8800 C.2   198  ASN198      0.2597
    108  O         73.3440    4.3990   35.9490 O.2   198  ASN198     -0.2718
    109  CB        76.0170    5.4410   36.1610 C.3   198  ASN198      0.1169
    110  CG        76.4570    4.3640   35.1770 C.2   198  ASN198      0.2627
    111  OD1       76.8690    3.2770   35.5820 O.2   198  ASN198     -0.2716
    112  ND2       76.3670    4.6560   33.8840 N.am  198  ASN198     -0.0877
    113  N         73.8320    2.8570   37.5160 N.am  199  ASN199     -0.1974
    114  CA        72.8420    1.8920   37.0480 C.3   199  ASN199      0.1688
    115  C         71.5170    1.9350   37.8150 C.2   199  ASN199      0.2292
    116  O         70.6070    1.1610   37.5010 O.2   199  ASN199     -0.2864
    117  CB        73.4140    0.4700   37.1170 C.3   199  ASN199      0.1181
    118  CG        74.7290    0.3030   36.3630 C.2   199  ASN199      0.2629
    119  OD1       75.4440   -0.6670   36.5910 O.2   199  ASN199     -0.2716
    120  ND2       75.0560    1.2320   35.4730 N.am  199  ASN199     -0.0877
    121  N         73.5550   -1.4770   20.1180 N.3   367  MET367     -0.1245
    122  CA        74.3400   -0.6660   21.0620 C.3   367  MET367      0.1570
    123  C         73.4880    0.3960   21.7710 C.2   367  MET367      0.2261
    124  O         73.7370    0.7020   22.9340 O.2   367  MET367     -0.2867
    125  CB        75.5420    0.0020   20.3730 C.3   367  MET367      0.0387
    126  CG        76.6460   -0.9400   19.9020 C.3   367  MET367      0.0595
    127  SD        77.4650   -1.9020   21.1970 S.3   367  MET367     -0.1393
    128  CE        76.5400   -3.4320   21.1510 C.3   367  MET367      0.0692
    129  N         72.5870    0.3790   26.1000 N.3   371  ASP371     -0.1239
    130  CA        72.8650    1.5580   26.9080 C.3   371  ASP371      0.1674
    131  C         71.6080    2.3450   27.3570 C.2   371  ASP371      0.2266
    132  O         71.7310    3.4060   27.9880 O.2   371  ASP371     -0.2867
    133  CB        73.8090    2.4680   26.1240 C.3   371  ASP371      0.1410
    134  CG        74.5850    3.3920   27.0150 C.2   371  ASP371      0.3668
    135  OD1       75.4320    2.8940   27.7880 O.co2 371  ASP371     -0.2456
    136  OD2       74.3330    4.6150   26.9600 O.co2 371  ASP371     -0.2456
    137  N         66.7870    7.4350   26.8850 N.3   394  ASP394     -0.1239
    138  CA        68.1500    7.3330   26.3810 C.3   394  ASP394      0.1674
    139  C         68.1930    6.5000   25.0800 C.2   394  ASP394      0.2266
    140  O         68.9650    5.5420   24.9590 O.2   394  ASP394     -0.2867
    141  CB        69.0450    6.7410   27.4880 C.3   394  ASP394      0.1410
    142  CG        70.4400    7.3090   27.4910 C.2   394  ASP394      0.3668
    143  OD1       71.0190    7.5420   26.4010 O.co2 394  ASP394     -0.2456
    144  OD2       70.9600    7.5000   28.6120 O.co2 394  ASP394     -0.2456
    145  N         68.9690    7.2670   21.6010 N.3   396  ASP396     -0.1239
    146  CA        69.5800    7.9720   20.4780 C.3   396  ASP396      0.1674
    147  C         70.5710    7.0230   19.8170 C.2   396  ASP396      0.2266
    148  O         71.3860    6.4010   20.5030 O.2   396  ASP396     -0.2867
    149  CB        70.2340    9.2980   20.9110 C.3   396  ASP396      0.1410
    150  CG        71.0260    9.1920   22.2110 C.2   396  ASP396      0.3668
    151  OD1       71.0190    8.1200   22.8600 O.co2 396  ASP396     -0.2456
    152  OD2       71.6530   10.2060   22.5870 O.co2 396  ASP396     -0.2456
    153  N         73.5540    5.1980   18.1580 N.3   398  LYS398     -0.1245
    154  CA        74.9980    5.3540   18.3500 C.3   398  LYS398      0.1561
    155  C         75.6550    5.6680   17.0070 C.2   398  LYS398      0.2260
    156  O         75.3540    5.0040   16.0110 O.2   398  LYS398     -0.2867
    157  CB        75.6110    4.0840   18.9520 C.3   398  LYS398      0.0271
    158  CG        75.1210    3.7460   20.3560 C.3   398  LYS398      0.0035
    159  CD        75.8080    4.5860   21.4240 C.3   398  LYS398      0.0206
    160  CE        75.1170    4.4480   22.7760 C.3   398  LYS398      0.1093
    161  NZ        73.8970    5.2960   22.9200 N.3   398  LYS398     -0.1314
    162  N         81.7300    5.3810   15.9100 N.3   402  SER402     -0.1217
    163  CA        82.0690    4.7540   17.1960 C.3   402  SER402      0.1889
    164  C         82.3760    3.2510   17.1140 C.2   402  SER402      0.2288
    165  O         82.8610    2.6760   18.0850 O.2   402  SER402     -0.2866
    166  CB        80.9400    4.9720   18.2040 C.3   402  SER402      0.2089
    167  OG        79.7450    4.3530   17.7640 O.3   402  SER402     -0.2183
    168  N         85.9510    2.2580   17.9970 N.3   405  HIS405     -0.1226
    169  CA        86.1470    2.3760   19.4410 C.3   405  HIS405      0.1752
    170  C         85.5200    1.2150   20.2210 C.2   405  HIS405      0.2595
    171  O         86.1090    0.7420   21.1890 O.2   405  HIS405     -0.2718
    172  CB        85.6020    3.7190   19.9470 C.3   405  HIS405      0.0759
    173  CG        85.7530    3.9120   21.4230 C.ar  405  HIS405      0.0818
    174  ND1       86.9490    4.2650   22.0100 N.ar  405  HIS405     -0.2268
    175  CD2       84.8600    3.7830   22.4330 C.ar  405  HIS405      0.1154
    176  CE1       86.7840    4.3530   23.3180 C.ar  405  HIS405      0.1986
    177  NE2       85.5260    4.0660   23.6000 N.ar  405  HIS405     -0.2212
    178  N         84.3430    0.7600   19.7920 N.am  406  GLN406     -0.1979
    179  CA        83.6640   -0.3760   20.4310 C.3   406  GLN406      0.1601
    180  C         84.4590   -1.6730   20.3420 C.2   406  GLN406      0.2287
    181  O         84.4390   -2.4700   21.2750 O.2   406  GLN406     -0.2864
    182  CB        82.2690   -0.6010   19.8310 C.3   406  GLN406      0.0394
    183  CG        81.2530    0.4930   20.1290 C.3   406  GLN406      0.0908
    184  CD        81.0390    0.7050   21.6160 C.2   406  GLN406      0.2608
    185  OE1       80.6490   -0.2130   22.3430 O.2   406  GLN406     -0.2717
    186  NE2       81.3100    1.9210   22.0780 N.am  406  GLN406     -0.0878
    187  N         87.6980   -0.9910   22.7120 N.3   409  LEU409     -0.1245
    188  CA        87.3610   -1.0540   24.1380 C.3   409  LEU409      0.1561
    189  C         87.1180   -2.4810   24.6280 C.2   409  LEU409      0.2260
    190  O         87.6440   -2.8710   25.6680 O.2   409  LEU409     -0.2867
    191  CB        86.1160   -0.2120   24.4200 C.3   409  LEU409      0.0270
    192  CG        85.6470   -0.1030   25.8730 C.3   409  LEU409      0.0019
    193  CD1       86.6530    0.6690   26.7150 C.3   409  LEU409      0.0001
    194  CD2       84.2850    0.5600   25.9280 C.3   409  LEU409      0.0001
@<TRIPOS>BOND
     1   162   163    1
     2   156   155    2
     3   155   154    1
     4   164   163    1
     5   164   165    2
     6   163   166    1
     7   167   166    1
     8   168   169    1
     9   153   154    1
    10   154   157    1
    11   157   158    1
    12   169   172    1
    13   169   170    1
    14   178   170   am
    15   178   179    1
    16   147   146    1
    17   147   148    2
    18   182   183    1
    19   182   179    1
    20   126   125    1
    21   126   127    1
    22   172   173    1
    23   121   122    1
    24   183   184    1
    25   170   171    2
    26   180   179    1
    27   180   181    2
    28   158   159    1
    29   125   122    1
    30   146   149    1
    31   146   145    1
    32   149   150    1
    33   122   123    1
    34   128   127    1
    35    21    20    1
    36   173   174   ar
    37   173   175   ar
    38   159   160    1
    39   184   186   am
    40   184   185    2
    41   123   124    2
    42   174   176   ar
    43    20    19    1
    44   150   152   ar
    45   150   151   ar
    46   175   177   ar
    47   187   188    1
    48   160   161    1
    49    19    18    1
    50   176   177   ar
    51    18    17    1
    52   188   191    1
    53   188   189    1
    54    49    48    1
    55   191   192    1
    56   189   190    2
    57    17    14    1
    58    16    15    2
    59   140   139    2
    60   139   138    1
    61    50    48    1
    62    48    47    2
    63    14    15    1
    64    14    13    1
    65   192   194    1
    66   192   193    1
    67   129   130    1
    68   133   130    1
    69   133   134    1
    70   138   137    1
    71   138   141    1
    72   143   142   ar
    73    47    46    1
    74    46    45    1
    75   130   131    1
    76   136   134   ar
    77   134   135   ar
    78    13     7   am
    79     8     7    2
    80   131   132    2
    81   141   142    1
    82   142   144   ar
    83    12    10   am
    84     7     6    1
    85    45    44    1
    86    11    10    2
    87    10     9    1
    88    44    41    1
    89     9     6    1
    90     6     5    1
    91    41    40    1
    92    41    42    1
    93     4     3    2
    94    33    34    2
    95    33    32    1
    96     5     3   am
    97    39    38    1
    98     3     2    1
    99    72    70   ar
   100    72    71   ar
   101    70    68   ar
   102    32    31    1
   103    32    35    1
   104    42    43    2
   105    42    51   am
   106    29    30    1
   107    29    28    1
   108     2     1    1
   109    37    38    1
   110    37    36    1
   111    71    69   ar
   112    35    36    1
   113    51    52    1
   114    68    69   ar
   115    68    67    1
   116    67    64    1
   117    27    28    1
   118    27    26    1
   119    52    55    1
   120    52    53    1
   121    63    64    1
   122    64    65    1
   123    55    56    1
   124    24    23    1
   125    24    25    2
   126    26    23    1
   127    23    22    1
   128    53    54    2
   129   112   110   am
   130    57    56   ar
   131    57    59   ar
   132    65    66    2
   133    56    58   ar
   134    80    81    1
   135    80    79    1
   136    79    78    1
   137    78    77    1
   138    89    90    1
   139    89    88    1
   140   110   111    2
   141   110   109    1
   142    88    87    1
   143    59    61   ar
   144   120   118   am
   145    58    60   ar
   146    73    74    1
   147   108   107    2
   148    77    74    1
   149   109   106    1
   150    74    75    1
   151   118   119    2
   152   118   117    1
   153    61    60   ar
   154    61    62    1
   155    87    86    1
   156   107   106    1
   157   107   113   am
   158   114   117    1
   159   114   113    1
   160   114   115    1
   161    86    83    1
   162   106   105    1
   163   116   115    2
   164    75    76    2
   165    99    97   ar
   166    99   100   ar
   167    97    96   ar
   168   102   100   ar
   169   102   104   ar
   170    83    82    1
   171    83    84    1
   172   100    98   ar
   173   104   103   ar
   174    84    85    2
   175    84    91   am
   176    96    98   ar
   177    96    95    1
   178    98   101   ar
   179    91    92    1
   180    95    92    1
   181   103   101   ar
   182    92    93    1
   183    94    93    2
