@<TRIPOS>MOLECULE
tmp/5mwlA00.pdb
 208 196 0 0 0
SMALL
GASTEIGER

@<TRIPOS>ATOM
      1  N         68.9370   18.5830   36.4600 N.3    10  HIS10      -0.1226
      2  CA        68.2730   17.2950   36.6460 C.3    10  HIS10       0.1752
      3  C         69.2650   16.1380   36.5680 C.2    10  HIS10       0.2597
      4  O         69.3160   15.2990   37.4640 O.2    10  HIS10      -0.2718
      5  CB        67.1680   17.1250   35.6070 C.3    10  HIS10       0.0759
      6  CG        66.1610   16.0850   35.9700 C.ar   10  HIS10       0.0818
      7  ND1       66.1090   14.8560   35.3520 N.ar   10  HIS10      -0.2268
      8  CD2       65.1760   16.0840   36.8970 C.ar   10  HIS10       0.1154
      9  CE1       65.1280   14.1440   35.8770 C.ar   10  HIS10       0.1986
     10  NE2       64.5460   14.8660   36.8170 N.ar   10  HIS10      -0.2212
     11  N         70.0450   16.0910   35.4950 N.am   11  GLY11      -0.1942
     12  CA        71.0590   15.0580   35.3360 C.3    11  GLY11       0.2014
     13  C         71.9740   15.2950   34.1520 C.2    11  GLY11       0.2639
     14  O         71.8090   16.2610   33.4020 O.2    11  GLY11      -0.2714
     15  N         72.9360   14.3910   33.9840 N.am   12  GLU12      -0.1963
     16  CA        73.9790   14.5360   32.9770 C.3    12  GLU12       0.1733
     17  C         74.6880   13.2100   32.7270 C.2    12  GLU12       0.2617
     18  O         75.4380   12.7350   33.5790 O.2    12  GLU12      -0.2715
     19  CB        74.9860   15.5800   33.4560 C.3    12  GLU12       0.0429
     20  CG        76.1480   15.8690   32.5170 C.3    12  GLU12       0.1163
     21  CD        77.1190   16.8810   33.0960 C.2    12  GLU12       0.3649
     22  OE1       78.2830   16.9400   32.6410 O.co2  12  GLU12      -0.2457
     23  OE2       76.7130   17.6150   34.0200 O.co2  12  GLU12      -0.2457
     24  N         74.4230   12.6130   31.5680 N.am   13  GLY13      -0.1940
     25  CA        75.2260   11.5040   31.0470 C.3    13  GLY13       0.2014
     26  C         76.2760   12.0920   30.1250 C.2    13  GLY13       0.2639
     27  O         76.1010   13.2030   29.6320 O.2    13  GLY13      -0.2714
     28  N         77.3520   11.3490   29.8770 N.am   14  ASN14      -0.1958
     29  CA        78.5180   11.8620   29.1210 C.3    14  ASN14       0.1819
     30  C         78.2510   12.5210   27.7450 C.2    14  ASN14       0.2621
     31  O         79.0870   13.2960   27.2870 O.2    14  ASN14      -0.2715
     32  CB        79.5830   10.7680   28.9560 C.3    14  ASN14       0.1195
     33  CG        79.0790    9.5790   28.1650 C.2    14  ASN14       0.2630
     34  OD1       77.8830    9.2950   28.1620 O.2    14  ASN14      -0.2716
     35  ND2       79.9880    8.8740   27.4990 N.am   14  ASN14      -0.0877
     36  N         77.1200   12.2170   27.0970 N.am   15  LYS15      -0.1963
     37  CA        76.7570   12.8400   25.8050 C.3    15  LYS15       0.1728
     38  C         75.7530   14.0090   25.8710 C.2    15  LYS15       0.2616
     39  O         75.6780   14.7860   24.9170 O.2    15  LYS15      -0.2715
     40  CB        76.2670   11.7810   24.7970 C.3    15  LYS15       0.0311
     41  CG        77.3840   11.2040   23.9340 C.3    15  LYS15       0.0038
     42  CD        76.8720   10.2580   22.8550 C.3    15  LYS15       0.0206
     43  CE        78.0180    9.7140   22.0100 C.3    15  LYS15       0.1093
     44  NZ        77.6400    8.4880   21.2520 N.3    15  LYS15      -0.1314
     45  N         74.9880   14.1450   26.9570 N.am   16  SER16      -0.1950
     46  CA        74.0040   15.2380   27.0590 C.3    16  SER16       0.1924
     47  C         73.6540   15.6460   28.4920 C.2    16  SER16       0.2314
     48  O         73.7560   14.8440   29.4240 O.2    16  SER16      -0.2863
     49  CB        72.7170   14.8740   26.3020 C.3    16  SER16       0.2116
     50  OG        72.0580   13.7630   26.8840 O.3    16  SER16      -0.2180
     51  N         70.6570   17.4950   31.0390 N.3    18  VAL18      -0.1245
     52  CA        69.2120   17.7000   31.1930 C.3    18  VAL18       0.1561
     53  C         68.9310   18.6770   32.3360 C.2    18  VAL18       0.2260
     54  O         69.5720   18.6150   33.3900 O.2    18  VAL18      -0.2867
     55  CB        68.4720   16.3690   31.4630 C.3    18  VAL18       0.0252
     56  CG1       66.9680   16.5930   31.6100 C.3    18  VAL18       0.0019
     57  CG2       68.7430   15.3730   30.3430 C.3    18  VAL18       0.0019
     58  N         61.3540   18.7900   30.5850 N.3    27  VAL27      -0.1245
     59  CA        62.7870   18.9480   30.7370 C.3    27  VAL27       0.1561
     60  C         63.3810   19.3480   29.3950 C.2    27  VAL27       0.2260
     61  O         62.7760   19.1030   28.3490 O.2    27  VAL27      -0.2867
     62  CB        63.4530   17.6550   31.2560 C.3    27  VAL27       0.0252
     63  CG1       62.7970   17.1980   32.5490 C.3    27  VAL27       0.0019
     64  CG2       63.4030   16.5410   30.2170 C.3    27  VAL27       0.0019
     65  N         66.9350   19.0690   27.0050 N.3    29  ARG29      -0.1245
     66  CA        68.0890   18.1970   26.8050 C.3    29  ARG29       0.1563
     67  C         69.1110   18.8740   25.8740 C.2    29  ARG29       0.2260
     68  O         68.8520   19.0430   24.6840 O.2    29  ARG29      -0.2867
     69  CB        67.5990   16.8640   26.2310 C.3    29  ARG29       0.0307
     70  CG        68.5580   15.6930   26.3650 C.3    29  ARG29       0.0489
     71  CD        67.8520   14.3930   25.9870 C.3    29  ARG29       0.2205
     72  NE        68.7790   13.3120   25.6470 N.pl3  29  ARG29      -0.0865
     73  CZ        69.4890   13.2260   24.5180 C.cat  29  ARG29       0.5346
     74  NH1       69.4120   14.1680   23.5750 N.pl3  29  ARG29       0.1354
     75  NH2       70.3000   12.1860   24.3280 N.pl3  29  ARG29       0.1354
     76  N         61.4970   17.3600   26.3440 N.3   107  LEU107     -0.1231
     77  CA        60.9450   16.0360   26.6790 C.3   107  LEU107      0.1678
     78  C         60.0360   16.1610   27.8970 C.2   107  LEU107      0.2434
     79  O         60.1950   17.0960   28.6790 O.2   107  LEU107     -0.2733
     80  CB        62.0810   15.0630   27.0060 C.3   107  LEU107      0.0284
     81  CG        62.9540   14.5550   25.8530 C.3   107  LEU107      0.0019
     82  CD1       64.3640   14.2520   26.3460 C.3   107  LEU107      0.0001
     83  CD2       62.3420   13.3250   25.1930 C.3   107  LEU107      0.0001
     84  N         59.0880   15.2180   28.0750 N.am  108  PRO108     -0.2718
     85  CA        58.2940   15.2100   29.3060 C.3   108  PRO108      0.1535
     86  C         59.1240   14.7170   30.4750 C.2   108  PRO108      0.2599
     87  O         60.0050   13.8800   30.2850 O.2   108  PRO108     -0.2715
     88  CB        57.1740   14.2120   28.9990 C.3   108  PRO108      0.0310
     89  CG        57.7790   13.2730   28.0250 C.3   108  PRO108      0.0237
     90  CD        58.7010   14.1140   27.1770 C.3   108  PRO108      0.0939
     91  N         58.8400   15.2330   31.6670 N.am  109  ASN109     -0.1959
     92  CA        59.5390   14.8240   32.8910 C.3   109  ASN109      0.1819
     93  C         58.8470   13.5800   33.4550 C.2   109  ASN109      0.2621
     94  O         57.8510   13.6810   34.1700 O.2   109  ASN109     -0.2715
     95  CB        59.5580   15.9730   33.9090 C.3   109  ASN109      0.1195
     96  CG        60.5960   15.7810   34.9970 C.2   109  ASN109      0.2630
     97  OD1       60.9430   14.6580   35.3580 O.2   109  ASN109     -0.2716
     98  ND2       61.0990   16.8910   35.5300 N.am  109  ASN109     -0.0877
     99  N         59.3890   12.4100   33.1210 N.am  110  LEU110     -0.1963
    100  CA        58.8100   11.1260   33.5360 C.3   110  LEU110      0.1728
    101  C         58.9990   10.8110   35.0240 C.2   110  LEU110      0.2616
    102  O         58.4180    9.8470   35.5280 O.2   110  LEU110     -0.2715
    103  CB        59.3860    9.9800   32.6960 C.3   110  LEU110      0.0311
    104  CG        59.1770   10.0520   31.1800 C.3   110  LEU110      0.0022
    105  CD1       59.7360    8.7990   30.5240 C.3   110  LEU110      0.0001
    106  CD2       57.7090   10.2320   30.8130 C.3   110  LEU110      0.0001
    107  N         59.8110   11.6140   35.7110 N.am  111  THR111     -0.1951
    108  CA        59.9410   11.5600   37.1590 C.3   111  THR111      0.1897
    109  C         58.6500   11.9940   37.8870 C.2   111  THR111      0.2313
    110  O         58.4090   11.5680   39.0260 O.2   111  THR111     -0.2863
    111  CB        61.1150   12.4450   37.6420 C.3   111  THR111      0.1794
    112  OG1       62.2380   12.3050   36.7610 O.3   111  THR111     -0.2208
    113  CG2       61.5480   12.0410   39.0190 C.3   111  THR111      0.0378
    114  N         64.5950    4.5510   38.2850 N.3   128  GLU128     -0.1245
    115  CA        65.2500    4.5390   36.9840 C.3   128  GLU128      0.1567
    116  C         66.4240    3.5550   37.0050 C.2   128  GLU128      0.2260
    117  O         67.4130    3.7750   37.7000 O.2   128  GLU128     -0.2867
    118  CB        65.7330    5.9430   36.6260 C.3   128  GLU128      0.0388
    119  CG        66.1740    6.1040   35.1760 C.3   128  GLU128      0.1160
    120  CD        67.2220    7.1900   34.9930 C.2   128  GLU128      0.3649
    121  OE1       67.1780    8.2000   35.7280 O.co2 128  GLU128     -0.2457
    122  OE2       68.0990    7.0340   34.1150 O.co2 128  GLU128     -0.2457
    123  N         69.2920    1.2180   34.8030 N.3   130  LYS130     -0.1245
    124  CA        70.0700    1.0580   33.5730 C.3   130  LYS130      0.1561
    125  C         70.5680   -0.4080   33.5210 C.2   130  LYS130      0.2260
    126  O         71.6370   -0.7280   34.0630 O.2   130  LYS130     -0.2867
    127  CB        71.2230    2.0600   33.5560 C.3   130  LYS130      0.0271
    128  CG        71.7730    2.3460   32.1760 C.3   130  LYS130      0.0035
    129  CD        73.0540    3.1560   32.2620 C.3   130  LYS130      0.0206
    130  CE        73.4770    3.6580   30.8900 C.3   130  LYS130      0.1093
    131  NZ        74.8420    4.2550   30.8960 N.3   130  LYS130     -0.1314
    132  N         68.8090    4.9390   39.9900 N.3   201  ARG201     -0.1245
    133  CA        68.4140    6.1360   40.7040 C.3   201  ARG201      0.1563
    134  C         66.9700    6.0300   41.1210 C.2   201  ARG201      0.2260
    135  O         66.1760    5.3820   40.4430 O.2   201  ARG201     -0.2867
    136  CB        68.6110    7.3530   39.8250 C.3   201  ARG201      0.0307
    137  CG        70.0700    7.7210   39.6890 C.3   201  ARG201      0.0489
    138  CD        70.2370    9.1410   39.2050 C.3   201  ARG201      0.2205
    139  NE        69.8320    9.2880   37.8140 N.pl3 201  ARG201     -0.0865
    140  CZ        69.6890   10.4560   37.1910 C.cat 201  ARG201      0.5346
    141  NH1       69.8990   11.6190   37.8190 N.pl3 201  ARG201      0.1354
    142  NH2       69.3320   10.4630   35.9200 N.pl3 201  ARG201      0.1354
    143  N         63.6790    8.5360   42.6720 N.3   203  PHE203     -0.1241
    144  CA        63.1770    9.8900   42.9050 C.3   203  PHE203      0.1605
    145  C         61.8700    9.8590   43.6850 C.2   203  PHE203      0.2264
    146  O         61.1160    8.8920   43.6060 O.2   203  PHE203     -0.2867
    147  CB        62.9050   10.6030   41.5830 C.3   203  PHE203      0.0534
    148  CG        64.0940   10.6960   40.6650 C.ar  203  PHE203     -0.0203
    149  CD1       64.4570    9.6210   39.8670 C.ar  203  PHE203     -0.0042
    150  CD2       64.8070   11.8830   40.5490 C.ar  203  PHE203     -0.0042
    151  CE1       65.5330    9.7170   38.9990 C.ar  203  PHE203     -0.0003
    152  CE2       65.8840   11.9860   39.6840 C.ar  203  PHE203     -0.0003
    153  CZ        66.2490   10.9010   38.9080 C.ar  203  PHE203     -0.0000
    154  N         72.5870    0.3790   26.1000 N.3   371  ASP371     -0.1239
    155  CA        72.8650    1.5580   26.9080 C.3   371  ASP371      0.1674
    156  C         71.6080    2.3450   27.3570 C.2   371  ASP371      0.2266
    157  O         71.7310    3.4060   27.9880 O.2   371  ASP371     -0.2867
    158  CB        73.8090    2.4680   26.1240 C.3   371  ASP371      0.1410
    159  CG        74.5850    3.3920   27.0150 C.2   371  ASP371      0.3668
    160  OD1       75.4320    2.8940   27.7880 O.co2 371  ASP371     -0.2456
    161  OD2       74.3330    4.6150   26.9600 O.co2 371  ASP371     -0.2456
    162  N         67.9800    3.3110   29.3460 N.3   373  SER373     -0.1217
    163  CA        67.4810    3.3090   30.7290 C.3   373  SER373      0.1889
    164  C         66.0000    2.9590   30.7390 C.2   373  SER373      0.2288
    165  O         65.3230    3.1700   29.7430 O.2   373  SER373     -0.2866
    166  CB        67.6790    4.6850   31.3730 C.3   373  SER373      0.2089
    167  OG        68.9320    5.2540   31.0250 O.3   373  SER373     -0.2183
    168  N         62.4430    3.6470   33.0760 N.3   375  MET375     -0.1245
    169  CA        61.8150    4.4560   34.1230 C.3   375  MET375      0.1570
    170  C         60.4810    3.8220   34.5270 C.2   375  MET375      0.2261
    171  O         59.6630    3.4960   33.6700 O.2   375  MET375     -0.2867
    172  CB        61.6030    5.8790   33.6040 C.3   375  MET375      0.0387
    173  CG        60.9740    6.8610   34.5870 C.3   375  MET375      0.0595
    174  SD        62.0730    7.4170   35.9000 S.3   375  MET375     -0.1393
    175  CE        63.1780    8.4970   34.9900 C.3   375  MET375      0.0692
    176  N         64.1180    5.4270   28.2410 N.3   393  LEU393     -0.1231
    177  CA        64.8110    6.6850   28.0470 C.3   393  LEU393      0.1693
    178  C         66.1360    6.3890   27.3910 C.2   393  LEU393      0.2592
    179  O         66.5610    5.2330   27.3470 O.2   393  LEU393     -0.2718
    180  CB        65.0590    7.3330   29.4030 C.3   393  LEU393      0.0284
    181  CG        63.7980    7.7620   30.1460 C.3   393  LEU393      0.0019
    182  CD1       64.1240    8.0430   31.6020 C.3   393  LEU393      0.0001
    183  CD2       63.1740    8.9770   29.4680 C.3   393  LEU393      0.0001
    184  N         66.7870    7.4350   26.8850 N.am  394  ASP394     -0.1974
    185  CA        68.1500    7.3330   26.3810 C.3   394  ASP394      0.1709
    186  C         68.1930    6.5000   25.0800 C.2   394  ASP394      0.2293
    187  O         68.9650    5.5420   24.9590 O.2   394  ASP394     -0.2864
    188  CB        69.0450    6.7410   27.4880 C.3   394  ASP394      0.1436
    189  CG        70.4400    7.3090   27.4910 C.2   394  ASP394      0.3671
    190  OD1       71.0190    7.5420   26.4010 O.co2 394  ASP394     -0.2456
    191  OD2       70.9600    7.5000   28.6120 O.co2 394  ASP394     -0.2456
    192  N         68.9690    7.2670   21.6010 N.3   396  ASP396     -0.1239
    193  CA        69.5800    7.9720   20.4780 C.3   396  ASP396      0.1674
    194  C         70.5710    7.0230   19.8170 C.2   396  ASP396      0.2266
    195  O         71.3860    6.4010   20.5030 O.2   396  ASP396     -0.2867
    196  CB        70.2340    9.2980   20.9110 C.3   396  ASP396      0.1410
    197  CG        71.0260    9.1920   22.2110 C.2   396  ASP396      0.3668
    198  OD1       71.0190    8.1200   22.8600 O.co2 396  ASP396     -0.2456
    199  OD2       71.6530   10.2060   22.5870 O.co2 396  ASP396     -0.2456
    200  N         73.5540    5.1980   18.1580 N.3   398  LYS398     -0.1245
    201  CA        74.9980    5.3540   18.3500 C.3   398  LYS398      0.1561
    202  C         75.6550    5.6680   17.0070 C.2   398  LYS398      0.2260
    203  O         75.3540    5.0040   16.0110 O.2   398  LYS398     -0.2867
    204  CB        75.6110    4.0840   18.9520 C.3   398  LYS398      0.0271
    205  CG        75.1210    3.7460   20.3560 C.3   398  LYS398      0.0035
    206  CD        75.8080    4.5860   21.4240 C.3   398  LYS398      0.0206
    207  CE        75.1170    4.4480   22.7760 C.3   398  LYS398      0.1093
    208  NZ        73.8970    5.2960   22.9200 N.3   398  LYS398     -0.1314
@<TRIPOS>BOND
     1   203   202    2
     2   202   201    1
     3   200   201    1
     4   201   204    1
     5   204   205    1
     6   194   193    1
     7   194   195    2
     8   205   206    1
     9   193   196    1
    10   193   192    1
    11   196   197    1
    12    44    43    1
    13   206   207    1
    14    43    42    1
    15   197   199   ar
    16   197   198   ar
    17   207   208    1
    18    42    41    1
    19    74    73    1
    20    41    40    1
    21    75    73    1
    22    73    72    2
    23    68    67    2
    24    40    37    1
    25    39    38    2
    26   187   186    2
    27   186   185    1
    28    83    81    1
    29    72    71    1
    30    37    38    1
    31    37    36    1
    32    81    82    1
    33    81    80    1
    34    38    45   am
    35    67    66    1
    36    71    70    1
    37   154   155    1
    38   158   155    1
    39   158   159    1
    40    69    70    1
    41    69    66    1
    42    49    50    1
    43    49    46    1
    44    76    77    1
    45   185   184    1
    46   185   188    1
    47   190   189   ar
    48    77    80    1
    49    77    78    1
    50    66    65    1
    51   184   178   am
    52   155   156    1
    53    45    46    1
    54   161   159   ar
    55   159   160   ar
    56    46    47    1
    57    36    30   am
    58    90    89    1
    59    90    84    1
    60    31    30    2
    61   179   178    2
    62   156   157    2
    63   178   177    1
    64   188   189    1
    65   189   191   ar
    66    35    33   am
    67    30    29    1
    68    78    84   am
    69    78    79    2
    70    89    88    1
    71   177   176    1
    72   177   180    1
    73    84    85    1
    74    34    33    2
    75    33    32    1
    76    61    60    2
    77    47    48    2
    78    32    29    1
    79    88    85    1
    80    29    28    1
    81    85    86    1
    82   162   163    1
    83    60    59    1
    84   180   181    1
    85   183   181    1
    86    27    26    2
    87   165   164    2
    88    28    26   am
    89    26    25    1
    90   181   182    1
    91    64    62    1
    92    87    86    2
    93    57    55    1
    94    86    91   am
    95   105   104    1
    96    58    59    1
    97   163   164    1
    98   163   166    1
    99    59    62    1
   100   106   104    1
   101   130   131    1
   102   130   129    1
   103   167   166    1
   104    51    52    1
   105    25    24    1
   106   104   103    1
   107    52    55    1
   108    52    53    1
   109    62    63    1
   110    55    56    1
   111    24    17   am
   112    91    92    1
   113   128   129    1
   114   128   127    1
   115    53    54    2
   116    20    21    1
   117    20    19    1
   118    22    21   ar
   119   103   100    1
   120    17    16    1
   121    17    18    2
   122    92    93    1
   123    92    95    1
   124    16    19    1
   125    16    15    1
   126   168   169    1
   127    21    23   ar
   128    99    93   am
   129    99   100    1
   130    14    13    2
   131    93    94    2
   132   125   124    1
   133   125   126    2
   134   100   101    1
   135   127   124    1
   136   124   123    1
   137   172   169    1
   138   172   173    1
   139   171   170    2
   140    95    96    1
   141    15    13   am
   142   122   120   ar
   143   169   170    1
   144    13    12    1
   145   173   174    1
   146   175   174    1
   147   120   119    1
   148   120   121   ar
   149    96    97    2
   150    96    98   am
   151   101   102    2
   152   101   107   am
   153   119   118    1
   154    12    11    1
   155     7     9   ar
   156     7     6   ar
   157    11     3   am
   158     5     6    1
   159     5     2    1
   160   107   108    1
   161     9    10   ar
   162   142   140    1
   163     6     8   ar
   164     1     2    1
   165     3     2    1
   166     3     4    2
   167   118   115    1
   168   112   111    1
   169    10     8   ar
   170   115   116    1
   171   115   114    1
   172   116   117    2
   173   108   111    1
   174   108   109    1
   175   140   139    2
   176   140   141    1
   177   111   113    1
   178   139   138    1
   179   109   110    2
   180   153   151   ar
   181   153   152   ar
   182   151   149   ar
   183   138   137    1
   184   152   150   ar
   185   137   136    1
   186   136   133    1
   187   149   148   ar
   188   132   133    1
   189   135   134    2
   190   150   148   ar
   191   148   147    1
   192   133   134    1
   193   147   144    1
   194   143   144    1
   195   144   145    1
   196   146   145    2
