@<TRIPOS>MOLECULE
tmp/5mwmA00.pdb
 192 180 0 0 0
SMALL
GASTEIGER

@<TRIPOS>ATOM
      1  N         -1.6000    8.5010   16.7550 N.3     8  GLY8       -0.1210
      2  CA        -1.0060    9.0030   15.5100 C.3     8  GLY8        0.1956
      3  C         -1.9900   10.0250   14.9620 C.2     8  GLY8        0.2612
      4  O         -2.8690   10.4770   15.6970 O.2     8  GLY8       -0.2717
      5  N         -1.8640   10.3970   13.6880 N.am    9  ASN9       -0.1960
      6  CA        -2.7970   11.3780   13.0880 C.3     9  ASN9        0.1819
      7  C         -4.0570   10.7560   12.4720 C.2     9  ASN9        0.2621
      8  O         -4.9780   11.4880   12.1110 O.2     9  ASN9       -0.2715
      9  CB        -2.1030   12.2830   12.0550 C.3     9  ASN9        0.1195
     10  CG        -1.6550   11.5350   10.8140 C.2     9  ASN9        0.2630
     11  OD1       -1.5350   10.3110   10.8210 O.2     9  ASN9       -0.2716
     12  ND2       -1.4020   12.2720    9.7400 N.am    9  ASN9       -0.0877
     13  N         -4.0900    9.4290   12.3440 N.am   10  LYS10      -0.1977
     14  CA        -5.2760    8.7150   11.8500 C.3    10  LYS10       0.1596
     15  C         -6.1990    8.2320   12.9660 C.2    10  LYS10       0.2287
     16  O         -7.4140    8.1440   12.7590 O.2    10  LYS10      -0.2864
     17  CB        -4.8690    7.5270   10.9580 C.3    10  LYS10       0.0298
     18  CG        -5.1760    7.6660    9.4670 C.3    10  LYS10       0.0038
     19  CD        -4.9900    9.0680    8.8950 C.3    10  LYS10       0.0206
     20  CE        -5.0410    9.0570    7.3750 C.3    10  LYS10       0.1093
     21  NZ        -4.8480   10.4200    6.8030 N.3    10  LYS10      -0.1314
     22  N         -0.5350   17.2600   18.0470 N.3    88  ARG88      -0.1245
     23  CA        -1.6990   16.5360   17.5110 C.3    88  ARG88       0.1563
     24  C         -3.0690   17.0290   18.0140 C.2    88  ARG88       0.2260
     25  O         -4.0720   16.3140   17.8970 O.2    88  ARG88      -0.2867
     26  CB        -1.5450   15.0470   17.8000 C.3    88  ARG88       0.0307
     27  CG        -0.2800   14.4420   17.2270 C.3    88  ARG88       0.0489
     28  CD        -0.3350   12.9430   17.3820 C.3    88  ARG88       0.2205
     29  NE         0.8360   12.2670   16.8450 N.pl3  88  ARG88      -0.0865
     30  CZ         1.0800   12.0530   15.5530 C.cat  88  ARG88       0.5346
     31  NH1        0.2520   12.4770   14.6000 N.pl3  88  ARG88       0.1354
     32  NH2        2.1830   11.4080   15.2090 N.pl3  88  ARG88       0.1354
     33  N          8.4400    1.5260   15.1510 N.3   119  LYS119     -0.1245
     34  CA         7.9130    1.8750   13.8400 C.3   119  LYS119      0.1561
     35  C          9.1230    1.8240   12.9110 C.2   119  LYS119      0.2260
     36  O          9.7830    2.8380   12.6870 O.2   119  LYS119     -0.2867
     37  CB         7.2950    3.2740   13.8820 C.3   119  LYS119      0.0271
     38  CG         6.2410    3.5220   12.8180 C.3   119  LYS119      0.0035
     39  CD         6.1060    4.9980   12.4580 C.3   119  LYS119      0.0206
     40  CE         4.6620    5.3780   12.1700 C.3   119  LYS119      0.1093
     41  NZ         4.5820    6.4540   11.1490 N.3   119  LYS119     -0.1314
     42  N          9.7540    1.4320    9.7340 N.3   121  LYS121     -0.1245
     43  CA         9.6690    2.1180    8.4350 C.3   121  LYS121      0.1561
     44  C         10.2190    1.2130    7.3270 C.2   121  LYS121      0.2260
     45  O         10.2450    0.0010    7.5200 O.2   121  LYS121     -0.2867
     46  CB        10.2790    3.5260    8.5020 C.3   121  LYS121      0.0271
     47  CG         9.6680    4.3910    9.6120 C.3   121  LYS121      0.0035
     48  CD         8.7940    5.5260    9.0960 C.3   121  LYS121      0.0206
     49  CE         7.5850    5.0540    8.3000 C.3   121  LYS121      0.1093
     50  NZ         6.8260    6.2110    7.7530 N.3   121  LYS121     -0.1314
     51  N         14.8110    5.8050    1.9930 N.3   141  ARG141     -0.1245
     52  CA        13.7790    6.8400    2.1870 C.3   141  ARG141      0.1563
     53  C         13.9020    7.5230    3.5480 C.2   141  ARG141      0.2260
     54  O         13.9610    8.7560    3.6370 O.2   141  ARG141     -0.2867
     55  CB        12.3780    6.2160    2.0180 C.3   141  ARG141      0.0307
     56  CG        11.1900    6.9980    2.5760 C.3   141  ARG141      0.0489
     57  CD        11.0270    8.3960    1.9960 C.3   141  ARG141      0.2205
     58  NE         9.6390    8.8290    2.1900 N.pl3 141  ARG141     -0.0865
     59  CZ         8.6640    8.8210    1.2720 C.cat 141  ARG141      0.5346
     60  NH1        8.8780    8.4510    0.0060 N.pl3 141  ARG141      0.1354
     61  NH2        7.4440    9.2220    1.6300 N.pl3 141  ARG141      0.1354
     62  N         14.6550   11.5310    4.3630 N.3   145  HIS145     -0.1241
     63  CA        13.5240   12.2360    5.0090 C.3   145  HIS145      0.1621
     64  C         13.9450   13.0230    6.2560 C.2   145  HIS145      0.2264
     65  O         13.6480   14.2160    6.3900 O.2   145  HIS145     -0.2867
     66  CB        12.4210   11.2420    5.4090 C.3   145  HIS145      0.0745
     67  CG        11.0580   11.8480    5.4870 C.ar  145  HIS145      0.0817
     68  ND1        9.9120   11.1070    5.3110 N.ar  145  HIS145     -0.2268
     69  CD2       10.6530   13.1260    5.6790 C.ar  145  HIS145      0.1154
     70  CE1        8.8600   11.8990    5.4110 C.ar  145  HIS145      0.1986
     71  NE2        9.2820   13.1300    5.6280 N.ar  145  HIS145     -0.2212
     72  N         12.5820   16.7530    8.0430 N.3   149  LYS149     -0.1245
     73  CA        11.8730   16.7980    9.3350 C.3   149  LYS149      0.1561
     74  C         12.5340   17.7400   10.3320 C.2   149  LYS149      0.2260
     75  O         11.8540   18.5190   10.9970 O.2   149  LYS149     -0.2867
     76  CB        11.7640   15.4000    9.9480 C.3   149  LYS149      0.0271
     77  CG        10.8420   14.4740    9.1750 C.3   149  LYS149      0.0035
     78  CD        10.9150   13.0440    9.6830 C.3   149  LYS149      0.0206
     79  CE         9.7370   12.2230    9.1740 C.3   149  LYS149      0.1093
     80  NZ         9.9380   10.7480    9.2700 N.3   149  LYS149     -0.1314
     81  N         10.0590   19.3360   13.0690 N.3   154  LYS154     -0.1231
     82  CA         9.2540   18.2430   13.6100 C.3   154  LYS154      0.1693
     83  C         10.0470   17.5890   14.7460 C.2   154  LYS154      0.2592
     84  O          9.4960   17.3190   15.8170 O.2   154  LYS154     -0.2718
     85  CB         8.9270   17.2220   12.5060 C.3   154  LYS154      0.0285
     86  CG         8.1470   15.9900   12.9590 C.3   154  LYS154      0.0035
     87  CD         7.7960   15.0700   11.7910 C.3   154  LYS154      0.0206
     88  CE         6.5030   15.4780   11.0950 C.3   154  LYS154      0.1093
     89  NZ         5.2820   15.0860   11.8600 N.3   154  LYS154     -0.1314
     90  N         11.3370   17.3350   14.4930 N.am  155  TRP155     -0.1976
     91  CA        12.2680   16.7870   15.4900 C.3   155  TRP155      0.1640
     92  C         13.5020   17.6720   15.6410 C.2   155  TRP155      0.2290
     93  O         13.8450   18.4360   14.7360 O.2   155  TRP155     -0.2864
     94  CB        12.6590   15.3500   15.1220 C.3   155  TRP155      0.0576
     95  CG        11.4610   14.4650   15.0390 C.ar  155  TRP155      0.0006
     96  CD1       10.9920   13.8230   13.9390 C.ar  155  TRP155      0.0946
     97  CD2       10.5430   14.1770   16.0970 C.ar  155  TRP155      0.0152
     98  NE1        9.8480   13.1330   14.2450 N.ar  155  TRP155     -0.2442
     99  CE2        9.5480   13.3370   15.5650 C.ar  155  TRP155      0.0810
    100  CE3       10.4690   14.5440   17.4500 C.ar  155  TRP155      0.0012
    101  CZ2        8.4890   12.8460   16.3400 C.ar  155  TRP155      0.0191
    102  CZ3        9.4160   14.0570   18.2220 C.ar  155  TRP155      0.0001
    103  CH2        8.4400   13.2170   17.6630 C.ar  155  TRP155      0.0015
    104  N          9.2640    9.1860   16.6170 N.3   187  ASN187     -0.1240
    105  CA         8.0310    8.3930   16.6090 C.3   187  ASN187      0.1653
    106  C          8.3480    6.9680   16.1790 C.2   187  ASN187      0.2266
    107  O          7.5050    6.2940   15.5830 O.2   187  ASN187     -0.2867
    108  CB         7.0010    9.0150   15.6490 C.3   187  ASN187      0.1155
    109  CG         7.4610    9.0060   14.1900 C.2   187  ASN187      0.2627
    110  OD1        8.6610    8.9540   13.8980 O.2   187  ASN187     -0.2716
    111  ND2        6.5060    9.0670   13.2670 N.am  187  ASN187     -0.0877
    112  N          2.6220    0.1850    1.1710 N.3   350  MET350     -0.1245
    113  CA         2.4950    1.4620    1.8830 C.3   350  MET350      0.1570
    114  C          1.9930    1.2630    3.3160 C.2   350  MET350      0.2261
    115  O          2.4080    1.9870    4.2200 O.2   350  MET350     -0.2867
    116  CB         1.4840    2.3380    1.1300 C.3   350  MET350      0.0387
    117  CG         1.7370    3.8260    1.0790 C.3   350  MET350      0.0595
    118  SD         0.6290    4.4780   -0.2010 S.3   350  MET350     -0.1393
    119  CE         0.0800    6.0130    0.5420 C.3   350  MET350      0.0692
    120  N          4.3450    1.6330    7.1210 N.3   354  ASP354     -0.1239
    121  CA         4.0140    2.5560    8.2100 C.3   354  ASP354      0.1674
    122  C          3.5520    1.8440    9.4820 C.2   354  ASP354      0.2266
    123  O          3.0330    2.4860   10.3910 O.2   354  ASP354     -0.2867
    124  CB         2.9300    3.5320    7.7440 C.3   354  ASP354      0.1410
    125  CG         2.6970    4.6780    8.7360 C.2   354  ASP354      0.3668
    126  OD1        3.6170    5.5140    8.9140 O.co2 354  ASP354     -0.2456
    127  OD2        1.5950    4.7300    9.3400 O.co2 354  ASP354     -0.2456
    128  N         -1.0560   -0.7790   13.5680 N.3   380  ASP380     -0.1239
    129  CA        -1.2860    0.2410   12.5340 C.3   380  ASP380      0.1674
    130  C         -1.4770   -0.4030   11.1420 C.2   380  ASP380      0.2266
    131  O         -0.8630    0.0110   10.1550 O.2   380  ASP380     -0.2867
    132  CB        -0.1510    1.3030   12.5460 C.3   380  ASP380      0.1410
    133  CG        -0.4960    2.5430   13.3770 C.2   380  ASP380      0.3668
    134  OD1       -1.5440    3.1670   13.1060 O.co2 380  ASP380     -0.2456
    135  OD2        0.2930    2.9160   14.2770 O.co2 380  ASP380     -0.2456
    136  N         -4.1520   -0.5700    8.9060 N.3   382  ASP382     -0.1239
    137  CA        -5.3060   -0.1450    8.1180 C.3   382  ASP382      0.1674
    138  C         -4.8100    0.3420    6.7700 C.2   382  ASP382      0.2266
    139  O         -3.7560    0.9810    6.6770 O.2   382  ASP382     -0.2867
    140  CB        -6.1400    0.9270    8.8350 C.3   382  ASP382      0.1410
    141  CG        -5.3730    2.2050    9.1140 C.2   382  ASP382      0.3668
    142  OD1       -4.1550    2.1280    9.3930 O.co2 382  ASP382     -0.2456
    143  OD2       -6.0020    3.2880    9.0660 O.co2 382  ASP382     -0.2456
    144  N         -3.9240    2.1660    3.4500 N.3   384  LYS384     -0.1231
    145  CA        -3.7700    3.5380    2.9930 C.3   384  LYS384      0.1678
    146  C         -4.7400    3.7930    1.8570 C.2   384  LYS384      0.2434
    147  O         -4.9540    2.9110    1.0210 O.2   384  LYS384     -0.2733
    148  CB        -2.3450    3.8060    2.5130 C.3   384  LYS384      0.0284
    149  CG        -1.2570    3.5490    3.5440 C.3   384  LYS384      0.0035
    150  CD        -1.5800    4.1550    4.9010 C.3   384  LYS384      0.0206
    151  CE        -0.4370    3.9810    5.8810 C.3   384  LYS384      0.1093
    152  NZ        -0.4940    5.0220    6.9430 N.3   384  LYS384     -0.1314
    153  N         -5.3480    4.9870    1.8280 N.am  385  PRO385     -0.2729
    154  CA        -6.3210    5.2410    0.7690 C.3   385  PRO385      0.1401
    155  C         -5.7100    5.3600   -0.6350 C.2   385  PRO385      0.2269
    156  O         -4.5910    5.8580   -0.7900 O.2   385  PRO385     -0.2865
    157  CB        -6.9990    6.5530    1.1960 C.3   385  PRO385      0.0296
    158  CG        -6.1310    7.1470    2.2520 C.3   385  PRO385      0.0237
    159  CD        -5.3440    6.0350    2.8650 C.3   385  PRO385      0.0939
    160  N         -4.6240    9.0540   -1.7350 N.3   388  SER388     -0.1217
    161  CA        -3.3970    9.6750   -1.2260 C.3   388  SER388      0.1889
    162  C         -2.1350    9.3660   -2.0310 C.2   388  SER388      0.2288
    163  O         -1.0470    9.7440   -1.6160 O.2   388  SER388     -0.2866
    164  CB        -3.1590    9.2220    0.2150 C.3   388  SER388      0.2089
    165  OG        -2.7710    7.8560    0.2480 O.3   388  SER388     -0.2183
    166  N         -0.3060   12.5250   -3.3050 N.3   391  HIS391     -0.1226
    167  CA         0.4520   13.1220   -2.2080 C.3   391  HIS391      0.1752
    168  C          1.8190   12.4470   -2.0360 C.2   391  HIS391      0.2595
    169  O          2.8240   13.1260   -1.8380 O.2   391  HIS391     -0.2718
    170  CB        -0.3470   13.0620   -0.8970 C.3   391  HIS391      0.0759
    171  CG         0.4480   13.4320    0.3150 C.ar  391  HIS391      0.0818
    172  ND1        0.9260   14.7060    0.5310 N.ar  391  HIS391     -0.2268
    173  CD2        0.8570   12.6920    1.3720 C.ar  391  HIS391      0.1154
    174  CE1        1.5980   14.7350    1.6680 C.ar  391  HIS391      0.1986
    175  NE2        1.5720   13.5250    2.1980 N.ar  391  HIS391     -0.2212
    176  N          1.8490   11.1200   -2.1230 N.am  392  GLN392     -0.1979
    177  CA         3.1040   10.3640   -2.0200 C.3   392  GLN392      0.1601
    178  C          4.0720   10.6160   -3.1750 C.2   392  GLN392      0.2287
    179  O          5.2810   10.5290   -2.9900 O.2   392  GLN392     -0.2864
    180  CB         2.8260    8.8630   -1.9340 C.3   392  GLN392      0.0394
    181  CG         2.0900    8.4350   -0.6770 C.3   392  GLN392      0.0908
    182  CD         2.8910    8.6850    0.5840 C.2   392  GLN392      0.2608
    183  OE1        4.0810    8.3680    0.6490 O.2   392  GLN392     -0.2717
    184  NE2        2.2440    9.2600    1.5930 N.am  392  GLN392     -0.0878
    185  N          5.4500   14.2670   -2.4340 N.3   395  LEU395     -0.1245
    186  CA         6.3100   14.2070   -1.2550 C.3   395  LEU395      0.1561
    187  C          7.6530   13.5320   -1.5550 C.2   395  LEU395      0.2260
    188  O          8.6760   13.9110   -0.9920 O.2   395  LEU395     -0.2867
    189  CB         5.5800   13.4680   -0.1300 C.3   395  LEU395      0.0270
    190  CG         6.2090   13.4540    1.2600 C.3   395  LEU395      0.0019
    191  CD1        6.5090   14.8650    1.7450 C.3   395  LEU395      0.0001
    192  CD2        5.2740   12.7400    2.2230 C.3   395  LEU395      0.0001
@<TRIPOS>BOND
     1   166   167    1
     2   178   179    2
     3   178   177    1
     4   185   186    1
     5   167   168    1
     6   167   170    1
     7   176   168   am
     8   176   177    1
     9   168   169    2
    10   162   163    2
    11   162   161    1
    12   177   180    1
    13   180   181    1
    14   160   161    1
    15   187   186    1
    16   187   188    2
    17   186   189    1
    18   161   164    1
    19   170   171    1
    20   156   155    2
    21   181   182    1
    22   155   154    1
    23   118   119    1
    24   118   117    1
    25   189   190    1
    26    60    59    1
    27   164   165    1
    28   171   172   ar
    29   171   173   ar
    30   172   174   ar
    31   182   183    2
    32   182   184   am
    33   154   157    1
    34   154   153    1
    35   147   146    2
    36   117   116    1
    37   116   113    1
    38   112   113    1
    39   157   158    1
    40   190   191    1
    41   190   192    1
    42    59    61    1
    43    59    58    2
    44   173   175   ar
    45   174   175   ar
    46   153   146   am
    47   153   159    1
    48   146   145    1
    49   113   114    1
    50    51    52    1
    51    57    58    1
    52    57    56    1
    53    55    52    1
    54    55    56    1
    55    52    53    1
    56   158   159    1
    57   148   145    1
    58   148   149    1
    59   145   144    1
    60   114   115    2
    61   149   150    1
    62    53    54    2
    63    62    63    1
    64   150   151    1
    65    63    66    1
    66    63    64    1
    67    68    70   ar
    68    68    67   ar
    69    66    67    1
    70    70    71   ar
    71    67    69   ar
    72    71    69   ar
    73   151   152    1
    74    64    65    2
    75   139   138    2
    76   138   137    1
    77    21    20    1
    78   120   121    1
    79    44    45    2
    80    44    43    1
    81    20    19    1
    82   124   121    1
    83   124   125    1
    84    50    49    1
    85    72    73    1
    86   137   140    1
    87   137   136    1
    88   121   122    1
    89    49    48    1
    90    43    46    1
    91    43    42    1
    92    46    47    1
    93   125   126   ar
    94   125   127   ar
    95   140   141    1
    96    19    18    1
    97   143   141   ar
    98    48    47    1
    99   141   142   ar
   100    79    80    1
   101    79    78    1
   102    77    78    1
   103    77    76    1
   104    73    76    1
   105    73    74    1
   106    18    17    1
   107   122   123    2
   108    12    10   am
   109   131   130    2
   110    74    75    2
   111    10    11    2
   112    10     9    1
   113    17    14    1
   114    88    87    1
   115    88    89    1
   116   130   129    1
   117    41    40    1
   118    87    86    1
   119    14    13    1
   120    14    15    1
   121     9     6    1
   122     8     7    2
   123    40    39    1
   124    13     7   am
   125    39    38    1
   126     7     6    1
   127    85    86    1
   128    85    82    1
   129   129   132    1
   130   129   128    1
   131   132   133    1
   132    36    35    2
   133    16    15    2
   134    38    37    1
   135    35    34    1
   136    81    82    1
   137     6     5    1
   138   134   133   ar
   139   111   109   am
   140   133   135   ar
   141    82    83    1
   142     5     3   am
   143    34    37    1
   144    34    33    1
   145   110   109    2
   146    96    98   ar
   147    96    95   ar
   148   109   108    1
   149    98    99   ar
   150    90    83   am
   151    90    91    1
   152    31    30    1
   153    93    92    2
   154    83    84    2
   155     3     2    1
   156     3     4    2
   157    95    94    1
   158    95    97   ar
   159    94    91    1
   160    32    30    1
   161    91    92    1
   162     2     1    1
   163    30    29    2
   164    99    97   ar
   165    99   101   ar
   166   107   106    2
   167   108   105    1
   168    97   100   ar
   169   106   105    1
   170   101   103   ar
   171   105   104    1
   172    29    28    1
   173    27    28    1
   174    27    26    1
   175   100   102   ar
   176    23    26    1
   177    23    24    1
   178    23    22    1
   179   103   102   ar
   180    25    24    2
