@<TRIPOS>MOLECULE
tmp/5mwoA00.pdb
 136 133 0 0 0
SMALL
GASTEIGER

@<TRIPOS>ATOM
      1  N          6.9200   35.6130    3.1170 N.3    66  LEU66      -0.1245
      2  CA         6.6730   34.3760    3.8490 C.3    66  LEU66       0.1561
      3  C          5.7290   34.6020    5.0250 C.2    66  LEU66       0.2260
      4  O          4.8640   33.7650    5.3100 O.2    66  LEU66      -0.2867
      5  CB         7.9970   33.7910    4.3340 C.3    66  LEU66       0.0270
      6  CG         7.9030   32.3420    4.8040 C.3    66  LEU66       0.0019
      7  CD1        7.4730   31.4490    3.6300 C.3    66  LEU66       0.0001
      8  CD2        9.2400   31.8930    5.3430 C.3    66  LEU66       0.0001
      9  N          2.1520   34.6410    3.5150 N.3    69  LEU69      -0.1231
     10  CA         1.6740   33.2870    3.2590 C.3    69  LEU69       0.1693
     11  C          1.2240   32.6020    4.5400 C.2    69  LEU69       0.2591
     12  O          0.1560   31.9820    4.5830 O.2    69  LEU69      -0.2718
     13  CB         2.7730   32.4530    2.6040 C.3    69  LEU69       0.0284
     14  CG         2.9180   32.5240    1.1010 C.3    69  LEU69       0.0019
     15  CD1        3.8920   31.4420    0.6990 C.3    69  LEU69       0.0001
     16  CD2        1.5630   32.3220    0.4220 C.3    69  LEU69       0.0001
     17  N          2.0530   32.6730    5.5880 N.am   70  ALA70      -0.1980
     18  CA         1.7440   31.9630    6.8240 C.3    70  ALA70       0.1597
     19  C          0.3750   32.3560    7.3620 C.2    70  ALA70       0.2287
     20  O         -0.4040   31.4960    7.7860 O.2    70  ALA70      -0.2864
     21  CB         2.8320   32.2240    7.8650 C.3    70  ALA70       0.0319
     22  N          1.3110   23.9140   -1.1220 N.3    81  MET81      -0.1230
     23  CA         1.6620   24.7450    0.0310 C.3    81  MET81       0.1702
     24  C          3.1680   24.9220    0.1270 C.2    81  MET81       0.2592
     25  O          3.6610   26.0410    0.2720 O.2    81  MET81      -0.2718
     26  CB         1.1120   24.1390    1.3340 C.3    81  MET81       0.0401
     27  CG         1.9710   24.4610    2.5910 C.3    81  MET81       0.0596
     28  SD         1.4200   23.9380    4.2630 S.3    81  MET81      -0.1393
     29  CE         2.1690   22.3260    4.4520 C.3    81  MET81       0.0692
     30  N          3.9190   23.8190    0.0350 N.am   82  TRP82      -0.1976
     31  CA         5.3740   23.9160    0.0790 C.3    82  TRP82       0.1640
     32  C          5.9120   24.6500   -1.1470 C.2    82  TRP82       0.2290
     33  O          6.8210   25.4830   -1.0260 O.2    82  TRP82      -0.2864
     34  CB         5.9990   22.5190    0.2100 C.3    82  TRP82       0.0576
     35  CG         5.7120   21.8330    1.5530 C.ar   82  TRP82       0.0006
     36  CD1        4.8910   20.7650    1.7780 C.ar   82  TRP82       0.0946
     37  CD2        6.2470   22.1990    2.8330 C.ar   82  TRP82       0.0152
     38  NE1        4.8820   20.4400    3.1250 N.ar   82  TRP82      -0.2442
     39  CE2        5.7010   21.3150    3.7890 C.ar   82  TRP82       0.0810
     40  CE3        7.1250   23.1970    3.2650 C.ar   82  TRP82       0.0012
     41  CZ2        6.0200   21.3930    5.1500 C.ar   82  TRP82       0.0191
     42  CZ3        7.4320   23.2740    4.6270 C.ar   82  TRP82       0.0001
     43  CH2        6.8890   22.3710    5.5410 C.ar   82  TRP82       0.0015
     44  N          5.6140   28.4400   -0.8030 N.3    85  GLY85      -0.1210
     45  CA         6.5580   29.0160    0.1360 C.3    85  GLY85       0.1956
     46  C          7.9890   29.0600   -0.3770 C.2    85  GLY85       0.2611
     47  O          8.6630   30.0900   -0.2670 O.2    85  GLY85      -0.2717
     48  N          8.4710   27.9520   -0.9360 N.am   86  ILE86      -0.1979
     49  CA         9.7850   27.9920   -1.5710 C.3    86  ILE86       0.1595
     50  C          9.8160   29.0260   -2.7030 C.2    86  ILE86       0.2287
     51  O         10.8470   29.6680   -2.9410 O.2    86  ILE86      -0.2864
     52  CB        10.1680   26.5860   -2.0700 C.3    86  ILE86       0.0276
     53  CG1       10.2910   25.6000   -0.8990 C.3    86  ILE86       0.0022
     54  CG2       11.4580   26.6430   -2.8670 C.3    86  ILE86       0.0022
     55  CD1       10.3610   24.1660   -1.3750 C.3    86  ILE86       0.0001
     56  N         11.2380   32.5950   -2.0050 N.3    89  PHE89      -0.1241
     57  CA        12.6820   32.7840   -2.0490 C.3    89  PHE89       0.1605
     58  C         13.1900   32.7950   -3.4780 C.2    89  PHE89       0.2264
     59  O         14.0610   33.6030   -3.8230 O.2    89  PHE89      -0.2867
     60  CB        13.3700   31.6890   -1.2400 C.3    89  PHE89       0.0534
     61  CG        13.0030   31.7330    0.2080 C.ar   89  PHE89      -0.0203
     62  CD1       13.6620   32.5880    1.0710 C.ar   89  PHE89      -0.0042
     63  CD2       11.9460   30.9920    0.6840 C.ar   89  PHE89      -0.0042
     64  CE1       13.3000   32.6610    2.3960 C.ar   89  PHE89      -0.0003
     65  CE2       11.5950   31.0590    2.0180 C.ar   89  PHE89      -0.0003
     66  CZ        12.2720   31.8960    2.8640 C.ar   89  PHE89      -0.0000
     67  N         13.8180   31.0570    9.4730 N.3   124  TRP124     -0.1241
     68  CA        13.0920   30.2970    8.4540 C.3   124  TRP124      0.1605
     69  C         13.1490   28.7990    8.7250 C.2   124  TRP124      0.2264
     70  O         12.1830   28.0720    8.4510 O.2   124  TRP124     -0.2867
     71  CB        13.6410   30.6210    7.0480 C.3   124  TRP124      0.0550
     72  CG        13.4700   32.0650    6.6890 C.ar  124  TRP124      0.0003
     73  CD1       12.4640   32.8790    7.1010 C.ar  124  TRP124      0.0946
     74  CD2       14.3290   32.8710    5.8650 C.ar  124  TRP124      0.0152
     75  NE1       12.6280   34.1410    6.5880 N.ar  124  TRP124     -0.2442
     76  CE2       13.7640   34.1630    5.8200 C.ar  124  TRP124      0.0810
     77  CE3       15.5100   32.6260    5.1510 C.ar  124  TRP124      0.0012
     78  CZ2       14.3370   35.2050    5.0920 C.ar  124  TRP124      0.0191
     79  CZ3       16.0810   33.6680    4.4350 C.ar  124  TRP124      0.0001
     80  CH2       15.4950   34.9390    4.4140 C.ar  124  TRP124      0.0015
     81  N         10.6260   28.0400   11.4510 N.3   127  TYR127     -0.1227
     82  CA         9.2540   28.0090   10.9540 C.3   127  TYR127      0.1736
     83  C          9.0120   26.7780   10.0870 C.2   127  TYR127      0.2596
     84  O          7.9380   26.1710   10.1520 O.2   127  TYR127     -0.2718
     85  CB         8.9110   29.2860   10.1880 C.3   127  TYR127      0.0548
     86  CG         7.5230   29.2380    9.5960 C.ar  127  TYR127     -0.0200
     87  CD1        7.3230   29.0370    8.2400 C.ar  127  TYR127     -0.0009
     88  CD2        6.4020   29.3400   10.4040 C.ar  127  TYR127     -0.0009
     89  CE1        6.0330   28.9820    7.6960 C.ar  127  TYR127      0.0417
     90  CE2        5.1100   29.2800    9.8690 C.ar  127  TYR127      0.0417
     91  CZ         4.9370   29.0880    8.5080 C.ar  127  TYR127      0.1957
     92  OH         3.6790   29.0150    7.9380 O.3   127  TYR127     -0.2866
     93  N          9.9980   26.3820    9.2810 N.am  128  THR128     -0.1953
     94  CA         9.8870   25.1160    8.5640 C.3   128  THR128      0.1897
     95  C          9.6370   23.9640    9.5300 C.2   128  THR128      0.2313
     96  O          8.7650   23.1190    9.2950 O.2   128  THR128     -0.2863
     97  CB        11.1570   24.8490    7.7560 C.3   128  THR128      0.1794
     98  OG1       11.3930   25.9350    6.8420 O.3   128  THR128     -0.2208
     99  CG2       10.9970   23.5650    6.9740 C.3   128  THR128      0.0378
    100  N          6.1110   23.8180   10.9470 N.3   131  VAL131     -0.1245
    101  CA         5.1130   23.3040   10.0160 C.3   131  VAL131      0.1561
    102  C          5.2430   21.7920    9.9030 C.2   131  VAL131      0.2260
    103  O          4.2420   21.0710    9.9290 O.2   131  VAL131     -0.2867
    104  CB         5.2120   24.0020    8.6430 C.3   131  VAL131      0.0252
    105  CG1        4.1540   23.4620    7.7030 C.3   131  VAL131      0.0019
    106  CG2        5.0360   25.5150    8.8050 C.3   131  VAL131      0.0019
    107  N         16.6440   23.7170    4.1940 N.3   155  ASN155     -0.1240
    108  CA        16.8570   25.1400    4.0060 C.3   155  ASN155      0.1653
    109  C         18.2830   25.4280    3.5520 C.2   155  ASN155      0.2266
    110  O         18.4990   26.3460    2.7590 O.2   155  ASN155     -0.2867
    111  CB        16.5150   25.8930    5.2970 C.3   155  ASN155      0.1155
    112  CG        15.0080   26.0880    5.4780 C.2   155  ASN155      0.2627
    113  OD1       14.4310   27.0230    4.9460 O.2   155  ASN155     -0.2716
    114  ND2       14.3740   25.1900    6.2040 N.am  155  ASN155     -0.0877
    115  N         18.3500   24.6850   -0.1560 N.3   158  ASN158     -0.1240
    116  CA        17.7610   25.7370   -0.9850 C.3   158  ASN158      0.1653
    117  C         18.7250   26.8990   -1.1440 C.2   158  ASN158      0.2266
    118  O         18.8760   27.4400   -2.2440 O.2   158  ASN158     -0.2867
    119  CB        16.4660   26.2650   -0.3740 C.3   158  ASN158      0.1155
    120  CG        15.2970   25.3310   -0.5500 C.2   158  ASN158      0.2627
    121  OD1       14.1410   25.7250   -0.3370 O.2   158  ASN158     -0.2716
    122  ND2       15.5740   24.0940   -0.8940 N.am  158  ASN158     -0.0877
    123  N         11.8100   18.3540   -0.9140 N.3   186  TRP186     -0.1241
    124  CA        11.1470   18.6980    0.3400 C.3   186  TRP186      0.1605
    125  C          9.9730   17.7760    0.6100 C.2   186  TRP186      0.2264
    126  O          9.8450   17.2320    1.7110 O.2   186  TRP186     -0.2867
    127  CB        10.6590   20.1470    0.3210 C.3   186  TRP186      0.0550
    128  CG        11.7250   21.1860    0.6100 C.ar  186  TRP186      0.0003
    129  CD1       12.9300   21.3400   -0.0340 C.ar  186  TRP186      0.0946
    130  CD2       11.6510   22.2370    1.5790 C.ar  186  TRP186      0.0152
    131  NE1       13.6100   22.4160    0.4920 N.ar  186  TRP186     -0.2442
    132  CE2       12.8440   22.9860    1.4780 C.ar  186  TRP186      0.0810
    133  CE3       10.6940   22.6140    2.5320 C.ar  186  TRP186      0.0012
    134  CZ2       13.1140   24.0760    2.3100 C.ar  186  TRP186      0.0191
    135  CZ3       10.9630   23.7000    3.3540 C.ar  186  TRP186      0.0001
    136  CH2       12.1600   24.4200    3.2340 C.ar  186  TRP186      0.0015
@<TRIPOS>BOND
     1    59    58    2
     2    58    57    1
     3    51    50    2
     4    54    52    1
     5    50    49    1
     6   118   117    2
     7    52    49    1
     8    52    53    1
     9    57    56    1
    10    57    60    1
    11    49    48    1
    12    55    53    1
    13    60    61    1
    14    32    33    2
    15    32    31    1
    16   117   116    1
    17    22    23    1
    18   116   119    1
    19   116   115    1
    20    48    46   am
    21   123   124    1
    22   122   120   am
    23    44    45    1
    24   120   119    1
    25   120   121    2
    26    46    47    2
    27    46    45    1
    28   129   131   ar
    29   129   128   ar
    30    23    24    1
    31    23    26    1
    32    30    31    1
    33    30    24   am
    34    31    34    1
    35    24    25    2
    36    61    63   ar
    37    61    62   ar
    38    34    35    1
    39   127   124    1
    40   127   128    1
    41   124   125    1
    42    16    14    1
    43   131   132   ar
    44   125   126    2
    45   128   130   ar
    46    63    65   ar
    47    15    14    1
    48    62    64   ar
    49    14    13    1
    50    26    27    1
    51   132   130   ar
    52   132   134   ar
    53    35    36   ar
    54    35    37   ar
    55   130   133   ar
    56    36    38   ar
    57    65    66   ar
    58   134   136   ar
    59    64    66   ar
    60   133   135   ar
    61    27    28    1
    62    13    10    1
    63   110   109    2
    64    37    40   ar
    65    37    39   ar
    66     1     2    1
    67    38    39   ar
    68   136   135   ar
    69    10     9    1
    70    10    11    1
    71    40    42   ar
    72   109   108    1
    73     7     6    1
    74    39    41   ar
    75     2     5    1
    76     2     3    1
    77   108   107    1
    78   108   111    1
    79    28    29    1
    80     5     6    1
    81    80    79   ar
    82    80    78   ar
    83    79    77   ar
    84    11    12    2
    85    11    17   am
    86    42    43   ar
    87     6     8    1
    88   113   112    2
    89     3     4    2
    90    78    76   ar
    91    41    43   ar
    92    77    74   ar
    93   111   112    1
    94   112   114   am
    95    17    18    1
    96    76    74   ar
    97    76    75   ar
    98    74    72   ar
    99    75    73   ar
   100    72    71    1
   101    72    73   ar
   102    18    19    1
   103    18    21    1
   104    98    97    1
   105    99    97    1
   106    71    68    1
   107    19    20    2
   108    89    87   ar
   109    89    91   ar
   110   105   104    1
   111    97    94    1
   112    92    91    1
   113    87    86   ar
   114    70    69    2
   115    68    69    1
   116    68    67    1
   117    91    90   ar
   118    94    93    1
   119    94    95    1
   120   104   106    1
   121   104   101    1
   122    93    83   am
   123    96    95    2
   124    86    85    1
   125    86    88   ar
   126    90    88   ar
   127   102   103    2
   128   102   101    1
   129   101   100    1
   130    83    84    2
   131    83    82    1
   132    85    82    1
   133    82    81    1
