@<TRIPOS>MOLECULE
tmp/5mwoA01.pdb
 142 140 0 0 0
SMALL
GASTEIGER

@<TRIPOS>ATOM
      1  N          8.4710   27.9520   -0.9360 N.3    86  ILE86      -0.1245
      2  CA         9.7850   27.9920   -1.5710 C.3    86  ILE86       0.1561
      3  C          9.8160   29.0260   -2.7030 C.2    86  ILE86       0.2260
      4  O         10.8470   29.6680   -2.9410 O.2    86  ILE86      -0.2867
      5  CB        10.1680   26.5860   -2.0700 C.3    86  ILE86       0.0252
      6  CG1       10.2910   25.6000   -0.8990 C.3    86  ILE86       0.0019
      7  CG2       11.4580   26.6430   -2.8670 C.3    86  ILE86       0.0019
      8  CD1       10.3610   24.1660   -1.3750 C.3    86  ILE86       0.0001
      9  N         11.2380   32.5950   -2.0050 N.3    89  PHE89      -0.1241
     10  CA        12.6820   32.7840   -2.0490 C.3    89  PHE89       0.1605
     11  C         13.1900   32.7950   -3.4780 C.2    89  PHE89       0.2264
     12  O         14.0610   33.6030   -3.8230 O.2    89  PHE89      -0.2867
     13  CB        13.3700   31.6890   -1.2400 C.3    89  PHE89       0.0534
     14  CG        13.0030   31.7330    0.2080 C.ar   89  PHE89      -0.0203
     15  CD1       13.6620   32.5880    1.0710 C.ar   89  PHE89      -0.0042
     16  CD2       11.9460   30.9920    0.6840 C.ar   89  PHE89      -0.0042
     17  CE1       13.3000   32.6610    2.3960 C.ar   89  PHE89      -0.0003
     18  CE2       11.5950   31.0590    2.0180 C.ar   89  PHE89      -0.0003
     19  CZ        12.2720   31.8960    2.8640 C.ar   89  PHE89      -0.0000
     20  N         14.7510   36.5350   -4.2180 N.3    93  PHE93      -0.1241
     21  CA        16.1890   36.6190   -4.4580 C.3    93  PHE93       0.1605
     22  C         16.5020   36.5800   -5.9460 C.2    93  PHE93       0.2264
     23  O         17.4630   37.2230   -6.3960 O.2    93  PHE93      -0.2867
     24  CB        16.9030   35.5010   -3.7010 C.3    93  PHE93       0.0534
     25  CG        16.8300   35.6620   -2.2030 C.ar   93  PHE93      -0.0203
     26  CD1       15.8950   34.9670   -1.4620 C.ar   93  PHE93      -0.0042
     27  CD2       17.6720   36.5450   -1.5520 C.ar   93  PHE93      -0.0042
     28  CE1       15.8100   35.1250   -0.0750 C.ar   93  PHE93      -0.0003
     29  CE2       17.5950   36.7090   -0.1610 C.ar   93  PHE93      -0.0003
     30  CZ        16.6630   35.9940    0.5730 C.ar   93  PHE93      -0.0000
     31  N         21.9880   39.4730   -4.2010 N.3   100  THR100     -0.1218
     32  CA        22.1540   38.1500   -3.6070 C.3   100  THR100      0.1862
     33  C         23.5800   37.6600   -3.7720 C.2   100  THR100      0.2287
     34  O         24.1850   37.1480   -2.8240 O.2   100  THR100     -0.2866
     35  CB        21.1880   37.1610   -4.2460 C.3   100  THR100      0.1770
     36  OG1       19.8440   37.5790   -3.9930 O.3   100  THR100     -0.2211
     37  CG2       21.4150   35.7560   -3.7020 C.3   100  THR100      0.0375
     38  N         22.3340   37.2180    7.6960 N.3   117  TRP117     -0.1241
     39  CA        21.9450   36.0160    7.0070 C.3   117  TRP117      0.1605
     40  C         21.6080   34.8980    7.9850 C.2   117  TRP117      0.2264
     41  O         20.5950   34.2660    7.8790 O.2   117  TRP117     -0.2867
     42  CB        23.0260   35.5620    6.0440 C.3   117  TRP117      0.0550
     43  CG        22.5200   34.5510    5.1800 C.ar  117  TRP117      0.0003
     44  CD1       22.8520   33.2440    5.1660 C.ar  117  TRP117      0.0946
     45  CD2       21.5130   34.7140    4.1990 C.ar  117  TRP117      0.0152
     46  NE1       22.1390   32.5850    4.2260 N.ar  117  TRP117     -0.2442
     47  CE2       21.3000   33.4700    3.6180 C.ar  117  TRP117      0.0810
     48  CE3       20.7930   35.7950    3.7350 C.ar  117  TRP117      0.0012
     49  CZ2       20.3770   33.2780    2.6110 C.ar  117  TRP117      0.0191
     50  CZ3       19.8860   35.6060    2.7360 C.ar  117  TRP117      0.0001
     51  CH2       19.6820   34.3610    2.1860 C.ar  117  TRP117      0.0015
     52  N         18.0470   32.8630    8.4120 N.3   121  MET121     -0.1245
     53  CA        18.0300   31.4190    8.1850 C.3   121  MET121      0.1570
     54  C         17.5220   30.6790    9.4200 C.2   121  MET121      0.2261
     55  O         16.7290   29.7360    9.3090 O.2   121  MET121     -0.2867
     56  CB        19.4310   30.9300    7.8100 C.3   121  MET121      0.0387
     57  CG        19.8490   31.2910    6.3810 C.3   121  MET121      0.0595
     58  SD        19.0090   30.2430    5.1590 S.3   121  MET121     -0.1393
     59  CE        19.7730   28.6490    5.4630 C.3   121  MET121      0.0692
     60  N         13.8180   31.0570    9.4730 N.3   124  TRP124     -0.1241
     61  CA        13.0920   30.2970    8.4540 C.3   124  TRP124      0.1605
     62  C         13.1490   28.7990    8.7250 C.2   124  TRP124      0.2264
     63  O         12.1830   28.0720    8.4510 O.2   124  TRP124     -0.2867
     64  CB        13.6410   30.6210    7.0480 C.3   124  TRP124      0.0550
     65  CG        13.4700   32.0650    6.6890 C.ar  124  TRP124      0.0003
     66  CD1       12.4640   32.8790    7.1010 C.ar  124  TRP124      0.0946
     67  CD2       14.3290   32.8710    5.8650 C.ar  124  TRP124      0.0152
     68  NE1       12.6280   34.1410    6.5880 N.ar  124  TRP124     -0.2442
     69  CE2       13.7640   34.1630    5.8200 C.ar  124  TRP124      0.0810
     70  CE3       15.5100   32.6260    5.1510 C.ar  124  TRP124      0.0012
     71  CZ2       14.3370   35.2050    5.0920 C.ar  124  TRP124      0.0191
     72  CZ3       16.0810   33.6680    4.4350 C.ar  124  TRP124      0.0001
     73  CH2       15.4950   34.9390    4.4140 C.ar  124  TRP124      0.0015
     74  N         16.6440   23.7170    4.1940 N.3   155  ASN155     -0.1240
     75  CA        16.8570   25.1400    4.0060 C.3   155  ASN155      0.1653
     76  C         18.2830   25.4280    3.5520 C.2   155  ASN155      0.2266
     77  O         18.4990   26.3460    2.7590 O.2   155  ASN155     -0.2867
     78  CB        16.5150   25.8930    5.2970 C.3   155  ASN155      0.1155
     79  CG        15.0080   26.0880    5.4780 C.2   155  ASN155      0.2627
     80  OD1       14.4310   27.0230    4.9460 O.2   155  ASN155     -0.2716
     81  ND2       14.3740   25.1900    6.2040 N.am  155  ASN155     -0.0877
     82  N         18.3500   24.6850   -0.1560 N.3   158  ASN158     -0.1225
     83  CA        17.7610   25.7370   -0.9850 C.3   158  ASN158      0.1785
     84  C         18.7250   26.8990   -1.1440 C.2   158  ASN158      0.2597
     85  O         18.8760   27.4400   -2.2440 O.2   158  ASN158     -0.2718
     86  CB        16.4660   26.2650   -0.3740 C.3   158  ASN158      0.1169
     87  CG        15.2970   25.3310   -0.5500 C.2   158  ASN158      0.2627
     88  OD1       14.1410   25.7250   -0.3370 O.2   158  ASN158     -0.2716
     89  ND2       15.5740   24.0940   -0.8940 N.am  158  ASN158     -0.0877
     90  N         19.3370   27.3300   -0.0360 N.am  159  GLU159     -0.1979
     91  CA        20.3250   28.3970   -0.0960 C.3   159  GLU159      0.1602
     92  C         21.3740   28.0910   -1.1600 C.2   159  GLU159      0.2287
     93  O         21.5820   28.8750   -2.0920 O.2   159  GLU159     -0.2864
     94  CB        20.9930   28.5900    1.2690 C.3   159  GLU159      0.0415
     95  CG        22.1810   29.5170    1.1910 C.3   159  GLU159      0.1163
     96  CD        22.9740   29.6420    2.4880 C.2   159  GLU159      0.3649
     97  OE1       22.3680   29.7860    3.5730 O.co2 159  GLU159     -0.2457
     98  OE2       24.2250   29.6210    2.4100 O.co2 159  GLU159     -0.2457
     99  N         19.5920   27.3740   -4.9310 N.3   162  LEU162     -0.1231
    100  CA        19.1110   28.5760   -5.6050 C.3   162  LEU162      0.1693
    101  C         20.2640   29.4860   -5.9930 C.2   162  LEU162      0.2592
    102  O         20.3150   29.9830   -7.1260 O.2   162  LEU162     -0.2718
    103  CB        18.1120   29.3260   -4.7310 C.3   162  LEU162      0.0284
    104  CG        16.7260   28.6730   -4.5570 C.3   162  LEU162      0.0019
    105  CD1       15.8930   29.4580   -3.5300 C.3   162  LEU162      0.0001
    106  CD2       15.9340   28.5700   -5.8470 C.3   162  LEU162      0.0001
    107  N         21.2150   29.7000   -5.0780 N.am  163  PHE163     -0.1976
    108  CA        22.3490   30.5730   -5.3830 C.3   163  PHE163      0.1639
    109  C         23.1060   30.0860   -6.6160 C.2   163  PHE163      0.2290
    110  O         23.4860   30.8870   -7.4800 O.2   163  PHE163     -0.2864
    111  CB        23.3110   30.6690   -4.1870 C.3   163  PHE163      0.0560
    112  CG        24.4810   31.5910   -4.4380 C.ar  163  PHE163     -0.0200
    113  CD1       25.6700   31.1100   -4.9630 C.ar  163  PHE163     -0.0042
    114  CD2       24.3800   32.9460   -4.1730 C.ar  163  PHE163     -0.0042
    115  CE1       26.7330   31.9610   -5.2070 C.ar  163  PHE163     -0.0003
    116  CE2       25.4430   33.8060   -4.4360 C.ar  163  PHE163     -0.0003
    117  CZ        26.6150   33.3120   -4.9490 C.ar  163  PHE163     -0.0000
    118  N         21.0630   30.9200   -9.7470 N.3   166  PHE166     -0.1241
    119  CA        21.0970   32.3470  -10.0480 C.3   166  PHE166      0.1605
    120  C         22.4540   32.7610  -10.5860 C.2   166  PHE166      0.2264
    121  O         22.5380   33.5850  -11.4980 O.2   166  PHE166     -0.2867
    122  CB        20.7730   33.1720   -8.8000 C.3   166  PHE166      0.0534
    123  CG        19.3990   32.9520   -8.2610 C.ar  166  PHE166     -0.0203
    124  CD1       18.3840   32.4870   -9.0730 C.ar  166  PHE166     -0.0042
    125  CD2       19.1300   33.1930   -6.9280 C.ar  166  PHE166     -0.0042
    126  CE1       17.1210   32.2820   -8.5690 C.ar  166  PHE166     -0.0003
    127  CE2       17.8720   32.9900   -6.4250 C.ar  166  PHE166     -0.0003
    128  CZ        16.8720   32.5250   -7.2420 C.ar  166  PHE166     -0.0000
    129  N         11.8100   18.3540   -0.9140 N.3   186  TRP186     -0.1241
    130  CA        11.1470   18.6980    0.3400 C.3   186  TRP186      0.1605
    131  C          9.9730   17.7760    0.6100 C.2   186  TRP186      0.2264
    132  O          9.8450   17.2320    1.7110 O.2   186  TRP186     -0.2867
    133  CB        10.6590   20.1470    0.3210 C.3   186  TRP186      0.0550
    134  CG        11.7250   21.1860    0.6100 C.ar  186  TRP186      0.0003
    135  CD1       12.9300   21.3400   -0.0340 C.ar  186  TRP186      0.0946
    136  CD2       11.6510   22.2370    1.5790 C.ar  186  TRP186      0.0152
    137  NE1       13.6100   22.4160    0.4920 N.ar  186  TRP186     -0.2442
    138  CE2       12.8440   22.9860    1.4780 C.ar  186  TRP186      0.0810
    139  CE3       10.6940   22.6140    2.5320 C.ar  186  TRP186      0.0012
    140  CZ2       13.1140   24.0760    2.3100 C.ar  186  TRP186      0.0191
    141  CZ3       10.9630   23.7000    3.3540 C.ar  186  TRP186      0.0001
    142  CH2       12.1600   24.4200    3.2340 C.ar  186  TRP186      0.0015
@<TRIPOS>BOND
     1   121   120    2
     2   120   119    1
     3   119   118    1
     4   119   122    1
     5   124   126   ar
     6   124   123   ar
     7   122   123    1
     8   126   128   ar
     9   123   125   ar
    10   110   109    2
    11   128   127   ar
    12   102   101    2
    13   125   127   ar
    14   109   108    1
    15    23    22    2
    16   101   100    1
    17   101   107   am
    18    22    21    1
    19   106   104    1
    20   100    99    1
    21   100   103    1
    22   108   107    1
    23   108   111    1
    24   115   113   ar
    25   115   117   ar
    26   113   112   ar
    27   117   116   ar
    28   103   104    1
    29   104   105    1
    30    21    20    1
    31    21    24    1
    32   112   111    1
    33   112   114   ar
    34   116   114   ar
    35    35    36    1
    36    35    37    1
    37    35    32    1
    38    31    32    1
    39    12    11    2
    40    33    32    1
    41    33    34    2
    42    24    25    1
    43    11    10    1
    44     4     3    2
    45     7     5    1
    46     3     2    1
    47    85    84    2
    48    25    27   ar
    49    25    26   ar
    50    93    92    2
    51     5     2    1
    52     5     6    1
    53    10     9    1
    54    10    13    1
    55     2     1    1
    56    27    29   ar
    57    26    28   ar
    58     8     6    1
    59    13    14    1
    60    92    91    1
    61    84    83    1
    62    84    90   am
    63    83    86    1
    64    83    82    1
    65   129   130    1
    66    89    87   am
    67    87    86    1
    68    87    88    2
    69    29    30   ar
    70    91    90    1
    71    91    94    1
    72    28    30   ar
    73   135   137   ar
    74   135   134   ar
    75    14    16   ar
    76    14    15   ar
    77   133   130    1
    78   133   134    1
    79   130   131    1
    80   137   138   ar
    81   134   136   ar
    82   131   132    2
    83    16    18   ar
    84    15    17   ar
    85    95    94    1
    86    95    96    1
    87   138   136   ar
    88   138   140   ar
    89   136   139   ar
    90    18    19   ar
    91    51    49   ar
    92    51    50   ar
    93   140   142   ar
    94    17    19   ar
    95    98    96   ar
    96    96    97   ar
    97   139   141   ar
    98    49    47   ar
    99    50    48   ar
   100    77    76    2
   101   142   141   ar
   102    76    75    1
   103    47    45   ar
   104    47    46   ar
   105    48    45   ar
   106    75    74    1
   107    75    78    1
   108    45    43   ar
   109    46    44   ar
   110    73    72   ar
   111    73    71   ar
   112    72    70   ar
   113    80    79    2
   114    71    69   ar
   115    70    67   ar
   116    58    59    1
   117    58    57    1
   118    44    43   ar
   119    43    42    1
   120    78    79    1
   121    79    81   am
   122    69    67   ar
   123    69    68   ar
   124    67    65   ar
   125    42    39    1
   126    57    56    1
   127    68    66   ar
   128    65    64    1
   129    65    66   ar
   130    39    38    1
   131    39    40    1
   132    64    61    1
   133    56    53    1
   134    41    40    2
   135    53    52    1
   136    53    54    1
   137    63    62    2
   138    61    62    1
   139    61    60    1
   140    55    54    2
