@<TRIPOS>MOLECULE
tmp/5mwpA01.pdb
 198 185 0 0 0
SMALL
GASTEIGER

@<TRIPOS>ATOM
      1  N         14.3590   23.6500   19.0170 N.3    32  LEU32      -0.1245
      2  CA        13.0270   23.2340   19.4830 C.3    32  LEU32       0.1561
      3  C         11.9580   24.2740   19.1280 C.2    32  LEU32       0.2260
      4  O         10.8460   23.8910   18.7420 O.2    32  LEU32      -0.2867
      5  CB        13.0290   22.9190   20.9910 C.3    32  LEU32       0.0270
      6  CG        13.9210   21.7480   21.4570 C.3    32  LEU32       0.0019
      7  CD1       13.9040   21.6050   22.9540 C.3    32  LEU32       0.0001
      8  CD2       13.5150   20.4360   20.8140 C.3    32  LEU32       0.0001
      9  N         11.2120   23.7520   15.6150 N.3    35  LEU35      -0.1231
     10  CA        10.3910   22.5390   15.4670 C.3    35  LEU35       0.1693
     11  C          8.9330   22.8140   15.8550 C.2    35  LEU35       0.2592
     12  O          8.0200   22.3200   15.2030 O.2    35  LEU35      -0.2718
     13  CB        10.9480   21.3520   16.2580 C.3    35  LEU35       0.0284
     14  CG        12.2680   20.7450   15.7400 C.3    35  LEU35       0.0019
     15  CD1       12.7250   19.6050   16.6220 C.3    35  LEU35       0.0001
     16  CD2       12.1460   20.2670   14.3250 C.3    35  LEU35       0.0001
     17  N          8.7230   23.6100   16.9150 N.am   36  ASN36      -0.1974
     18  CA         7.3760   23.9660   17.3700 C.3    36  ASN36       0.1688
     19  C          6.6580   24.8520   16.3590 C.2    36  ASN36       0.2292
     20  O          5.4730   24.6370   16.0880 O.2    36  ASN36      -0.2864
     21  CB         7.4490   24.6100   18.7650 C.3    36  ASN36       0.1181
     22  CG         7.8630   23.6050   19.8010 C.2    36  ASN36       0.2629
     23  OD1        7.7100   22.3940   19.6190 O.2    36  ASN36      -0.2716
     24  ND2        8.4350   24.0630   20.8830 N.am   36  ASN36      -0.0877
     25  N          7.2470   24.8170   13.1330 N.3    38  LEU38      -0.1231
     26  CA         6.9420   23.8620   12.0580 C.3    38  LEU38       0.1693
     27  C          5.7100   23.0110   12.3920 C.2    38  LEU38       0.2591
     28  O          4.8250   22.8530   11.5380 O.2    38  LEU38      -0.2718
     29  CB         8.1710   22.9770   11.7600 C.3    38  LEU38       0.0284
     30  CG         8.0610   22.0040   10.5880 C.3    38  LEU38       0.0019
     31  CD1        7.6930   22.7250    9.2760 C.3    38  LEU38       0.0001
     32  CD2        9.3560   21.2060   10.4340 C.3    38  LEU38       0.0001
     33  N          5.6200   22.5270   13.6490 N.am   39  ALA39      -0.1980
     34  CA         4.4860   21.7170   14.1180 C.3    39  ALA39       0.1597
     35  C          3.1520   22.4760   14.0400 C.2    39  ALA39       0.2287
     36  O          2.1450   21.8850   13.6320 O.2    39  ALA39      -0.2864
     37  CB         4.7410   21.1970   15.5220 C.3    39  ALA39       0.0319
     38  N          2.1660   22.5340   10.3500 N.3    42  GLN42      -0.1245
     39  CA         1.6750   21.1880    9.9990 C.3    42  GLN42       0.1566
     40  C          0.2840   20.9610   10.5530 C.2    42  GLN42       0.2260
     41  O         -0.5210   20.2860    9.9180 O.2    42  GLN42      -0.2867
     42  CB         2.6050   20.1150   10.5700 C.3    42  GLN42       0.0367
     43  CG         3.9750   20.1140    9.9520 C.3    42  GLN42       0.0905
     44  CD         4.9170   19.1970   10.6900 C.2    42  GLN42       0.2608
     45  OE1        4.6200   18.6780   11.7750 O.2    42  GLN42      -0.2717
     46  NE2        6.0840   19.0080   10.1320 N.am   42  GLN42      -0.0878
     47  N         -2.3060   14.4060   17.1680 N.3    72  TRP72      -0.1227
     48  CA        -1.3590   15.3420   16.5470 C.3    72  TRP72       0.1737
     49  C          0.0870   14.8420   16.5260 C.2    72  TRP72       0.2595
     50  O          0.6830   14.8770   15.4440 O.2    72  TRP72      -0.2718
     51  CB        -1.4670   16.7480   17.1370 C.3    72  TRP72       0.0564
     52  CG        -0.7300   17.0050   18.4110 C.ar   72  TRP72       0.0003
     53  CD1       -1.2140   16.8720   19.6770 C.ar   72  TRP72       0.0946
     54  CD2        0.5790   17.5740   18.5380 C.ar   72  TRP72       0.0152
     55  NE1       -0.2550   17.2500   20.5900 N.ar   72  TRP72      -0.2442
     56  CE2        0.8410   17.7200   19.9160 C.ar   72  TRP72       0.0810
     57  CE3        1.5730   17.9500   17.6160 C.ar   72  TRP72       0.0012
     58  CZ2        2.0480   18.2350   20.3980 C.ar   72  TRP72       0.0191
     59  CZ3        2.7550   18.4870   18.0940 C.ar   72  TRP72       0.0001
     60  CH2        2.9930   18.6050   19.4700 C.ar   72  TRP72       0.0015
     61  N          0.6280   14.3520   17.6670 N.am   73  MET73      -0.1979
     62  CA         2.0150   13.8430   17.7070 C.3    73  MET73       0.1605
     63  C          2.1940   12.5650   16.8770 C.2    73  MET73       0.2287
     64  O          3.2690   12.3780   16.2690 O.2    73  MET73      -0.2864
     65  CB         2.4960   13.6320   19.1580 C.3    73  MET73       0.0413
     66  CG         4.0050   13.3930   19.2880 C.3    73  MET73       0.0598
     67  SD         4.9860   14.8580   18.8930 S.3    73  MET73      -0.1393
     68  CE         4.8830   15.7310   20.4830 C.3    73  MET73       0.0692
     69  N          2.1940   13.6000   13.1400 N.3    76  SER76      -0.1202
     70  CA         3.4400   14.3260   12.9120 C.3    76  SER76       0.2020
     71  C          4.6600   13.3820   12.8580 C.2    76  SER76       0.2619
     72  O          5.4940   13.5280   11.9550 O.2    76  SER76      -0.2717
     73  CB         3.6300   15.4070   13.9700 C.3    76  SER76       0.2103
     74  OG         4.7100   16.2480   13.6040 O.3    76  SER76      -0.2182
     75  N          4.7550   12.4140   13.8060 N.am   77  SER77      -0.1951
     76  CA         5.8830   11.4610   13.8340 C.3    77  SER77       0.1924
     77  C          5.8580   10.5160   12.6270 C.2    77  SER77       0.2314
     78  O          6.9080   10.2380   12.0400 O.2    77  SER77      -0.2863
     79  CB         5.9140   10.6760   15.1470 C.3    77  SER77       0.2116
     80  OG         4.7240    9.9480   15.3960 O.3    77  SER77      -0.2180
     81  N          6.8780   12.4560    9.5060 N.3    80  LEU80      -0.1245
     82  CA         8.3350   12.6800    9.5790 C.3    80  LEU80       0.1561
     83  C          9.0690   11.4050    9.1030 C.2    80  LEU80       0.2260
     84  O         10.0310   11.5170    8.3280 O.2    80  LEU80      -0.2867
     85  CB         8.7760   13.0550   11.0060 C.3    80  LEU80       0.0270
     86  CG        10.3010   13.1070   11.2550 C.3    80  LEU80       0.0019
     87  CD1       10.9860   14.1330   10.3610 C.3    80  LEU80       0.0001
     88  CD2       10.6020   13.3860   12.7320 C.3    80  LEU80       0.0001
     89  N          8.7480   11.2790    5.2560 N.3    83  ARG83      -0.1245
     90  CA         9.6140   12.2210    4.5290 C.3    83  ARG83       0.1563
     91  C         11.0660   11.7430    4.5920 C.2    83  ARG83       0.2260
     92  O         11.7610   11.8010    3.5880 O.2    83  ARG83      -0.2867
     93  CB         9.5200   13.6470    5.0800 C.3    83  ARG83       0.0307
     94  CG         8.1630   14.3430    4.8610 C.3    83  ARG83       0.0489
     95  CD         8.2160   15.8270    5.2130 C.3    83  ARG83       0.2205
     96  NE         8.5640   16.1020    6.6150 N.pl3  83  ARG83      -0.0865
     97  CZ         7.7220   16.0170    7.6380 C.cat  83  ARG83       0.5346
     98  NH1        6.4770   15.6030    7.4490 N.pl3  83  ARG83       0.1354
     99  NH2        8.1280   16.3180    8.8670 N.pl3  83  ARG83       0.1354
    100  N         16.7500   12.6000    9.5350 N.3    93  LEU93      -0.1245
    101  CA        15.3730   12.9810    9.8750 C.3    93  LEU93       0.1561
    102  C         15.0150   14.2210    9.0610 C.2    93  LEU93       0.2260
    103  O         15.5190   15.3310    9.3300 O.2    93  LEU93      -0.2867
    104  CB        15.1790   13.2300   11.3920 C.3    93  LEU93       0.0270
    105  CG        15.3010   11.9920   12.3060 C.3    93  LEU93       0.0019
    106  CD1       15.1770   12.4000   13.7610 C.3    93  LEU93       0.0001
    107  CD2       14.1850   10.9710   12.0090 C.3    93  LEU93       0.0001
    108  N         12.8470   16.8430    8.5950 N.3    95  PHE95      -0.1241
    109  CA        11.7630   17.6540    9.1640 C.3    95  PHE95       0.1605
    110  C         11.1200   18.5270    8.0990 C.2    95  PHE95       0.2264
    111  O          9.8950   18.6290    8.0290 O.2    95  PHE95      -0.2867
    112  CB        12.2560   18.5090   10.3390 C.3    95  PHE95       0.0534
    113  CG        12.5160   17.6760   11.5700 C.ar   95  PHE95      -0.0203
    114  CD1       11.4880   17.3740   12.4540 C.ar   95  PHE95      -0.0042
    115  CD2       13.7940   17.2100   11.8570 C.ar   95  PHE95      -0.0042
    116  CE1       11.7320   16.6170   13.5990 C.ar   95  PHE95      -0.0003
    117  CE2       14.0290   16.4290   12.9920 C.ar   95  PHE95      -0.0003
    118  CZ        13.0020   16.1490   13.8540 C.ar   95  PHE95      -0.0000
    119  N         17.1470   16.2000   22.2280 N.3   111  MET111     -0.1245
    120  CA        16.2100   15.0790   22.0310 C.3   111  MET111      0.1570
    121  C         16.8910   13.8890   21.3430 C.2   111  MET111      0.2261
    122  O         16.2380   13.2000   20.5630 O.2   111  MET111     -0.2867
    123  CB        15.0140   15.4970   21.1490 C.3   111  MET111      0.0387
    124  CG        14.2350   16.6520   21.6620 C.3   111  MET111      0.0595
    125  SD        12.7160   16.8690   20.6990 S.3   111  MET111     -0.1393
    126  CE        11.9560   15.2440   20.8430 C.3   111  MET111      0.0692
    127  N         15.2070   10.3120   21.6610 N.3   114  LEU114     -0.1231
    128  CA        13.9040   10.3670   21.0070 C.3   114  LEU114      0.1693
    129  C         14.0630   10.3920   19.4920 C.2   114  LEU114      0.2592
    130  O         13.2980    9.7280   18.7910 O.2   114  LEU114     -0.2718
    131  CB        13.0620   11.5610   21.5190 C.3   114  LEU114      0.0284
    132  CG        12.6470   11.4360   22.9910 C.3   114  LEU114      0.0019
    133  CD1       12.1890   12.7490   23.5550 C.3   114  LEU114      0.0001
    134  CD2       11.5510   10.4280   23.1560 C.3   114  LEU114      0.0001
    135  N         15.0650   11.1420   18.9910 N.am  115  CYS115     -0.1970
    136  CA        15.3960   11.2350   17.5610 C.3   115  CYS115      0.1712
    137  C         15.8130    9.8360   17.0360 C.2   115  CYS115      0.2296
    138  O         15.4600    9.4730   15.9120 O.2   115  CYS115     -0.2864
    139  CB        16.5060   12.2610   17.3360 C.3   115  CYS115      0.0983
    140  SG        15.9360   13.9770   17.2470 S.3   115  CYS115     -0.0798
    141  N         12.7640    7.6390   16.6370 N.3   118  MET118     -0.1245
    142  CA        12.0890    8.0650   15.4230 C.3   118  MET118      0.1570
    143  C         12.7850    7.4730   14.1900 C.2   118  MET118      0.2261
    144  O         12.1130    6.9430   13.3070 O.2   118  MET118     -0.2867
    145  CB        12.0390    9.6050   15.3560 C.3   118  MET118      0.0387
    146  CG        11.3480   10.1110   14.1400 C.3   118  MET118      0.0595
    147  SD         9.5630   10.1180   14.3630 S.3   118  MET118     -0.1393
    148  CE         9.1190    8.5630   13.6410 C.3   118  MET118      0.0692
    149  N          7.6450   11.0470   23.1530 N.3   197  LEU197     -0.1245
    150  CA         7.6830   12.3710   22.5170 C.3   197  LEU197      0.1561
    151  C          6.7850   13.3450   23.2710 C.2   197  LEU197      0.2260
    152  O          7.2170   14.4540   23.5580 O.2   197  LEU197     -0.2867
    153  CB         7.2650   12.3210   21.0420 C.3   197  LEU197      0.0270
    154  CG         8.2550   11.6270   20.1000 C.3   197  LEU197      0.0019
    155  CD1        7.6390   11.4550   18.7330 C.3   197  LEU197      0.0001
    156  CD2        9.5790   12.3900   20.0010 C.3   197  LEU197      0.0001
    157  N          8.2790   14.4850   26.7010 N.3   200  PHE200     -0.1227
    158  CA         9.2570   15.5540   26.5660 C.3   200  PHE200      0.1736
    159  C          8.6060   16.8820   26.1850 C.2   200  PHE200      0.2595
    160  O          9.0150   17.9160   26.6920 O.2   200  PHE200     -0.2718
    161  CB        10.3690   15.1850   25.5780 C.3   200  PHE200      0.0547
    162  CG        11.5150   16.1720   25.5810 C.ar  200  PHE200     -0.0202
    163  CD1       12.3440   16.2980   26.6890 C.ar  200  PHE200     -0.0042
    164  CD2       11.7840   16.9460   24.4680 C.ar  200  PHE200     -0.0042
    165  CE1       13.4210   17.2000   26.6810 C.ar  200  PHE200     -0.0003
    166  CE2       12.8430   17.8610   24.4680 C.ar  200  PHE200     -0.0003
    167  CZ        13.6600   17.9750   25.5680 C.ar  200  PHE200     -0.0000
    168  N          7.5850   16.8410   25.3120 N.am  201  CYS201     -0.1970
    169  CA         6.8810   18.0200   24.8460 C.3   201  CYS201      0.1712
    170  C          6.1310   18.6850   26.0030 C.2   201  CYS201      0.2296
    171  O          6.2090   19.9040   26.1450 O.2   201  CYS201     -0.2864
    172  CB         5.9480   17.6590   23.6960 C.3   201  CYS201      0.0983
    173  SG         5.2070   19.0900   22.8770 S.3   201  CYS201     -0.0798
    174  N          8.8300   20.5060   28.2420 N.3   204  THR204     -0.1218
    175  CA         9.3000   21.7900   27.7100 C.3   204  THR204      0.1862
    176  C          8.1790   22.8360   27.7110 C.2   204  THR204      0.2287
    177  O          8.4610   24.0050   27.8930 O.2   204  THR204     -0.2866
    178  CB        10.0040   21.6710   26.3450 C.3   204  THR204      0.1770
    179  OG1        9.0270   21.5560   25.3190 O.3   204  THR204     -0.2211
    180  CG2       11.0210   20.5110   26.2820 C.3   204  THR204      0.0375
    181  N         12.0110   27.9230   25.2760 N.3   213  VAL213     -0.1245
    182  CA        11.3530   27.2080   24.1740 C.3   213  VAL213      0.1561
    183  C         10.0270   27.8810   23.8180 C.2   213  VAL213      0.2260
    184  O          9.1190   27.9570   24.6530 O.2   213  VAL213     -0.2867
    185  CB        11.2220   25.6790   24.4120 C.3   213  VAL213      0.0252
    186  CG1       10.6250   24.9760   23.1860 C.3   213  VAL213      0.0019
    187  CG2       12.5680   25.0540   24.7880 C.3   213  VAL213      0.0019
    188  N          6.4310   28.3250   21.7370 N.3   215  PHE215     -0.1241
    189  CA         5.3140   27.5480   21.2100 C.3   215  PHE215      0.1605
    190  C          4.3530   28.4560   20.4300 C.2   215  PHE215      0.2264
    191  O          3.9570   29.5000   20.9630 O.2   215  PHE215     -0.2867
    192  CB         4.5510   26.8440   22.3540 C.3   215  PHE215      0.0534
    193  CG         5.2700   25.6470   22.9230 C.ar  215  PHE215     -0.0203
    194  CD1        6.1900   25.7930   23.9570 C.ar  215  PHE215     -0.0042
    195  CD2        5.0120   24.3680   22.4420 C.ar  215  PHE215     -0.0042
    196  CE1        6.8620   24.6880   24.4770 C.ar  215  PHE215     -0.0003
    197  CE2        5.6760   23.2580   22.9740 C.ar  215  PHE215     -0.0003
    198  CZ         6.5850   23.4240   23.9960 C.ar  215  PHE215     -0.0000
@<TRIPOS>BOND
     1    92    91    2
     2    90    91    1
     3    90    93    1
     4    90    89    1
     5    94    93    1
     6    94    95    1
     7    95    96    1
     8    96    97    2
     9    98    97    1
    10    97    99    1
    11   111   110    2
    12   110   109    1
    13    84    83    2
    14   108   109    1
    15   102   103    2
    16   102   101    1
    17    83    82    1
    18   109   112    1
    19    31    30    1
    20    81    82    1
    21   100   101    1
    22    82    85    1
    23   101   104    1
    24    41    40    2
    25    43    42    1
    26    43    44    1
    27    39    38    1
    28    39    40    1
    29    39    42    1
    30    46    44   am
    31   112   113    1
    32    87    86    1
    33    32    30    1
    34    30    29    1
    35    44    45    2
    36    85    86    1
    37    86    88    1
    38   104   105    1
    39    28    27    2
    40   113   115   ar
    41   113   114   ar
    42    29    26    1
    43   115   117   ar
    44    72    71    2
    45   107   105    1
    46    78    77    2
    47    26    27    1
    48    26    25    1
    49   105   106    1
    50    27    33   am
    51   114   116   ar
    52    77    76    1
    53    71    70    1
    54    71    75   am
    55    70    69    1
    56    70    73    1
    57   117   118   ar
    58   144   143    2
    59   116   118   ar
    60    74    73    1
    61    36    35    2
    62   148   147    1
    63    33    34    1
    64    75    76    1
    65    76    79    1
    66    35    34    1
    67    34    37    1
    68   146   147    1
    69   146   145    1
    70   143   142    1
    71    16    14    1
    72    79    80    1
    73    12    11    2
    74   145   142    1
    75   142   141    1
    76    50    49    2
    77    10     9    1
    78    10    11    1
    79    10    13    1
    80    14    13    1
    81    14    15    1
    82    11    17   am
    83   138   137    2
    84    20    19    2
    85    64    63    2
    86    19    18    1
    87    49    48    1
    88    49    61   am
    89    48    51    1
    90    48    47    1
    91    63    62    1
    92    17    18    1
    93   137   136    1
    94    51    52    1
    95   140   139    1
    96   139   136    1
    97    18    21    1
    98   136   135    1
    99    57    59   ar
   100    57    54   ar
   101    61    62    1
   102    62    65    1
   103    59    60   ar
   104    52    54   ar
   105    52    53   ar
   106    54    56   ar
   107   155   154    1
   108     4     3    2
   109    21    22    1
   110   130   129    2
   111    67    66    1
   112    67    68    1
   113   135   129   am
   114     1     2    1
   115     3     2    1
   116    65    66    1
   117    60    58   ar
   118     2     5    1
   119   129   128    1
   120    23    22    2
   121    53    55   ar
   122    22    24   am
   123    56    58   ar
   124    56    55   ar
   125   156   154    1
   126   154   153    1
   127   190   191    2
   128   190   189    1
   129   122   121    2
   130   125   126    1
   131   125   124    1
   132     8     6    1
   133     5     6    1
   134   128   131    1
   135   128   127    1
   136   153   150    1
   137   123   124    1
   138   123   120    1
   139   189   188    1
   140   189   192    1
   141   121   120    1
   142     6     7    1
   143   131   132    1
   144   120   119    1
   145   192   193    1
   146   195   193   ar
   147   195   197   ar
   148   150   149    1
   149   150   151    1
   150   173   172    1
   151   193   194   ar
   152   197   198   ar
   153   132   134    1
   154   132   133    1
   155   186   185    1
   156   151   152    2
   157   172   169    1
   158   183   182    1
   159   183   184    2
   160   194   196   ar
   161   198   196   ar
   162   182   185    1
   163   182   181    1
   164   185   187    1
   165   164   166   ar
   166   164   162   ar
   167   166   167   ar
   168   169   168    1
   169   169   170    1
   170   168   159   am
   171   179   178    1
   172   167   165   ar
   173   161   162    1
   174   161   158    1
   175   162   163   ar
   176   170   171    2
   177   159   158    1
   178   159   160    2
   179   180   178    1
   180   178   175    1
   181   158   157    1
   182   165   163   ar
   183   175   176    1
   184   175   174    1
   185   176   177    2
