@<TRIPOS>MOLECULE
tmp/5mwtA00.pdb
 163 154 0 0 0
SMALL
GASTEIGER

@<TRIPOS>ATOM
      1  N         -3.4990   12.2410   12.4150 N.3     1  CYS1       -0.1235
      2  CA        -2.2000   12.6330   12.9460 C.3     1  CYS1        0.1677
      3  C         -1.0710   11.9870   12.1520 C.2     1  CYS1        0.2270
      4  O         -1.2470   10.9270   11.5530 O.2     1  CYS1       -0.2867
      5  CB        -2.0880   12.2520   14.4220 C.3     1  CYS1        0.0956
      6  SG        -2.0650   13.6660   15.5460 S.3     1  CYS1       -0.0801
      7  N         -2.2830   23.7710    3.5630 N.3    26  LYS26      -0.1231
      8  CA        -2.4850   24.9940    4.3270 C.3    26  LYS26       0.1693
      9  C         -1.4620   25.1810    5.4340 C.2    26  LYS26       0.2593
     10  O         -1.1210   26.3210    5.7550 O.2    26  LYS26      -0.2718
     11  CB        -3.8910   25.0160    4.9390 C.3    26  LYS26       0.0285
     12  CG        -4.9960   25.2800    3.9220 C.3    26  LYS26       0.0035
     13  CD        -6.3620   25.4180    4.5820 C.3    26  LYS26       0.0206
     14  CE        -7.1230   24.1000    4.5890 C.3    26  LYS26       0.1093
     15  NZ        -6.4220   23.0310    5.3520 N.3    26  LYS26      -0.1314
     16  N         -0.9590   24.0940    6.0130 N.am   27  SER27      -0.1938
     17  CA        -0.0120   24.1670    7.1150 C.3    27  SER27       0.2055
     18  C          0.4810   22.7640    7.4280 C.2    27  SER27       0.2643
     19  O         -0.2150   21.7790    7.1630 O.2    27  SER27      -0.2714
     20  CB        -0.6540   24.7910    8.3620 C.3    27  SER27       0.2130
     21  OG         0.2320   24.7600    9.4680 O.3    27  SER27      -0.2179
     22  N          1.6870   22.6830    7.9870 N.am   28  PHE28      -0.1959
     23  CA         2.1770   21.4280    8.5340 C.3    28  PHE28       0.1771
     24  C          3.0710   21.7440    9.7230 C.2    28  PHE28       0.2619
     25  O          3.5360   22.8740    9.8930 O.2    28  PHE28      -0.2715
     26  CB         2.8960   20.5650    7.4840 C.3    28  PHE28       0.0574
     27  CG         4.2580   21.0660    7.0710 C.ar   28  PHE28      -0.0200
     28  CD1        5.3830   20.7560    7.8180 C.ar   28  PHE28      -0.0042
     29  CD2        4.4200   21.7750    5.8930 C.ar   28  PHE28      -0.0042
     30  CE1        6.6350   21.1850    7.4240 C.ar   28  PHE28      -0.0003
     31  CE2        5.6720   22.2060    5.4900 C.ar   28  PHE28      -0.0003
     32  CZ         6.7800   21.9080    6.2540 C.ar   28  PHE28      -0.0000
     33  N          3.2810   20.7340   10.5610 N.am   29  VAL29      -0.1977
     34  CA         3.9430   20.9070   11.8460 C.3    29  VAL29       0.1596
     35  C          4.9910   19.8210   12.0210 C.2    29  VAL29       0.2287
     36  O          4.7390   18.6480   11.7210 O.2    29  VAL29      -0.2864
     37  CB         2.9350   20.8610   13.0150 C.3    29  VAL29       0.0276
     38  CG1        3.6560   20.7820   14.3670 C.3    29  VAL29       0.0022
     39  CG2        2.0170   22.0690   12.9810 C.3    29  VAL29       0.0022
     40  N          7.1960   18.8040   15.3970 N.3    31  ASN31      -0.1240
     41  CA         7.4520   19.0420   16.8100 C.3    31  ASN31       0.1653
     42  C          8.6390   18.1970   17.2440 C.2    31  ASN31       0.2266
     43  O          8.7050   17.0060   16.9230 O.2    31  ASN31      -0.2867
     44  CB         6.2260   18.7030   17.6610 C.3    31  ASN31       0.1155
     45  CG         5.1150   19.7260   17.5290 C.2    31  ASN31       0.2627
     46  OD1        5.3580   20.8920   17.2140 O.2    31  ASN31      -0.2716
     47  ND2        3.8860   19.2950   17.7820 N.am   31  ASN31      -0.0877
     48  N          8.6550   23.7730   18.1010 N.3    42  HIS42      -0.1241
     49  CA         7.4130   23.6020   17.3570 C.3    42  HIS42       0.1621
     50  C          7.5830   24.3820   16.0580 C.2    42  HIS42       0.2264
     51  O          7.6580   25.6140   16.0750 O.2    42  HIS42      -0.2867
     52  CB         6.2210   24.0930   18.1780 C.3    42  HIS42       0.0745
     53  CG         4.9760   24.3270   17.3790 C.ar   42  HIS42       0.0817
     54  ND1        4.1420   23.3060   16.9760 N.ar   42  HIS42      -0.2268
     55  CD2        4.4080   25.4730   16.9350 C.ar   42  HIS42       0.1154
     56  CE1        3.1220   23.8120   16.3060 C.ar   42  HIS42       0.1986
     57  NE2        3.2600   25.1250   16.2660 N.ar   42  HIS42      -0.2212
     58  N          6.1920   25.2740   12.4120 N.3    44  ASN44      -0.1240
     59  CA         4.8480   25.3320   11.8370 C.3    44  ASN44       0.1653
     60  C          4.8210   26.2720   10.6370 C.2    44  ASN44       0.2266
     61  O          4.4000   27.4320   10.7490 O.2    44  ASN44      -0.2867
     62  CB         3.8400   25.7640   12.9050 C.3    44  ASN44       0.1155
     63  CG         2.4280   25.9190   12.3660 C.2    44  ASN44       0.2627
     64  OD1        1.6360   26.6900   12.9090 O.2    44  ASN44      -0.2716
     65  ND2        2.1030   25.1930   11.3040 N.am   44  ASN44      -0.0877
     66  N          3.1010   27.9010    7.7640 N.3    46  ARG46      -0.1245
     67  CA         1.7050   28.1580    7.4300 C.3    46  ARG46       0.1563
     68  C          1.6370   28.7230    6.0160 C.2    46  ARG46       0.2260
     69  O          2.1070   29.8370    5.7590 O.2    46  ARG46      -0.2867
     70  CB         1.0770   29.1180    8.4380 C.3    46  ARG46       0.0307
     71  CG         1.0350   28.5690    9.8520 C.3    46  ARG46       0.0489
     72  CD         0.4970   29.5850   10.8420 C.3    46  ARG46       0.2205
     73  NE         0.4700   29.0450   12.1990 N.pl3  46  ARG46      -0.0865
     74  CZ         0.1070   29.7330   13.2770 C.cat  46  ARG46       0.5346
     75  NH1       -0.2640   31.0020   13.1680 N.pl3  46  ARG46       0.1354
     76  NH2        0.1180   29.1490   14.4670 N.pl3  46  ARG46       0.1354
     77  N         -4.5920   30.3570   10.1120 N.3    50  HIS50      -0.1241
     78  CA        -4.6560   31.3490   11.1850 C.3    50  HIS50       0.1621
     79  C         -4.4640   32.7640   10.6460 C.2    50  HIS50       0.2264
     80  O         -3.8730   33.6220   11.3070 O.2    50  HIS50      -0.2867
     81  CB        -3.6210   31.0510   12.2740 C.3    50  HIS50       0.0745
     82  CG        -3.7770   29.7030   12.9050 C.ar   50  HIS50       0.0817
     83  ND1       -3.2130   28.5620   12.3750 N.ar   50  HIS50      -0.2268
     84  CD2       -4.4310   29.3130   14.0250 C.ar   50  HIS50       0.1154
     85  CE1       -3.5140   27.5280   13.1400 C.ar   50  HIS50       0.1986
     86  NE2       -4.2520   27.9570   14.1480 N.ar   50  HIS50      -0.2212
     87  N         -2.4660   33.6730    8.4420 N.3    52  ASP52      -0.1239
     88  CA        -1.0860   33.8740    8.0260 C.3    52  ASP52       0.1674
     89  C         -0.8660   33.2800    6.6420 C.2    52  ASP52       0.2266
     90  O         -1.4270   32.2320    6.3070 O.2    52  ASP52      -0.2867
     91  CB        -0.1200   33.2380    9.0250 C.3    52  ASP52       0.1410
     92  CG        -0.2220   33.8520   10.4040 C.2    52  ASP52       0.3668
     93  OD1       -0.4790   35.0720   10.4970 O.co2  52  ASP52      -0.2456
     94  OD2       -0.0410   33.1190   11.3990 O.co2  52  ASP52      -0.2456
     95  N          6.0530   29.8120   11.4760 N.3    57  VAL57      -0.1245
     96  CA         5.7900   30.0990   12.8810 C.3    57  VAL57       0.1561
     97  C          6.5590   29.0910   13.7200 C.2    57  VAL57       0.2260
     98  O          6.4730   27.8790   13.4820 O.2    57  VAL57      -0.2867
     99  CB         4.2830   30.0370   13.1860 C.3    57  VAL57       0.0252
    100  CG1        4.0190   30.1970   14.6840 C.3    57  VAL57       0.0019
    101  CG2        3.5390   31.1020   12.3930 C.3    57  VAL57       0.0019
    102  N          7.7120   28.0410   17.8940 N.3    59  ASN59      -0.1240
    103  CA         7.5050   28.2450   19.3200 C.3    59  ASN59       0.1653
    104  C          8.0750   27.0530   20.0730 C.2    59  ASN59       0.2266
    105  O          8.5150   26.0630   19.4820 O.2    59  ASN59      -0.2867
    106  CB         6.0200   28.4350   19.6560 C.3    59  ASN59       0.1155
    107  CG         5.8030   29.2480   20.9230 C.2    59  ASN59       0.2627
    108  OD1        6.7240   29.4450   21.7190 O.2    59  ASN59      -0.2716
    109  ND2        4.5770   29.7160   21.1210 N.am   59  ASN59      -0.0877
    110  N          2.8560   26.9960   26.1080 N.3    66  TRP66      -0.1241
    111  CA         3.4790   27.5940   24.9350 C.3    66  TRP66       0.1605
    112  C          4.3720   28.7580   25.3450 C.2    66  TRP66       0.2264
    113  O          4.0040   29.5790   26.1900 O.2    66  TRP66      -0.2867
    114  CB         2.4160   28.0900   23.9540 C.3    66  TRP66       0.0550
    115  CG         1.6980   27.0110   23.2150 C.ar   66  TRP66       0.0003
    116  CD1        0.3890   26.6510   23.3560 C.ar   66  TRP66       0.0946
    117  CD2        2.2460   26.1480   22.2110 C.ar   66  TRP66       0.0152
    118  NE1        0.0890   25.6180   22.5010 N.ar   66  TRP66      -0.2442
    119  CE2        1.2110   25.2900   21.7880 C.ar   66  TRP66       0.0810
    120  CE3        3.5100   26.0170   21.6300 C.ar   66  TRP66       0.0012
    121  CZ2        1.4020   24.3150   20.8110 C.ar   66  TRP66       0.0191
    122  CZ3        3.6990   25.0500   20.6600 C.ar   66  TRP66       0.0001
    123  CH2        2.6500   24.2100   20.2600 C.ar   66  TRP66       0.0015
    124  N          5.9360   33.0400   20.8200 N.3    69  GLU69      -0.1245
    125  CA         5.9610   32.7350   19.3970 C.3    69  GLU69       0.1567
    126  C          6.9590   33.6280   18.6710 C.2    69  GLU69       0.2260
    127  O          7.1320   34.8010   19.0130 O.2    69  GLU69      -0.2867
    128  CB         4.5610   32.9210   18.8130 C.3    69  GLU69       0.0388
    129  CG         4.3710   32.3600   17.4240 C.3    69  GLU69       0.1160
    130  CD         2.9260   32.4340   16.9740 C.2    69  GLU69       0.3649
    131  OE1        2.6250   33.2410   16.0700 O.co2  69  GLU69      -0.2457
    132  OE2        2.0890   31.6950   17.5350 O.co2  69  GLU69      -0.2457
    133  N          8.4860   34.3540   14.4240 N.3    71  ARG71      -0.1245
    134  CA         8.1860   34.1540   13.0150 C.3    71  ARG71       0.1563
    135  C          9.3890   34.5370   12.1680 C.2    71  ARG71       0.2260
    136  O         10.0760   35.5220   12.4520 O.2    71  ARG71      -0.2867
    137  CB         6.9500   34.9600   12.6160 C.3    71  ARG71       0.0307
    138  CG         5.7340   34.5700   13.4340 C.3    71  ARG71       0.0489
    139  CD         4.4730   35.2750   12.9930 C.3    71  ARG71       0.2205
    140  NE         3.2990   34.6310   13.5720 N.pl3  71  ARG71      -0.0865
    141  CZ         2.0670   34.7300   13.0850 C.cat  71  ARG71       0.5346
    142  NH1        1.8330   35.4500   11.9960 N.pl3  71  ARG71       0.1354
    143  NH2        1.0680   34.0970   13.6860 N.pl3  71  ARG71       0.1354
    144  N          2.5570   16.6100   11.8050 N.3   120  ASP120     -0.1225
    145  CA         1.1300   16.7890   11.6020 C.3   120  ASP120      0.1805
    146  C          0.9200   17.6740   10.3840 C.2   120  ASP120      0.2598
    147  O          1.8330   18.3680    9.9300 O.2   120  ASP120     -0.2718
    148  CB         0.4560   17.4050   12.8350 C.3   120  ASP120      0.1424
    149  CG        -0.9910   16.9710   12.9880 C.2   120  ASP120      0.3668
    150  OD1       -1.5580   16.4180   12.0220 O.co2 120  ASP120     -0.2456
    151  OD2       -1.5630   17.1870   14.0780 O.co2 120  ASP120     -0.2456
    152  N         -0.2900   17.6250    9.8480 N.am  121  GLY121     -0.1942
    153  CA        -0.6740   18.5320    8.7890 C.3   121  GLY121      0.2014
    154  C         -0.3680   18.0090    7.3990 C.2   121  GLY121      0.2638
    155  O         -0.2270   16.8070    7.1490 O.2   121  GLY121     -0.2714
    156  N         -0.2500   18.9600    6.4760 N.am  122  ASP122     -0.1971
    157  CA        -0.2230   18.6720    5.0420 C.3   122  ASP122      0.1709
    158  C          1.2060   18.4010    4.5670 C.2   122  ASP122      0.2293
    159  O          1.7450   19.0710    3.6860 O.2   122  ASP122     -0.2864
    160  CB        -0.8570   19.8290    4.2790 C.3   122  ASP122      0.1436
    161  CG        -2.2290   20.1940    4.8150 C.2   122  ASP122      0.3671
    162  OD1       -3.0080   19.2710    5.1320 O.co2 122  ASP122     -0.2456
    163  OD2       -2.5250   21.4020    4.9320 O.co2 122  ASP122     -0.2456
@<TRIPOS>BOND
     1     7     8    1
     2   159   158    2
     3    12    13    1
     4    12    11    1
     5   160   161    1
     6   160   157    1
     7     8    11    1
     8     8     9    1
     9   158   157    1
    10    13    14    1
    11    14    15    1
    12   161   163   ar
    13   161   162   ar
    14   157   156    1
    15     9    10    2
    16     9    16   am
    17    31    29   ar
    18    31    32   ar
    19    69    68    2
    20    29    27   ar
    21    16    17    1
    22    68    67    1
    23    32    30   ar
    24    90    89    2
    25   156   154   am
    26    89    88    1
    27    27    26    1
    28    27    28   ar
    29    17    18    1
    30    17    20    1
    31   155   154    2
    32    19    18    2
    33   154   153    1
    34    30    28   ar
    35    18    22   am
    36    67    66    1
    37    67    70    1
    38    26    23    1
    39    22    23    1
    40    88    87    1
    41    88    91    1
    42    20    21    1
    43    70    71    1
    44    23    24    1
    45   153   152    1
    46    91    92    1
    47    24    25    2
    48    24    33   am
    49   152   146   am
    50    71    72    1
    51   147   146    2
    52    77    78    1
    53   146   145    1
    54    92    93   ar
    55    92    94   ar
    56    33    34    1
    57    60    61    2
    58    60    59    1
    59    79    78    1
    60    79    80    2
    61    72    73    1
    62    78    81    1
    63    65    63   am
    64    95    96    1
    65     4     3    2
    66   145   144    1
    67   145   148    1
    68    36    35    2
    69    59    58    1
    70    59    62    1
    71    34    35    1
    72    34    37    1
    73   142   141    1
    74   150   149   ar
    75     3     2    1
    76   135   136    2
    77   135   134    1
    78    73    74    2
    79    81    82    1
    80    63    62    1
    81    63    64    2
    82    83    82   ar
    83    83    85   ar
    84   101    99    1
    85     1     2    1
    86   137   134    1
    87   137   138    1
    88   148   149    1
    89    96    99    1
    90    96    97    1
    91    82    84   ar
    92     2     5    1
    93    39    37    1
    94   149   151   ar
    95   139   138    1
    96   139   140    1
    97    37    38    1
    98   134   133    1
    99   141   140    2
   100   141   143    1
   101    85    86   ar
   102    75    74    1
   103    99   100    1
   104    74    76    1
   105    98    97    2
   106    84    86   ar
   107     5     6    1
   108    40    41    1
   109    50    51    2
   110    50    49    1
   111   131   130   ar
   112    57    56   ar
   113    57    55   ar
   114    56    54   ar
   115    41    42    1
   116    41    44    1
   117    43    42    2
   118    55    53   ar
   119   130   129    1
   120   130   132   ar
   121    54    53   ar
   122    46    45    2
   123    49    48    1
   124    49    52    1
   125    53    52    1
   126   129   128    1
   127    45    44    1
   128    45    47   am
   129   102   103    1
   130   126   127    2
   131   126   125    1
   132   128   125    1
   133   103   106    1
   134   103   104    1
   135   125   124    1
   136   105   104    2
   137   106   107    1
   138   123   122   ar
   139   123   121   ar
   140   122   120   ar
   141   121   119   ar
   142   107   109   am
   143   107   108    2
   144   120   117   ar
   145   119   117   ar
   146   119   118   ar
   147   117   115   ar
   148   118   116   ar
   149   115   116   ar
   150   115   114    1
   151   114   111    1
   152   111   112    1
   153   111   110    1
   154   112   113    2
