@<TRIPOS>MOLECULE
tmp/5mwuA00.pdb
 116 114 0 0 0
SMALL
GASTEIGER

@<TRIPOS>ATOM
      1  N          2.2960   -8.4080   41.3210 N.3    21  TYR21      -0.1227
      2  CA         2.0310   -7.1630   40.5930 C.3    21  TYR21       0.1736
      3  C          1.2010   -6.2750   41.4810 C.2    21  TYR21       0.2596
      4  O          1.5020   -6.1820   42.6580 O.2    21  TYR21      -0.2718
      5  CB         1.4160   -7.5060   39.1930 C.3    21  TYR21       0.0548
      6  CG         2.2990   -8.3340   38.3600 C.ar   21  TYR21      -0.0200
      7  CD1        2.2930   -9.7180   38.5020 C.ar   21  TYR21      -0.0009
      8  CD2        3.1850   -7.7680   37.5300 C.ar   21  TYR21      -0.0009
      9  CE1        3.1220  -10.5010   37.8020 C.ar   21  TYR21       0.0417
     10  CE2        4.0840   -8.5210   36.8200 C.ar   21  TYR21       0.0417
     11  CZ         4.0100   -9.9330   36.9270 C.ar   21  TYR21       0.1957
     12  OH         4.8680  -10.6950   36.1990 O.3    21  TYR21      -0.2866
     13  N          0.1200   -5.6290   40.9810 N.am   22  THR22      -0.1953
     14  CA        -0.7200   -4.8320   41.8100 C.3    22  THR22       0.1897
     15  C         -1.1350   -5.5450   43.0840 C.2    22  THR22       0.2313
     16  O         -1.4260   -6.7480   43.0410 O.2    22  THR22      -0.2863
     17  CB        -1.9870   -4.3090   41.0030 C.3    22  THR22       0.1794
     18  OG1       -2.6680   -3.3380   41.8120 O.3    22  THR22      -0.2208
     19  CG2       -2.9330   -5.3830   40.6920 C.3    22  THR22       0.0378
     20  N          6.0790   -0.8650   41.1500 N.3    26  MET26      -0.1301
     21  CA         7.3710   -1.2590   40.5930 C.3    26  MET26       0.1256
     22  C          8.5570   -0.4350   41.0850 C.3    26  MET26       0.2010
     23  O          9.6810   -0.9910   41.4260 O.3    26  MET26      -0.2188
     24  CB         7.3100   -1.2400   39.0550 C.3    26  MET26       0.0333
     25  CG         6.2500   -2.1860   38.4970 C.3    26  MET26       0.0592
     26  SD         5.9610   -1.9290   36.7450 S.3    26  MET26      -0.1393
     27  CE         7.4290   -2.8070   36.2150 C.3    26  MET26       0.0692
     28  N          0.7370  -16.5010   35.9950 N.3    96  ARG96      -0.1245
     29  CA         0.6530  -15.0490   36.2140 C.3    96  ARG96       0.1563
     30  C          1.6420  -14.2350   35.4230 C.2    96  ARG96       0.2260
     31  O          1.3910  -13.0290   35.1650 O.2    96  ARG96      -0.2867
     32  CB         0.6930  -14.7420   37.6950 C.3    96  ARG96       0.0307
     33  CG         0.5240  -13.2890   38.0230 C.3    96  ARG96       0.0489
     34  CD        -0.8890  -12.7760   37.7230 C.3    96  ARG96       0.2205
     35  NE        -1.0310  -11.3140   37.8930 N.pl3  96  ARG96      -0.0865
     36  CZ        -0.7180  -10.3990   36.9650 C.cat  96  ARG96       0.5346
     37  NH1       -0.0960  -10.7290   35.8480 N.pl3  96  ARG96       0.1354
     38  NH2       -0.9500   -9.0990   37.1950 N.pl3  96  ARG96       0.1354
     39  N          2.6340  -12.8320   30.2540 N.3    99  TRP99      -0.1241
     40  CA         2.9100  -11.6910   29.4430 C.3    99  TRP99       0.1605
     41  C          4.3790  -11.5940   29.1600 C.2    99  TRP99       0.2264
     42  O          4.7640  -11.0440   28.1540 O.2    99  TRP99      -0.2867
     43  CB         2.3780  -10.4420   30.1630 C.3    99  TRP99       0.0550
     44  CG         3.1530  -10.1410   31.4220 C.ar   99  TRP99       0.0003
     45  CD1        2.8820  -10.5590   32.6770 C.ar   99  TRP99       0.0946
     46  CD2        4.3490   -9.3890   31.4950 C.ar   99  TRP99       0.0152
     47  NE1        3.8700  -10.1250   33.5260 N.ar   99  TRP99      -0.2442
     48  CE2        4.7480   -9.3680   32.8470 C.ar   99  TRP99       0.0810
     49  CE3        5.0750   -8.6780   30.5830 C.ar   99  TRP99       0.0012
     50  CZ2        5.9000   -8.7320   33.2810 C.ar   99  TRP99       0.0191
     51  CZ3        6.2050   -8.0260   31.0000 C.ar   99  TRP99       0.0001
     52  CH2        6.6180   -8.0780   32.3510 C.ar   99  TRP99       0.0015
     53  N         10.4500   -6.5100   38.1190 N.3   136  ARG136     -0.1245
     54  CA         9.7740   -7.7580   38.5260 C.3   136  ARG136      0.1563
     55  C          9.5770   -8.6110   37.2860 C.2   136  ARG136      0.2260
     56  O          9.3940   -8.0720   36.2220 O.2   136  ARG136     -0.2867
     57  CB         8.4570   -7.4760   39.2500 C.3   136  ARG136      0.0307
     58  CG         7.4410   -6.6950   38.4300 C.3   136  ARG136      0.0489
     59  CD         6.4000   -6.0570   39.3070 C.3   136  ARG136      0.2205
     60  NE         5.3310   -5.4320   38.5250 N.pl3 136  ARG136     -0.0865
     61  CZ         4.3670   -4.6870   39.0450 C.cat 136  ARG136      0.5346
     62  NH1        4.3460   -4.3620   40.3070 N.pl3 136  ARG136      0.1354
     63  NH2        3.4010   -4.2530   38.2850 N.pl3 136  ARG136      0.1354
     64  N         -4.5300    3.6620   25.9770 N.3   394  HIS394     -0.1241
     65  CA        -3.5850    2.6030   26.2430 C.3   394  HIS394      0.1621
     66  C         -2.2280    3.2850   26.1690 C.2   394  HIS394      0.2264
     67  O         -2.0760    4.4830   25.7320 O.2   394  HIS394     -0.2867
     68  CB        -3.7880    1.4980   25.2000 C.3   394  HIS394      0.0745
     69  CG        -3.0790    0.1920   25.4980 C.ar  394  HIS394      0.0817
     70  ND1       -2.6890   -0.1890   26.7680 N.ar  394  HIS394     -0.2268
     71  CD2       -2.5850   -0.7480   24.6650 C.ar  394  HIS394      0.1154
     72  CE1       -2.0600   -1.3530   26.7060 C.ar  394  HIS394      0.1986
     73  NE2       -2.0010   -1.7320   25.4410 N.ar  394  HIS394     -0.2212
     74  N          5.2360    0.6420   27.1880 N.3   397  TRP397     -0.1241
     75  CA         5.7930    0.3690   28.5360 C.3   397  TRP397      0.1605
     76  C          7.1170    1.0090   28.8090 C.2   397  TRP397      0.2264
     77  O          7.6200    0.8990   29.8850 O.2   397  TRP397     -0.2867
     78  CB         5.8530   -1.1620   28.7280 C.3   397  TRP397      0.0550
     79  CG         4.4940   -1.8330   28.7700 C.ar  397  TRP397      0.0003
     80  CD1        3.3080   -1.2440   28.9930 C.ar  397  TRP397      0.0946
     81  CD2        4.2130   -3.2590   28.6690 C.ar  397  TRP397      0.0152
     82  NE1        2.2980   -2.1790   29.0040 N.ar  397  TRP397     -0.2442
     83  CE2        2.8310   -3.4170   28.7880 C.ar  397  TRP397      0.0810
     84  CE3        4.9860   -4.3740   28.4060 C.ar  397  TRP397      0.0012
     85  CZ2        2.2130   -4.6620   28.7130 C.ar  397  TRP397      0.0191
     86  CZ3        4.3390   -5.6530   28.3220 C.ar  397  TRP397      0.0001
     87  CH2        2.9940   -5.7590   28.4620 C.ar  397  TRP397      0.0015
     88  N         11.1710   -2.6530   28.0040 N.3   401  TYR401     -0.1241
     89  CA        10.0390   -3.3560   27.4200 C.3   401  TYR401      0.1605
     90  C          9.7650   -3.1120   25.9300 C.2   401  TYR401      0.2264
     91  O          9.2840   -4.0390   25.2030 O.2   401  TYR401     -0.2867
     92  CB         8.7190   -3.0370   28.1760 C.3   401  TYR401      0.0534
     93  CG         8.7970   -3.2140   29.6470 C.ar  401  TYR401     -0.0201
     94  CD1        8.4940   -4.4520   30.2370 C.ar  401  TYR401     -0.0009
     95  CD2        9.1700   -2.1430   30.5150 C.ar  401  TYR401     -0.0009
     96  CE1        8.5730   -4.5950   31.6520 C.ar  401  TYR401      0.0417
     97  CE2        9.2380   -2.3160   31.9100 C.ar  401  TYR401      0.0417
     98  CZ         8.9210   -3.5280   32.4550 C.ar  401  TYR401      0.1957
     99  OH         8.9980   -3.6970   33.8390 O.3   401  TYR401     -0.2866
    100  N         -5.0730   -9.2500   27.2230 N.3   415  HIS415     -0.1241
    101  CA        -4.5010   -7.9210   27.2200 C.3   415  HIS415      0.1621
    102  C         -5.1520   -7.1200   26.1020 C.2   415  HIS415      0.2264
    103  O         -5.6140   -7.6560   25.0900 O.2   415  HIS415     -0.2867
    104  CB        -2.9960   -7.9890   26.9950 C.3   415  HIS415      0.0745
    105  CG        -2.2180   -8.4770   28.1800 C.ar  415  HIS415      0.0817
    106  ND1       -0.9000   -8.1340   28.3830 N.ar  415  HIS415     -0.2268
    107  CD2       -2.5700   -9.2480   29.2410 C.ar  415  HIS415      0.1154
    108  CE1       -0.4730   -8.6680   29.5130 C.ar  415  HIS415      0.1986
    109  NE2       -1.4660   -9.3480   30.0540 N.ar  415  HIS415     -0.2212
    110  N         10.0180    2.6790   34.5050 N.3   489  THR489     -0.1218
    111  CA         9.2230    2.5530   35.7380 C.3   489  THR489      0.1862
    112  C          9.9890    2.6910   37.0540 C.2   489  THR489      0.2287
    113  O          9.4330    2.6060   38.1310 O.2   489  THR489     -0.2866
    114  CB         8.4990    1.1930   35.7580 C.3   489  THR489      0.1770
    115  OG1        9.4160    0.1220   35.5950 O.3   489  THR489     -0.2211
    116  CG2        7.5260    1.0730   34.5720 C.3   489  THR489      0.0375
@<TRIPOS>BOND
     1    71    73   ar
     2    71    69   ar
     3   103   102    2
     4    68    69    1
     5    68    65    1
     6    91    90    2
     7    73    72   ar
     8    69    70   ar
     9    67    66    2
    10    90    89    1
    11    64    65    1
    12   102   101    1
    13    66    65    1
    14    72    70   ar
    15   104   101    1
    16   104   105    1
    17    74    75    1
    18   101   100    1
    19    89    88    1
    20    89    92    1
    21    42    41    2
    22    92    93    1
    23   105   106   ar
    24   105   107   ar
    25    86    84   ar
    26    86    87   ar
    27   106   108   ar
    28    84    81   ar
    29    87    85   ar
    30    75    78    1
    31    75    76    1
    32    81    79   ar
    33    81    83   ar
    34    85    83   ar
    35    78    79    1
    36    79    80   ar
    37    83    82   ar
    38    76    77    2
    39    80    82   ar
    40    41    40    1
    41   107   109   ar
    42    40    43    1
    43    40    39    1
    44   108   109   ar
    45    93    94   ar
    46    93    95   ar
    47    43    44    1
    48    94    96   ar
    49    95    97   ar
    50    49    51   ar
    51    49    46   ar
    52    51    52   ar
    53    44    46   ar
    54    44    45   ar
    55    46    48   ar
    56    96    98   ar
    57    97    98   ar
    58    52    50   ar
    59    98    99    1
    60    45    47   ar
    61    48    50   ar
    62    48    47   ar
    63   110   111    1
    64   116   114    1
    65    31    30    2
    66    30    29    1
    67   115   114    1
    68   111   114    1
    69   111   112    1
    70    37    36    1
    71    28    29    1
    72    12    11    1
    73    29    32    1
    74    27    26    1
    75    56    55    2
    76    26    25    1
    77    10    11   ar
    78    10     8   ar
    79    11     9   ar
    80    36    38    1
    81    36    35    2
    82   112   113    2
    83    55    54    1
    84     8     6   ar
    85    32    33    1
    86    34    35    1
    87    34    33    1
    88     9     7   ar
    89    53    54    1
    90    63    61    1
    91     6     7   ar
    92     6     5    1
    93    58    57    1
    94    58    59    1
    95    25    24    1
    96    60    61    2
    97    60    59    1
    98    54    57    1
    99    61    62    1
   100    24    21    1
   101     5     2    1
   102     2     1    1
   103     2     3    1
   104    21    22    1
   105    21    20    1
   106    19    17    1
   107    13     3   am
   108    13    14    1
   109    17    14    1
   110    17    18    1
   111    22    23    1
   112     3     4    2
   113    14    15    1
   114    16    15    2
