@<TRIPOS>MOLECULE
tmp/5mwyA01.pdb
 198 184 0 0 0
SMALL
GASTEIGER

@<TRIPOS>ATOM
      1  N         14.5950   23.6310   19.1000 N.3    32  LEU32      -0.1245
      2  CA        13.2650   23.2060   19.5530 C.3    32  LEU32       0.1561
      3  C         12.1690   24.2200   19.1670 C.2    32  LEU32       0.2260
      4  O         11.0760   23.8060   18.7650 O.2    32  LEU32      -0.2867
      5  CB        13.2400   22.8560   21.0570 C.3    32  LEU32       0.0270
      6  CG        14.1630   21.7310   21.5370 C.3    32  LEU32       0.0019
      7  CD1       14.1040   21.5830   23.0240 C.3    32  LEU32       0.0001
      8  CD2       13.8990   20.4090   20.8080 C.3    32  LEU32       0.0001
      9  N         11.4150   23.6690   15.6120 N.3    35  LEU35      -0.1231
     10  CA        10.6120   22.4400   15.4740 C.3    35  LEU35       0.1693
     11  C          9.1500   22.7120   15.8400 C.2    35  LEU35       0.2592
     12  O          8.2330   22.2820   15.1190 O.2    35  LEU35      -0.2718
     13  CB        11.2010   21.2730   16.2670 C.3    35  LEU35       0.0284
     14  CG        12.5080   20.6730   15.7420 C.3    35  LEU35       0.0019
     15  CD1       12.9000   19.4740   16.5850 C.3    35  LEU35       0.0001
     16  CD2       12.3790   20.2280   14.2950 C.3    35  LEU35       0.0001
     17  N          8.9270   23.4820   16.9470 N.am   36  ASN36      -0.1974
     18  CA         7.5750   23.8640   17.3660 C.3    36  ASN36       0.1688
     19  C          6.8640   24.7260   16.3160 C.2    36  ASN36       0.2292
     20  O          5.6810   24.5380   16.0370 O.2    36  ASN36      -0.2864
     21  CB         7.6230   24.5970   18.7080 C.3    36  ASN36       0.1181
     22  CG         7.9090   23.6590   19.8210 C.2    36  ASN36       0.2629
     23  OD1        7.7400   22.4640   19.6760 O.2    36  ASN36      -0.2716
     24  ND2        8.3260   24.1630   20.9470 N.am   36  ASN36      -0.0877
     25  N          7.4490   24.6470   13.0900 N.3    38  LEU38      -0.1231
     26  CA         7.1630   23.7370   11.9880 C.3    38  LEU38       0.1693
     27  C          5.9160   22.8980   12.3120 C.2    38  LEU38       0.2591
     28  O          5.0100   22.7920   11.4660 O.2    38  LEU38      -0.2718
     29  CB         8.3940   22.8500   11.6790 C.3    38  LEU38       0.0284
     30  CG         8.1340   21.7140   10.6910 C.3    38  LEU38       0.0019
     31  CD1        7.7930   22.2630    9.3070 C.3    38  LEU38       0.0001
     32  CD2        9.3450   20.8370   10.5740 C.3    38  LEU38       0.0001
     33  N          5.8210   22.3920   13.5610 N.am   39  ALA39      -0.1980
     34  CA         4.6770   21.6130   14.0530 C.3    39  ALA39       0.1597
     35  C          3.3690   22.4020   13.9180 C.2    39  ALA39       0.2287
     36  O          2.3730   21.8450   13.4810 O.2    39  ALA39      -0.2864
     37  CB         4.8940   21.2100   15.5060 C.3    39  ALA39       0.0319
     38  N          2.4320   22.5460   10.2500 N.3    42  GLN42      -0.1245
     39  CA         1.9560   21.2250    9.8390 C.3    42  GLN42       0.1566
     40  C          0.6040   20.9370   10.4130 C.2    42  GLN42       0.2260
     41  O         -0.2120   20.3010    9.7400 O.2    42  GLN42      -0.2867
     42  CB         2.9300   20.1470   10.3080 C.3    42  GLN42       0.0367
     43  CG         4.2350   20.1810    9.5350 C.3    42  GLN42       0.0905
     44  CD         5.1800   19.1530   10.0500 C.2    42  GLN42       0.2608
     45  OE1        4.9060   18.4700   11.0460 O.2    42  GLN42      -0.2717
     46  NE2        6.3040   19.0090    9.3710 N.am   42  GLN42      -0.0878
     47  N         -2.1300   14.2870   17.1690 N.3    72  TRP72      -0.1227
     48  CA        -1.2050   15.2070   16.4990 C.3    72  TRP72       0.1737
     49  C          0.2430   14.7400   16.4890 C.2    72  TRP72       0.2595
     50  O          0.8850   14.8790   15.4310 O.2    72  TRP72      -0.2718
     51  CB        -1.3480   16.6410   17.0480 C.3    72  TRP72       0.0564
     52  CG        -0.6130   16.9320   18.3210 C.ar   72  TRP72       0.0003
     53  CD1       -1.0530   16.7230   19.5920 C.ar   72  TRP72       0.0946
     54  CD2        0.7000   17.5120   18.4350 C.ar   72  TRP72       0.0152
     55  NE1       -0.0930   17.1310   20.4960 N.ar   72  TRP72      -0.2442
     56  CE2        1.0050   17.5940   19.8090 C.ar   72  TRP72       0.0810
     57  CE3        1.6760   17.9100   17.4950 C.ar   72  TRP72       0.0012
     58  CZ2        2.2000   18.1570   20.2750 C.ar   72  TRP72       0.0191
     59  CZ3        2.8580   18.4570   17.9530 C.ar   72  TRP72       0.0001
     60  CH2        3.1290   18.5460   19.3280 C.ar   72  TRP72       0.0015
     61  N          0.7500   14.1650   17.6150 N.am   73  MET73      -0.1979
     62  CA         2.1590   13.7250   17.6940 C.3    73  MET73       0.1605
     63  C          2.3680   12.4590   16.8700 C.2    73  MET73       0.2287
     64  O          3.4330   12.2960   16.2430 O.2    73  MET73      -0.2864
     65  CB         2.5960   13.5410   19.1690 C.3    73  MET73       0.0413
     66  CG         4.0630   13.2490   19.3550 C.3    73  MET73       0.0598
     67  SD         5.0720   14.6780   18.9610 S.3    73  MET73      -0.1393
     68  CE         4.9170   15.6160   20.5140 C.3    73  MET73       0.0692
     69  N          2.2180   13.4840   13.0210 N.3    76  SER76      -0.1202
     70  CA         3.4380   14.2710   12.7910 C.3    76  SER76       0.2020
     71  C          4.6870   13.3920   12.7420 C.2    76  SER76       0.2619
     72  O          5.5560   13.5970   11.8790 O.2    76  SER76      -0.2717
     73  CB         3.6230   15.2920   13.9080 C.3    76  SER76       0.2103
     74  OG         2.5930   16.2600   13.8770 O.3    76  SER76      -0.2182
     75  N          4.8120   12.4420   13.6790 N.am   77  SER77      -0.1951
     76  CA         5.9970   11.5870   13.7000 C.3    77  SER77       0.1924
     77  C          5.9820   10.5820   12.5350 C.2    77  SER77       0.2314
     78  O          7.0440   10.2670   11.9970 O.2    77  SER77      -0.2863
     79  CB         6.1200   10.8800   15.0430 C.3    77  SER77       0.2116
     80  OG         5.0320   10.0140   15.2950 O.3    77  SER77      -0.2180
     81  N          6.9450   12.4180    9.4170 N.3    80  LEU80      -0.1245
     82  CA         8.4080   12.6560    9.4810 C.3    80  LEU80       0.1561
     83  C          9.1380   11.3890    9.0350 C.2    80  LEU80       0.2260
     84  O         10.0870   11.4610    8.2270 O.2    80  LEU80      -0.2867
     85  CB         8.8270   13.0230   10.9230 C.3    80  LEU80       0.0270
     86  CG        10.3200   13.1330   11.2150 C.3    80  LEU80       0.0019
     87  CD1       11.0120   14.1430   10.3130 C.3    80  LEU80       0.0001
     88  CD2       10.5580   13.3930   12.6920 C.3    80  LEU80       0.0001
     89  N          8.7950   11.2000    5.2140 N.3    83  ARG83      -0.1245
     90  CA         9.6690   12.1370    4.5050 C.3    83  ARG83       0.1563
     91  C         11.1200   11.6510    4.5700 C.2    83  ARG83       0.2260
     92  O         11.8480   11.7920    3.5970 O.2    83  ARG83      -0.2867
     93  CB         9.6010   13.5260    5.1480 C.3    83  ARG83       0.0307
     94  CG         8.2910   14.2180    4.8540 C.3    83  ARG83       0.0489
     95  CD         8.3190   15.6980    5.1960 C.3    83  ARG83       0.2205
     96  NE         8.6140   15.9940    6.6020 N.pl3  83  ARG83      -0.0865
     97  CZ         7.7450   15.9460    7.6110 C.cat  83  ARG83       0.5346
     98  NH1        6.4810   15.5700    7.3970 N.pl3  83  ARG83       0.1354
     99  NH2        8.1320   16.2590    8.8400 N.pl3  83  ARG83       0.1354
    100  N         16.8540   12.6170    9.4800 N.3    93  LEU93      -0.1245
    101  CA        15.4930   13.0210    9.8610 C.3    93  LEU93       0.1561
    102  C         15.1000   14.2430    9.0270 C.2    93  LEU93       0.2260
    103  O         15.5660   15.3770    9.2830 O.2    93  LEU93      -0.2867
    104  CB        15.3310   13.2460   11.3890 C.3    93  LEU93       0.0270
    105  CG        15.3410   11.9790   12.2630 C.3    93  LEU93       0.0019
    106  CD1       15.2660   12.3420   13.7270 C.3    93  LEU93       0.0001
    107  CD2       14.1790   11.0450   11.9200 C.3    93  LEU93       0.0001
    108  N         12.9300   16.7230    8.5460 N.3    95  PHE95      -0.1241
    109  CA        11.8290   17.5280    9.1130 C.3    95  PHE95       0.1605
    110  C         11.1810   18.4010    8.0340 C.2    95  PHE95       0.2264
    111  O          9.9580   18.5280    7.9610 O.2    95  PHE95      -0.2867
    112  CB        12.3560   18.4060   10.2580 C.3    95  PHE95       0.0534
    113  CG        12.5960   17.6210   11.5180 C.ar   95  PHE95      -0.0203
    114  CD1       11.5570   17.3570   12.4040 C.ar   95  PHE95      -0.0042
    115  CD2       13.8590   17.1510   11.8290 C.ar   95  PHE95      -0.0042
    116  CE1       11.7850   16.6260   13.5690 C.ar   95  PHE95      -0.0003
    117  CE2       14.0770   16.3790   12.9800 C.ar   95  PHE95      -0.0003
    118  CZ        13.0460   16.1380   13.8460 C.ar   95  PHE95      -0.0000
    119  N         17.3560   16.1570   22.3640 N.3   111  MET111     -0.1245
    120  CA        16.4160   15.0610   22.1320 C.3   111  MET111      0.1570
    121  C         17.0450   13.8770   21.3970 C.2   111  MET111      0.2261
    122  O         16.3320   13.1780   20.6590 O.2   111  MET111     -0.2867
    123  CB        15.2700   15.5550   21.2350 C.3   111  MET111      0.0387
    124  CG        14.4180   16.5810   21.8270 C.3   111  MET111      0.0595
    125  SD        13.0920   16.8150   20.6520 S.3   111  MET111     -0.1393
    126  CE        12.1810   15.3330   20.8810 C.3   111  MET111      0.0692
    127  N         15.1660   11.2480   18.9740 N.3   115  CYS115     -0.1235
    128  CA        15.5330   11.2540   17.5520 C.3   115  CYS115      0.1677
    129  C         15.9110    9.8530   17.0470 C.2   115  CYS115      0.2270
    130  O         15.4320    9.4390   15.9900 O.2   115  CYS115     -0.2867
    131  CB        16.6530   12.2520   17.2960 C.3   115  CYS115      0.0956
    132  SG        16.1120   13.9610   17.2950 S.3   115  CYS115     -0.0801
    133  N         12.8210    7.7950   16.6350 N.3   118  MET118     -0.1245
    134  CA        12.1630    8.1720   15.3990 C.3   118  MET118      0.1570
    135  C         12.8460    7.5290   14.2110 C.2   118  MET118      0.2261
    136  O         12.1790    7.0270   13.3130 O.2   118  MET118     -0.2867
    137  CB        12.2210    9.6930   15.2370 C.3   118  MET118      0.0387
    138  CG        11.3750   10.1700   14.1160 C.3   118  MET118      0.0595
    139  SD         9.6580   10.1140   14.6370 S.3   118  MET118     -0.1393
    140  CE         9.6690   11.5710   15.7410 C.3   118  MET118      0.0692
    141  N          7.7250   11.0450   23.2660 N.3   198  LEU198     -0.1245
    142  CA         7.7750   12.3490   22.5910 C.3   198  LEU198      0.1561
    143  C          6.8800   13.3200   23.3330 C.2   198  LEU198      0.2260
    144  O          7.3110   14.4320   23.6070 O.2   198  LEU198     -0.2867
    145  CB         7.3480   12.2670   21.1120 C.3   198  LEU198      0.0270
    146  CG         8.2770   11.5480   20.1370 C.3   198  LEU198      0.0019
    147  CD1        7.5900   11.3460   18.8220 C.3   198  LEU198      0.0001
    148  CD2        9.5980   12.2670   19.9390 C.3   198  LEU198      0.0001
    149  N          8.3850   14.5580   26.6680 N.3   201  PHE201     -0.1227
    150  CA         9.3520   15.6380   26.5220 C.3   201  PHE201      0.1736
    151  C          8.6540   16.9310   26.1540 C.2   201  PHE201      0.2595
    152  O          9.0480   17.9840   26.6380 O.2   201  PHE201     -0.2718
    153  CB        10.3970   15.2890   25.4450 C.3   201  PHE201      0.0547
    154  CG        11.5570   16.2500   25.3910 C.ar  201  PHE201     -0.0202
    155  CD1       12.5710   16.1920   26.3330 C.ar  201  PHE201     -0.0042
    156  CD2       11.6770   17.1590   24.3510 C.ar  201  PHE201     -0.0042
    157  CE1       13.6610   17.0740   26.2700 C.ar  201  PHE201     -0.0003
    158  CE2       12.7450   18.0610   24.3100 C.ar  201  PHE201     -0.0003
    159  CZ        13.7500   17.9840   25.2420 C.ar  201  PHE201     -0.0000
    160  N          7.6440   16.8510   25.2620 N.am  202  CYS202     -0.1970
    161  CA         6.8990   18.0320   24.8230 C.3   202  CYS202      0.1712
    162  C          6.1760   18.6790   26.0130 C.2   202  CYS202      0.2296
    163  O          6.2470   19.8910   26.1960 O.2   202  CYS202     -0.2864
    164  CB         5.9190   17.6570   23.7180 C.3   202  CYS202      0.0983
    165  SG         4.9850   19.0640   23.0930 S.3   202  CYS202     -0.0798
    166  N          8.8290   20.4990   28.3920 N.3   205  THR205     -0.1218
    167  CA         9.2810   21.7900   27.8570 C.3   205  THR205      0.1862
    168  C          8.1280   22.8010   27.8220 C.2   205  THR205      0.2287
    169  O          8.3770   23.9880   27.9850 O.2   205  THR205     -0.2866
    170  CB         9.9710   21.6590   26.4940 C.3   205  THR205      0.1770
    171  OG1        8.9940   21.3520   25.5120 O.3   205  THR205     -0.2211
    172  CG2       11.1010   20.6220   26.4870 C.3   205  THR205      0.0375
    173  N         12.0980   28.0260   25.1340 N.3   214  VAL214     -0.1245
    174  CA        11.4760   27.2990   24.0230 C.3   214  VAL214      0.1561
    175  C         10.1470   27.9250   23.6990 C.2   214  VAL214      0.2260
    176  O          9.2960   28.0340   24.5770 O.2   214  VAL214     -0.2867
    177  CB        11.3620   25.7860   24.2650 C.3   214  VAL214      0.0252
    178  CG1       10.9090   25.0780   22.9910 C.3   214  VAL214      0.0019
    179  CG2       12.6930   25.2060   24.7630 C.3   214  VAL214      0.0019
    180  N          6.4430   28.2680   21.6450 N.3   216  PHE216     -0.1241
    181  CA         5.3350   27.4710   21.1380 C.3   216  PHE216      0.1605
    182  C          4.3950   28.3620   20.3220 C.2   216  PHE216      0.2264
    183  O          3.9680   29.4010   20.8400 O.2   216  PHE216     -0.2867
    184  CB         4.5380   26.7930   22.2850 C.3   216  PHE216      0.0534
    185  CG         5.2550   25.6380   22.9320 C.ar  216  PHE216     -0.0203
    186  CD1        6.1690   25.8540   23.9610 C.ar  216  PHE216     -0.0042
    187  CD2        5.0360   24.3320   22.5010 C.ar  216  PHE216     -0.0042
    188  CE1        6.8690   24.7850   24.5290 C.ar  216  PHE216     -0.0003
    189  CE2        5.7320   23.2640   23.0730 C.ar  216  PHE216     -0.0003
    190  CZ         6.6400   23.5000   24.0840 C.ar  216  PHE216     -0.0000
    191  N         -0.1610   25.1100   18.8530 N.3   220  LEU220     -0.1245
    192  CA         0.3730   24.1140   19.7810 C.3   220  LEU220      0.1561
    193  C         -0.0180   24.4720   21.2030 C.2   220  LEU220      0.2260
    194  O         -0.3290   23.5720   21.9740 O.2   220  LEU220     -0.2867
    195  CB         1.8940   24.0420   19.7030 C.3   220  LEU220      0.0270
    196  CG         2.5470   23.3180   18.5200 C.3   220  LEU220      0.0019
    197  CD1        3.8090   22.6320   18.9650 C.3   220  LEU220      0.0001
    198  CD2        1.6040   22.4370   17.7710 C.3   220  LEU220      0.0001
@<TRIPOS>BOND
     1    92    91    2
     2    90    91    1
     3    90    93    1
     4    90    89    1
     5    94    93    1
     6    94    95    1
     7    95    96    1
     8    96    97    2
     9    98    97    1
    10    97    99    1
    11   111   110    2
    12   110   109    1
    13    84    83    2
    14   108   109    1
    15   102   103    2
    16   102   101    1
    17    83    82    1
    18   109   112    1
    19    31    30    1
    20    46    44   am
    21    81    82    1
    22   100   101    1
    23    82    85    1
    24    43    44    1
    25    43    42    1
    26    41    40    2
    27    39    38    1
    28    39    42    1
    29    39    40    1
    30   101   104    1
    31    44    45    2
    32   112   113    1
    33    87    86    1
    34    32    30    1
    35    30    29    1
    36    85    86    1
    37    86    88    1
    38   104   105    1
    39    28    27    2
    40   113   115   ar
    41   113   114   ar
    42    29    26    1
    43   115   117   ar
    44    72    71    2
    45   107   105    1
    46    26    27    1
    47    26    25    1
    48    78    77    2
    49   105   106    1
    50    27    33   am
    51   114   116   ar
    52    77    76    1
    53    71    70    1
    54    71    75   am
    55    70    69    1
    56    70    73    1
    57   117   118   ar
    58   136   135    2
    59    36    35    2
    60    33    34    1
    61   116   118   ar
    62    75    76    1
    63    76    79    1
    64    74    73    1
    65    35    34    1
    66    34    37    1
    67   138   139    1
    68   138   137    1
    69   135   134    1
    70    16    14    1
    71   139   140    1
    72    79    80    1
    73    12    11    2
    74   137   134    1
    75   134   133    1
    76    50    49    2
    77    10     9    1
    78    10    11    1
    79    10    13    1
    80    14    13    1
    81    14    15    1
    82    11    17   am
    83   130   129    2
    84    20    19    2
    85    64    63    2
    86    19    18    1
    87    49    48    1
    88    49    61   am
    89    48    51    1
    90    48    47    1
    91    63    62    1
    92    17    18    1
    93   129   128    1
    94    51    52    1
    95   132   131    1
    96   131   128    1
    97    18    21    1
    98    57    59   ar
    99    57    54   ar
   100   128   127    1
   101    61    62    1
   102    62    65    1
   103   198   196    1
   104    59    60   ar
   105    52    54   ar
   106    52    53   ar
   107    54    56   ar
   108   196   197    1
   109   196   195    1
   110    21    22    1
   111     4     3    2
   112   147   146    1
   113   191   192    1
   114    67    66    1
   115    67    68    1
   116     1     2    1
   117     3     2    1
   118    65    66    1
   119    60    58   ar
   120     2     5    1
   121    53    55   ar
   122    23    22    2
   123   195   192    1
   124   192   193    1
   125    56    58   ar
   126    56    55   ar
   127    22    24   am
   128   148   146    1
   129   146   145    1
   130   182   183    2
   131   182   181    1
   132   125   126    1
   133   125   124    1
   134   122   121    2
   135     8     6    1
   136     5     6    1
   137   145   142    1
   138   181   180    1
   139   181   184    1
   140   193   194    2
   141   123   124    1
   142   123   120    1
   143   121   120    1
   144     6     7    1
   145   120   119    1
   146   184   185    1
   147   187   185   ar
   148   187   189   ar
   149   142   141    1
   150   142   143    1
   151   185   186   ar
   152   178   177    1
   153   189   190   ar
   154   165   164    1
   155   143   144    2
   156   175   174    1
   157   175   176    2
   158   164   161    1
   159   186   188   ar
   160   174   177    1
   161   174   173    1
   162   190   188   ar
   163   177   179    1
   164   158   156   ar
   165   158   159   ar
   166   156   154   ar
   167   161   160    1
   168   161   162    1
   169   159   157   ar
   170   160   151   am
   171   154   153    1
   172   154   155   ar
   173   153   150    1
   174   171   170    1
   175   162   163    2
   176   151   150    1
   177   151   152    2
   178   157   155   ar
   179   172   170    1
   180   170   167    1
   181   150   149    1
   182   168   167    1
   183   168   169    2
   184   167   166    1
