@<TRIPOS>MOLECULE
tmp/5mwzA00.pdb
 117 116 0 0 0
SMALL
GASTEIGER

@<TRIPOS>ATOM
      1  N        -20.1860   10.7690    4.4720 N.3    25  GLY25      -0.1210
      2  CA       -19.2750   10.1130    5.3950 C.3    25  GLY25       0.1956
      3  C        -18.5360   11.0480    6.3260 C.2    25  GLY25       0.2612
      4  O        -17.8030   10.5800    7.2050 O.2    25  GLY25      -0.2717
      5  N        -18.7060   12.3590    6.1390 N.am   26  ASN26      -0.1960
      6  CA       -18.0200   13.3780    6.9350 C.3    26  ASN26       0.1819
      7  C        -16.5010   13.2900    6.8250 C.2    26  ASN26       0.2621
      8  O        -15.7790   13.7470    7.7170 O.2    26  ASN26      -0.2715
      9  CB       -18.4950   13.3900    8.3930 C.3    26  ASN26       0.1195
     10  CG       -19.9070   13.9080    8.5250 C.2    26  ASN26       0.2630
     11  OD1      -20.3340   14.7600    7.7490 O.2    26  ASN26      -0.2716
     12  ND2      -20.6410   13.3960    9.5060 N.am   26  ASN26      -0.0877
     13  N        -15.9920   12.7570    5.7140 N.am   27  ILE27      -0.1963
     14  CA       -14.5480   12.5810    5.5960 C.3    27  ILE27       0.1727
     15  C        -13.8220   13.8930    5.3430 C.2    27  ILE27       0.2616
     16  O        -12.6040   13.9680    5.5610 O.2    27  ILE27      -0.2715
     17  CB       -14.1950   11.4850    4.5710 C.3    27  ILE27       0.0290
     18  CG1      -14.6750   11.8730    3.1740 C.3    27  ILE27       0.0022
     19  CG2      -14.7870   10.1460    4.9980 C.3    27  ILE27       0.0023
     20  CD1      -14.3130   10.8410    2.1060 C.3    27  ILE27       0.0001
     21  N        -14.5330   14.9210    4.8850 N.am   28  PHE28      -0.1974
     22  CA       -13.9580   16.2430    4.6680 C.3    28  PHE28       0.1639
     23  C        -14.3130   17.2200    5.7870 C.2    28  PHE28       0.2290
     24  O        -14.0610   18.4280    5.6570 O.2    28  PHE28      -0.2864
     25  CB       -14.3900   16.7930    3.3090 C.3    28  PHE28       0.0560
     26  CG       -14.0240   15.9010    2.1520 C.ar   28  PHE28      -0.0200
     27  CD1      -12.7010   15.7400    1.7700 C.ar   28  PHE28      -0.0042
     28  CD2      -14.9980   15.2140    1.4490 C.ar   28  PHE28      -0.0042
     29  CE1      -12.3620   14.9240    0.7060 C.ar   28  PHE28      -0.0003
     30  CE2      -14.6610   14.3860    0.3890 C.ar   28  PHE28      -0.0003
     31  CZ       -13.3400   14.2480    0.0230 C.ar   28  PHE28      -0.0000
     32  N         -9.7010   18.7940    9.4250 N.3    31  PRO31      -0.2102
     33  CA        -8.4190   18.7350    8.7110 C.3    31  PRO31       0.1504
     34  C         -7.9180   17.3020    8.5750 C.2    31  PRO31       0.2576
     35  O         -8.0600   16.4850    9.4870 O.2    31  PRO31      -0.2718
     36  CB        -7.4790   19.5570    9.6000 C.3    31  PRO31       0.0282
     37  CG        -8.3620   20.5170   10.3040 C.3    31  PRO31       0.0208
     38  CD        -9.6640   19.7820   10.5280 C.3    31  PRO31       0.0893
     39  N         -7.3210   17.0050    7.4280 N.am   32  VAL32      -0.1967
     40  CA        -6.5960   15.7510    7.2540 C.3    32  VAL32       0.1712
     41  C         -5.6190   15.6080    8.4150 C.2    32  VAL32       0.2458
     42  O         -4.8950   16.5650    8.7310 O.2    32  VAL32      -0.2730
     43  CB        -5.8790   15.7180    5.8950 C.3    32  VAL32       0.0289
     44  CG1       -4.9030   14.5440    5.8140 C.3    32  VAL32       0.0023
     45  CG2       -6.8940   15.6790    4.7570 C.3    32  VAL32       0.0023
     46  N         -5.5800   14.4530    9.0910 N.am   33  PRO33      -0.2727
     47  CA        -4.7380   14.3320   10.2900 C.3    33  PRO33       0.1402
     48  C         -3.2620   14.1860    9.9520 C.2    33  PRO33       0.2269
     49  O         -2.8020   13.1010    9.5770 O.2    33  PRO33      -0.2865
     50  CB        -5.2930   13.0790   10.9830 C.3    33  PRO33       0.0296
     51  CG        -5.8990   12.2840    9.8780 C.3    33  PRO33       0.0237
     52  CD        -6.4620   13.2850    8.9080 C.3    33  PRO33       0.0939
     53  N         -0.8770   11.3580   10.8670 N.3    36  GLU36      -0.1231
     54  CA        -0.9660   10.0970   10.1470 C.3    36  GLU36       0.1699
     55  C         -0.3250   10.1450    8.7670 C.2    36  GLU36       0.2592
     56  O         -0.0600    9.0840    8.1910 O.2    36  GLU36      -0.2718
     57  CB        -2.4350    9.6940    9.9880 C.3    36  GLU36       0.0402
     58  CG        -3.2530    9.7760   11.2680 C.3    36  GLU36       0.1161
     59  CD        -2.7140    8.8840   12.3690 C.2    36  GLU36       0.3649
     60  OE1       -2.4460    9.3970   13.4760 O.co2  36  GLU36      -0.2457
     61  OE2       -2.5630    7.6680   12.1270 O.co2  36  GLU36      -0.2457
     62  N         -0.0770   11.3320    8.2170 N.am   37  VAL37      -0.1980
     63  CA         0.4740   11.4600    6.8660 C.3    37  VAL37       0.1595
     64  C          1.6020   12.4840    6.8590 C.2    37  VAL37       0.2287
     65  O          1.4000   13.6300    6.4270 O.2    37  VAL37      -0.2864
     66  CB        -0.6120   11.7820    5.8220 C.3    37  VAL37       0.0276
     67  CG1       -1.3290   10.5110    5.3980 C.3    37  VAL37       0.0022
     68  CG2       -1.6010   12.8070    6.3580 C.3    37  VAL37       0.0022
     69  N          2.0640   14.5410    3.7030 N.3    40  TYR40      -0.1241
     70  CA         0.9370   15.2690    3.1240 C.3    40  TYR40       0.1605
     71  C          1.3510   16.6670    2.6810 C.2    40  TYR40       0.2264
     72  O          1.0540   17.0910    1.5560 O.2    40  TYR40      -0.2867
     73  CB        -0.2120   15.3330    4.1320 C.3    40  TYR40       0.0534
     74  CG        -1.5140   15.8400    3.5460 C.ar   40  TYR40      -0.0201
     75  CD1       -2.3120   15.0260    2.7350 C.ar   40  TYR40      -0.0009
     76  CD2       -1.9470   17.1370    3.7970 C.ar   40  TYR40      -0.0009
     77  CE1       -3.5040   15.4930    2.2020 C.ar   40  TYR40       0.0417
     78  CE2       -3.1360   17.6100    3.2690 C.ar   40  TYR40       0.0417
     79  CZ        -3.9020   16.7870    2.4710 C.ar   40  TYR40       0.1957
     80  OH        -5.0720   17.2860    1.9520 O.3    40  TYR40      -0.2866
     81  N         -7.5610   16.4590   -2.2890 N.3    79  CYS79      -0.1235
     82  CA        -7.8550   15.0420   -2.1430 C.3    79  CYS79       0.1677
     83  C         -7.5350   14.2900   -3.4270 C.2    79  CYS79       0.2270
     84  O         -6.9430   13.2050   -3.3900 O.2    79  CYS79      -0.2867
     85  CB        -9.3220   14.8700   -1.7440 C.3    79  CYS79       0.0956
     86  SG        -9.8520   13.1700   -1.5270 S.3    79  CYS79      -0.0801
     87  N         -3.6250   14.0170   -3.5720 N.3    82  TYR82      -0.1227
     88  CA        -2.9040   13.1480   -2.6530 C.3    82  TYR82       0.1736
     89  C         -3.2450   11.6710   -2.8430 C.2    82  TYR82       0.2595
     90  O         -2.3740   10.8110   -2.6710 O.2    82  TYR82      -0.2718
     91  CB        -3.1430   13.5760   -1.1990 C.3    82  TYR82       0.0548
     92  CG        -2.2610   12.8050   -0.2520 C.ar   82  TYR82      -0.0200
     93  CD1       -0.9250   13.1440   -0.0910 C.ar   82  TYR82      -0.0009
     94  CD2       -2.7460   11.7030    0.4360 C.ar   82  TYR82      -0.0009
     95  CE1       -0.0980   12.4170    0.7470 C.ar   82  TYR82       0.0417
     96  CE2       -1.9300   10.9690    1.2760 C.ar   82  TYR82       0.0417
     97  CZ        -0.6100   11.3330    1.4260 C.ar   82  TYR82       0.1957
     98  OH         0.2040   10.5950    2.2570 O.3    82  TYR82      -0.2866
     99  N         -4.4940   11.3500   -3.1740 N.am   83  ASN83      -0.1974
    100  CA        -4.9880    9.9790   -3.1130 C.3    83  ASN83       0.1688
    101  C         -5.0200    9.3290   -4.4880 C.2    83  ASN83       0.2292
    102  O         -5.2870    9.9870   -5.4970 O.2    83  ASN83      -0.2864
    103  CB        -6.3770    9.9600   -2.4830 C.3    83  ASN83       0.1181
    104  CG        -6.3460   10.4610   -1.0630 C.2    83  ASN83       0.2629
    105  OD1       -5.9520    9.7320   -0.1460 O.2    83  ASN83      -0.2716
    106  ND2       -6.7090   11.7220   -0.8700 N.am   83  ASN83      -0.0877
    107  N        -11.5430    7.5680   -1.3170 N.3    89  PHE89      -0.1241
    108  CA       -11.3120    8.9940   -1.0640 C.3    89  PHE89       0.1605
    109  C        -11.2840    9.7910   -2.3670 C.2    89  PHE89       0.2264
    110  O        -11.9510   10.8210   -2.4920 O.2    89  PHE89      -0.2867
    111  CB        -9.9930    9.2200   -0.3270 C.3    89  PHE89       0.0534
    112  CG       -10.0280    8.9230    1.1500 C.ar   89  PHE89      -0.0203
    113  CD1      -11.1940    8.5540    1.8210 C.ar   89  PHE89      -0.0042
    114  CD2       -8.8500    9.0090    1.8720 C.ar   89  PHE89      -0.0042
    115  CE1      -11.1610    8.2940    3.1930 C.ar   89  PHE89      -0.0003
    116  CE2       -8.8160    8.7440    3.2240 C.ar   89  PHE89      -0.0003
    117  CZ        -9.9750    8.3910    3.8870 C.ar   89  PHE89      -0.0000
@<TRIPOS>BOND
     1   102   101    2
     2   101   100    1
     3    87    88    1
     4    83    84    2
     5    83    82    1
     6    99   100    1
     7    99    89   am
     8   100   103    1
     9    89    90    2
    10    89    88    1
    11    88    91    1
    12   110   109    2
    13   103   104    1
    14   109   108    1
    15    81    82    1
    16    82    85    1
    17    85    86    1
    18   107   108    1
    19    91    92    1
    20   108   111    1
    21   104   106   am
    22   104   105    2
    23   111   112    1
    24    92    93   ar
    25    92    94   ar
    26    93    95   ar
    27    31    30   ar
    28    31    29   ar
    29    30    28   ar
    30    94    96   ar
    31    29    27   ar
    32    95    97   ar
    33   112   113   ar
    34   112   114   ar
    35    96    97   ar
    36    97    98    1
    37    28    26   ar
    38    72    71    2
    39    27    26   ar
    40   113   115   ar
    41   114   116   ar
    42    80    79    1
    43    20    18    1
    44    26    25    1
    45    77    79   ar
    46    77    75   ar
    47    79    78   ar
    48    71    70    1
    49    75    74   ar
    50    70    69    1
    51    70    73    1
    52    18    17    1
    53   115   117   ar
    54   116   117   ar
    55    78    76   ar
    56    25    22    1
    57    74    76   ar
    58    74    73    1
    59     1     2    1
    60    17    19    1
    61    17    14    1
    62    22    21    1
    63    22    23    1
    64    45    43    1
    65    21    15   am
    66    15    16    2
    67    15    14    1
    68     2     3    1
    69    67    66    1
    70    14    13    1
    71    24    23    2
    72    13     7   am
    73    44    43    1
    74    66    68    1
    75    66    63    1
    76    43    40    1
    77     5     3   am
    78     5     6    1
    79     3     4    2
    80    65    64    2
    81     7     6    1
    82     7     8    2
    83    64    63    1
    84    63    62    1
    85     6     9    1
    86    40    39    1
    87    40    41    1
    88    39    34   am
    89    11    10    2
    90    56    55    2
    91    62    55   am
    92     9    10    1
    93    41    42    2
    94    41    46   am
    95    10    12   am
    96    34    33    1
    97    34    35    2
    98    33    32    1
    99    33    36    1
   100    55    54    1
   101    52    46    1
   102    52    51    1
   103    46    47    1
   104    32    38    1
   105    49    48    2
   106    36    37    1
   107    51    50    1
   108    48    47    1
   109    57    54    1
   110    57    58    1
   111    54    53    1
   112    47    50    1
   113    37    38    1
   114    58    59    1
   115    61    59   ar
   116    59    60   ar
