@<TRIPOS>MOLECULE
tmp/5mx0B03.pdb
 85 81 0 0 0
SMALL
GASTEIGER

@<TRIPOS>ATOM
      1  N        -43.2610   28.1630  137.7540 N.3   195  ARG195     -0.1245
      2  CA       -43.7490   29.3460  137.0480 C.3   195  ARG195      0.1563
      3  C        -45.1360   29.1080  136.4490 C.2   195  ARG195      0.2260
      4  O        -45.8040   30.0500  136.0240 O.2   195  ARG195     -0.2867
      5  CB       -42.7650   29.7630  135.9540 C.3   195  ARG195      0.0307
      6  CG       -41.4320   30.2670  136.4920 C.3   195  ARG195      0.0489
      7  CD       -40.5530   30.8340  135.3880 C.3   195  ARG195      0.2205
      8  NE       -39.2220   31.1940  135.8760 N.pl3 195  ARG195     -0.0865
      9  CZ       -38.9290   32.3310  136.5030 C.cat 195  ARG195      0.5346
     10  NH1      -39.8720   33.2360  136.7340 N.pl3 195  ARG195      0.1354
     11  NH2      -37.6870   32.5630  136.9060 N.pl3 195  ARG195      0.1354
     12  N        -31.1220   25.6730  137.8560 N.3   217  SER217     -0.1202
     13  CA       -30.7800   26.8780  138.6040 C.3   217  SER217      0.2020
     14  C        -32.0010   27.7420  138.9240 C.2   217  SER217      0.2618
     15  O        -32.0350   28.4090  139.9590 O.2   217  SER217     -0.2717
     16  CB       -29.7530   27.7060  137.8270 C.3   217  SER217      0.2103
     17  OG       -28.5410   26.9890  137.6660 O.3   217  SER217     -0.2182
     18  N        -32.9980   27.7250  138.0420 N.am  218  ASN218     -0.1974
     19  CA       -34.1800   28.5710  138.2030 C.3   218  ASN218      0.1688
     20  C        -35.3820   27.8380  138.8000 C.2   218  ASN218      0.2292
     21  O        -36.4690   28.4090  138.9030 O.2   218  ASN218     -0.2864
     22  CB       -34.5780   29.1820  136.8520 C.3   218  ASN218      0.1181
     23  CG       -34.9310   28.1340  135.8040 C.2   218  ASN218      0.2629
     24  OD1      -35.1030   26.9540  136.1110 O.2   218  ASN218     -0.2716
     25  ND2      -35.0480   28.5710  134.5550 N.am  218  ASN218     -0.0877
     26  N        -36.8560   29.5880  141.7370 N.3   221  ASN221     -0.1240
     27  CA       -36.9690   31.0320  141.5480 C.3   221  ASN221      0.1653
     28  C        -38.3810   31.3860  141.0790 C.2   221  ASN221      0.2266
     29  O        -38.6900   31.3130  139.8890 O.2   221  ASN221     -0.2867
     30  CB       -35.9200   31.5340  140.5450 C.3   221  ASN221      0.1155
     31  CG       -35.7640   33.0520  140.5610 C.2   221  ASN221      0.2627
     32  OD1      -36.6410   33.7750  141.0340 O.2   221  ASN221     -0.2716
     33  ND2      -34.6370   33.5400  140.0360 N.am  221  ASN221     -0.0877
     34  N        -30.8470   28.5820  144.3020 N.3   240  PRO240     -0.2102
     35  CA       -31.2440   29.9840  144.1040 C.3   240  PRO240      0.1504
     36  C        -32.7340   30.2430  144.3230 C.2   240  PRO240      0.2576
     37  O        -33.5640   29.3880  144.0090 O.2   240  PRO240     -0.2718
     38  CB       -30.8640   30.2510  142.6450 C.3   240  PRO240      0.0282
     39  CG       -29.7770   29.2950  142.3580 C.3   240  PRO240      0.0208
     40  CD       -30.1000   28.0630  143.1420 C.3   240  PRO240      0.0893
     41  N        -33.0580   31.4210  144.8520 N.am  241  VAL241     -0.1966
     42  CA       -34.4380   31.7830  145.1550 C.3   241  VAL241      0.1727
     43  C        -34.7550   33.2130  144.7300 C.2   241  VAL241      0.2616
     44  O        -33.8540   34.0200  144.4970 O.2   241  VAL241     -0.2715
     45  CB       -34.7380   31.6330  146.6620 C.3   241  VAL241      0.0290
     46  CG1      -34.6120   30.1770  147.0830 C.3   241  VAL241      0.0023
     47  CG2      -33.8090   32.5160  147.4900 C.3   241  VAL241      0.0023
     48  N        -36.0460   33.5140  144.6350 N.am  242  ASN242     -0.1972
     49  CA       -36.5160   34.8510  144.2980 C.3   242  ASN242      0.1688
     50  C        -36.3680   35.7860  145.4950 C.2   242  ASN242      0.2292
     51  O        -36.3080   35.3320  146.6380 O.2   242  ASN242     -0.2864
     52  CB       -37.9760   34.7960  143.8400 C.3   242  ASN242      0.1181
     53  CG       -38.4260   36.0700  143.1520 C.2   242  ASN242      0.2629
     54  OD1      -38.8190   37.0370  143.8030 O.2   242  ASN242     -0.2716
     55  ND2      -38.3840   36.0700  141.8260 N.am  242  ASN242     -0.0877
     56  N        -24.9210   34.8190  146.2450 N.3   261  SER261     -0.1202
     57  CA       -25.4520   34.8120  144.8860 C.3   261  SER261      0.2020
     58  C        -26.7220   33.9690  144.7500 C.2   261  SER261      0.2619
     59  O        -27.4340   34.0710  143.7510 O.2   261  SER261     -0.2717
     60  CB       -24.3870   34.3040  143.9120 C.3   261  SER261      0.2103
     61  OG       -23.8290   33.0800  144.3580 O.3   261  SER261     -0.2182
     62  N        -27.0050   33.1360  145.7480 N.am  262  SER262     -0.1937
     63  CA       -28.2250   32.3360  145.7450 C.3   262  SER262      0.2055
     64  C        -29.4520   33.1930  146.0470 C.2   262  SER262      0.2643
     65  O        -30.5740   32.8300  145.6930 O.2   262  SER262     -0.2714
     66  CB       -28.1240   31.1960  146.7600 C.3   262  SER262      0.2130
     67  OG       -27.2500   30.1790  146.3010 O.3   262  SER262     -0.2179
     68  N        -29.2290   34.3330  146.6950 N.am  263  PHE263     -0.1973
     69  CA       -30.3150   35.2260  147.0850 C.3   263  PHE263      0.1639
     70  C        -30.4130   36.4380  146.1630 C.2   263  PHE263      0.2290
     71  O        -31.5120   36.8690  145.8110 O.2   263  PHE263     -0.2864
     72  CB       -30.1230   35.6880  148.5300 C.3   263  PHE263      0.0560
     73  CG       -29.9940   34.5600  149.5110 C.ar  263  PHE263     -0.0200
     74  CD1      -31.1140   33.8630  149.9370 C.ar  263  PHE263     -0.0042
     75  CD2      -28.7530   34.1950  150.0090 C.ar  263  PHE263     -0.0042
     76  CE1      -30.9980   32.8230  150.8410 C.ar  263  PHE263     -0.0003
     77  CE2      -28.6310   33.1580  150.9120 C.ar  263  PHE263     -0.0003
     78  CZ       -29.7560   32.4710  151.3290 C.ar  263  PHE263     -0.0000
     79  N        -28.6560   38.1330  142.5960 N.3   265  THR265     -0.1218
     80  CA       -27.7660   38.1580  141.4420 C.3   265  THR265      0.1862
     81  C        -27.1320   39.5400  141.3410 C.2   265  THR265      0.2287
     82  O        -25.9450   39.6720  141.0420 O.2   265  THR265     -0.2866
     83  CB       -28.5100   37.8260  140.1330 C.3   265  THR265      0.1770
     84  OG1      -29.1810   36.5670  140.2660 O.3   265  THR265     -0.2211
     85  CG2      -27.5390   37.7550  138.9620 C.3   265  THR265      0.0375
@<TRIPOS>BOND
     1    25    23   am
     2     7     8    1
     3     7     6    1
     4    23    24    2
     5    23    22    1
     6     8     9    2
     7     5     6    1
     8     5     2    1
     9     4     3    2
    10     3     2    1
    11     9    10    1
    12     9    11    1
    13    22    19    1
    14     2     1    1
    15    17    16    1
    16    16    13    1
    17    12    13    1
    18    18    19    1
    19    18    14   am
    20    19    20    1
    21    13    14    1
    22    20    21    2
    23    14    15    2
    24    85    83    1
    25    29    28    2
    26    33    31   am
    27    83    84    1
    28    83    80    1
    29    30    31    1
    30    30    27    1
    31    31    32    2
    32    82    81    2
    33    28    27    1
    34    81    80    1
    35    80    79    1
    36    27    26    1
    37    55    53   am
    38    39    38    1
    39    39    40    1
    40    38    35    1
    41    40    34    1
    42    53    54    2
    43    53    52    1
    44    59    58    2
    45    52    49    1
    46    60    61    1
    47    60    57    1
    48    37    36    2
    49    35    34    1
    50    35    36    1
    51    49    48    1
    52    49    50    1
    53    36    41   am
    54    44    43    2
    55    48    43   am
    56    43    42    1
    57    58    57    1
    58    58    62   am
    59    41    42    1
    60    57    56    1
    61    42    45    1
    62    50    51    2
    63    65    64    2
    64    63    62    1
    65    63    64    1
    66    63    66    1
    67    71    70    2
    68    64    68   am
    69    70    69    1
    70    67    66    1
    71    45    46    1
    72    45    47    1
    73    68    69    1
    74    69    72    1
    75    72    73    1
    76    73    74   ar
    77    73    75   ar
    78    74    76   ar
    79    75    77   ar
    80    76    78   ar
    81    77    78   ar
