@<TRIPOS>MOLECULE
tmp/5mx2C10.pdb
 84 82 0 0 0
SMALL
GASTEIGER

@<TRIPOS>ATOM
      1  N        -45.4550   70.5290  -49.7210 N.3    35  VAL35      -0.1245
      2  CA       -46.3450   70.7930  -50.8480 C.3    35  VAL35       0.1561
      3  C        -45.5980   71.5290  -51.9470 C.2    35  VAL35       0.2260
      4  O        -45.8200   71.2810  -53.1380 O.2    35  VAL35      -0.2867
      5  CB       -47.5890   71.5760  -50.3750 C.3    35  VAL35       0.0252
      6  CG1      -48.5300   71.8550  -51.5230 C.3    35  VAL35       0.0019
      7  CG2      -48.3310   70.8150  -49.2960 C.3    35  VAL35       0.0019
      8  N        -54.7770   59.3780  -63.8790 N.3    71  TRP71      -0.1241
      9  CA       -54.7160   60.6210  -64.6290 C.3    71  TRP71       0.1605
     10  C        -53.5770   60.5610  -65.6370 C.2    71  TRP71       0.2264
     11  O        -52.4360   60.2800  -65.2730 O.2    71  TRP71      -0.2867
     12  CB       -54.5120   61.8040  -63.6900 C.3    71  TRP71       0.0550
     13  CG       -55.7440   62.3020  -63.0360 C.ar   71  TRP71       0.0003
     14  CD1      -56.9070   62.6470  -63.6490 C.ar   71  TRP71       0.0946
     15  CD2      -55.9380   62.5500  -61.6400 C.ar   71  TRP71       0.0152
     16  NE1      -57.8140   63.0810  -62.7250 N.ar   71  TRP71      -0.2442
     17  CE2      -57.2440   63.0310  -61.4820 C.ar   71  TRP71       0.0810
     18  CE3      -55.1340   62.4080  -60.5100 C.ar   71  TRP71       0.0012
     19  CZ2      -57.7680   63.3680  -60.2440 C.ar   71  TRP71       0.0191
     20  CZ3      -55.6570   62.7450  -59.2800 C.ar   71  TRP71       0.0001
     21  CH2      -56.9610   63.2190  -59.1570 C.ar   71  TRP71       0.0015
     22  N        -51.6140   67.1560  -69.5280 N.3    83  PHE83      -0.1228
     23  CA       -52.1850   68.2840  -68.8040 C.3    83  PHE83       0.1721
     24  C        -52.5660   67.9450  -67.3660 C.2    83  PHE83       0.2437
     25  O        -52.4480   68.8080  -66.4940 O.2    83  PHE83      -0.2733
     26  CB       -53.3980   68.8480  -69.5410 C.3    83  PHE83       0.0547
     27  CG       -53.7820   70.2210  -69.0840 C.ar   83  PHE83      -0.0202
     28  CD1      -53.1050   71.3320  -69.5520 C.ar   83  PHE83      -0.0042
     29  CD2      -54.7990   70.4030  -68.1670 C.ar   83  PHE83      -0.0042
     30  CE1      -53.4440   72.5960  -69.1250 C.ar   83  PHE83      -0.0003
     31  CE2      -55.1430   71.6640  -67.7420 C.ar   83  PHE83      -0.0003
     32  CZ       -54.4620   72.7610  -68.2200 C.ar   83  PHE83      -0.0000
     33  N        -53.0360   66.7360  -67.0590 N.am   84  PRO84      -0.2729
     34  CA       -53.2760   66.4210  -65.6460 C.3    84  PRO84       0.1401
     35  C        -52.0200   66.4390  -64.7890 C.2    84  PRO84       0.2269
     36  O        -52.1080   66.7950  -63.6100 O.2    84  PRO84      -0.2865
     37  CB       -53.9060   65.0250  -65.7020 C.3    84  PRO84       0.0296
     38  CG       -54.5250   64.9510  -67.0190 C.3    84  PRO84       0.0237
     39  CD       -53.6130   65.7010  -67.9320 C.3    84  PRO84       0.0939
     40  N        -51.5170   70.1320  -63.9550 N.3    87  VAL87      -0.1231
     41  CA       -52.4130   70.6640  -62.9340 C.3    87  VAL87       0.1692
     42  C        -51.9180   70.2780  -61.5510 C.2    87  VAL87       0.2591
     43  O        -51.8570   71.1100  -60.6440 O.2    87  VAL87      -0.2718
     44  CB       -53.8600   70.1860  -63.1670 C.3    87  VAL87       0.0266
     45  CG1      -54.7510   70.6030  -62.0100 C.3    87  VAL87       0.0020
     46  CG2      -54.4030   70.7440  -64.4560 C.3    87  VAL87       0.0020
     47  N        -51.5550   69.0070  -61.3730 N.am   88  VAL88      -0.1980
     48  CA       -51.1690   68.5250  -60.0500 C.3    88  VAL88       0.1595
     49  C        -49.9980   69.3300  -59.5110 C.2    88  VAL88       0.2287
     50  O        -49.9360   69.6350  -58.3150 O.2    88  VAL88      -0.2864
     51  CB       -50.8460   67.0220  -60.0950 C.3    88  VAL88       0.0276
     52  CG1      -50.3820   66.5550  -58.7370 C.3    88  VAL88       0.0022
     53  CG2      -52.0530   66.2310  -60.5230 C.3    88  VAL88       0.0022
     54  N        -51.1600   73.2210  -58.8070 N.3    91  VAL91      -0.1231
     55  CA       -52.0550   73.3920  -57.6680 C.3    91  VAL91       0.1692
     56  C        -51.2940   73.2090  -56.3660 C.2    91  VAL91       0.2592
     57  O        -51.4430   74.0000  -55.4280 O.2    91  VAL91      -0.2718
     58  CB       -53.2600   72.4330  -57.7680 C.3    91  VAL91       0.0266
     59  CG1      -54.1660   72.5740  -56.5520 C.3    91  VAL91       0.0020
     60  CG2      -54.0470   72.7040  -59.0300 C.3    91  VAL91       0.0020
     61  N        -50.4810   72.1550  -56.2830 N.am   92  HIS92      -0.1976
     62  CA       -49.6090   71.9880  -55.1270 C.3    92  HIS92       0.1656
     63  C        -48.7160   73.2110  -54.9510 C.2    92  HIS92       0.2291
     64  O        -48.6210   73.7760  -53.8590 O.2    92  HIS92      -0.2864
     65  CB       -48.7660   70.7210  -55.2740 C.3    92  HIS92       0.0771
     66  CG       -49.4000   69.4760  -54.7240 C.ar   92  HIS92       0.0820
     67  ND1      -49.9880   68.5240  -55.5300 N.ar   92  HIS92      -0.2267
     68  CD2      -49.4910   69.0020  -53.4580 C.ar   92  HIS92       0.1154
     69  CE1      -50.4310   67.5290  -54.7840 C.ar   92  HIS92       0.1986
     70  NE2      -50.1460   67.7940  -53.5210 N.ar   92  HIS92      -0.2212
     71  N        -50.7030   76.1120  -53.7410 N.3    95  SER95      -0.1217
     72  CA       -51.1410   75.9160  -52.3660 C.3    95  SER95       0.1889
     73  C        -50.0010   76.1590  -51.3890 C.2    95  SER95       0.2288
     74  O        -50.2110   76.7130  -50.3050 O.2    95  SER95      -0.2866
     75  CB       -51.6970   74.5070  -52.1910 C.3    95  SER95       0.2089
     76  OG       -52.5100   74.1440  -53.2820 O.3    95  SER95      -0.2183
     77  N        -49.8460   77.9090  -47.6780 N.3    99  LEU99      -0.1245
     78  CA       -49.3220   77.3120  -46.4580 C.3    99  LEU99       0.1561
     79  C        -48.1170   78.0870  -45.9470 C.2    99  LEU99       0.2260
     80  O        -47.9650   78.2810  -44.7370 O.2    99  LEU99      -0.2867
     81  CB       -48.9720   75.8470  -46.6970 C.3    99  LEU99       0.0270
     82  CG       -50.1370   74.8650  -46.7810 C.3    99  LEU99       0.0019
     83  CD1      -49.6510   73.4690  -47.0770 C.3    99  LEU99       0.0001
     84  CD2      -50.8920   74.8820  -45.4860 C.3    99  LEU99       0.0001
@<TRIPOS>BOND
     1    28    30   ar
     2    28    27   ar
     3    26    27    1
     4    26    23    1
     5    22    23    1
     6    30    32   ar
     7    27    29   ar
     8    23    24    1
     9    32    31   ar
    10    29    31   ar
    11    39    33    1
    12    39    38    1
    13    24    33   am
    14    24    25    2
    15    33    34    1
    16    38    37    1
    17    37    34    1
    18    34    35    1
    19    10    11    2
    20    10     9    1
    21    35    36    2
    22     9     8    1
    23     9    12    1
    24    46    44    1
    25    40    41    1
    26    12    13    1
    27    14    13   ar
    28    14    16   ar
    29    44    41    1
    30    44    45    1
    31    13    15   ar
    32    41    42    1
    33    16    17   ar
    34    15    17   ar
    35    15    18   ar
    36    42    47   am
    37    42    43    2
    38    17    19   ar
    39    47    48    1
    40    53    51    1
    41    18    20   ar
    42    19    21   ar
    43    51    48    1
    44    51    52    1
    45    48    49    1
    46    49    50    2
    47    20    21   ar
    48    60    58    1
    49    54    55    1
    50    58    55    1
    51    58    59    1
    52    55    56    1
    53    56    61   am
    54    56    57    2
    55    61    62    1
    56    67    69   ar
    57    67    66   ar
    58    65    62    1
    59    65    66    1
    60    62    63    1
    61    63    64    2
    62    69    70   ar
    63    66    68   ar
    64    71    72    1
    65    70    68   ar
    66    76    75    1
    67     4     3    2
    68    72    75    1
    69    72    73    1
    70     3     2    1
    71     6     5    1
    72    73    74    2
    73     2     5    1
    74     2     1    1
    75     5     7    1
    76    77    78    1
    77    83    82    1
    78    82    81    1
    79    82    84    1
    80    81    78    1
    81    78    79    1
    82    79    80    2
