@<TRIPOS>MOLECULE
tmp/5mx2C11.pdb
 113 113 0 0 0
SMALL
GASTEIGER

@<TRIPOS>ATOM
      1  N        -65.3960   46.9710  -54.5870 N.3   176  PRO176     -0.2116
      2  CA       -64.3390   46.8790  -53.5790 C.3   176  PRO176      0.1372
      3  C        -64.5550   45.6970  -52.6590 C.2   176  PRO176      0.2244
      4  O        -65.6800   45.2860  -52.3920 O.2   176  PRO176     -0.2868
      5  CB       -64.4520   48.2070  -52.8190 C.3   176  PRO176      0.0268
      6  CG       -65.7060   48.8300  -53.2700 C.3   176  PRO176      0.0207
      7  CD       -65.9720   48.3190  -54.6340 C.3   176  PRO176      0.0892
      8  N        -64.9390   44.0850  -49.3030 N.3   178  LEU178     -0.1231
      9  CA       -65.2540   44.4760  -47.9460 C.3   178  LEU178      0.1693
     10  C        -65.1390   43.3320  -46.9600 C.2   178  LEU178      0.2592
     11  O        -65.0490   43.5860  -45.7590 O.2   178  LEU178     -0.2718
     12  CB       -66.6630   45.0800  -47.8810 C.3   178  LEU178      0.0284
     13  CG       -66.9790   46.1520  -48.9280 C.3   178  LEU178      0.0019
     14  CD1      -68.4460   46.5310  -48.8860 C.3   178  LEU178      0.0001
     15  CD2      -66.1470   47.3680  -48.7260 C.3   178  LEU178      0.0001
     16  N        -65.1180   42.0990  -47.4400 N.am  179  ASP179     -0.1960
     17  CA       -64.9450   40.8950  -46.6430 C.3   179  ASP179      0.1825
     18  C        -63.7930   41.0700  -45.6630 C.2   179  ASP179      0.2464
     19  O        -62.6250   41.0910  -46.0660 O.2   179  ASP179     -0.2730
     20  CB       -64.6980   39.6990  -47.5630 C.3   179  ASP179      0.1450
     21  CG       -64.6660   38.3860  -46.8320 C.2   179  ASP179      0.3671
     22  OD1      -64.6010   38.3690  -45.5940 O.co2 179  ASP179     -0.2456
     23  OD2      -64.6870   37.3550  -47.5190 O.co2 179  ASP179     -0.2456
     24  N        -64.0800   41.1930  -44.3710 N.am  180  PRO180     -0.2715
     25  CA       -62.9930   41.3780  -43.4040 C.3   180  PRO180      0.1536
     26  C        -62.0010   40.2320  -43.3990 C.2   180  PRO180      0.2598
     27  O        -60.8570   40.4220  -42.9900 O.2   180  PRO180     -0.2715
     28  CB       -63.7270   41.4930  -42.0620 C.3   180  PRO180      0.0310
     29  CG       -65.1480   41.7620  -42.4170 C.3   180  PRO180      0.0237
     30  CD       -65.3950   41.1240  -43.7270 C.3   180  PRO180      0.0939
     31  N        -62.4080   39.0400  -43.8320 N.am  181  ARG181     -0.1978
     32  CA       -61.4850   37.9180  -43.8500 C.3   181  ARG181      0.1597
     33  C        -60.4000   38.1130  -44.9040 C.2   181  ARG181      0.2287
     34  O        -59.3060   37.5600  -44.7700 O.2   181  ARG181     -0.2864
     35  CB       -62.2520   36.6090  -44.0670 C.3   181  ARG181      0.0334
     36  CG       -63.3360   36.3360  -42.9990 C.3   181  ARG181      0.0492
     37  CD       -64.3870   35.3550  -43.4740 C.3   181  ARG181      0.2205
     38  NE       -64.7670   35.6400  -44.8490 N.pl3 181  ARG181     -0.0865
     39  CZ       -65.8350   35.1480  -45.4610 C.cat 181  ARG181      0.5346
     40  NH1      -66.0750   35.4710  -46.7210 N.pl3 181  ARG181      0.1354
     41  NH2      -66.6610   34.3470  -44.8170 N.pl3 181  ARG181      0.1354
     42  N        -58.5400   42.1790  -43.5310 N.3   184  PHE184     -0.1241
     43  CA       -57.6780   41.9620  -42.3840 C.3   184  PHE184      0.1605
     44  C        -56.9070   40.6500  -42.4640 C.2   184  PHE184      0.2264
     45  O        -56.0850   40.3820  -41.5900 O.2   184  PHE184     -0.2867
     46  CB       -58.4850   42.0170  -41.0930 C.3   184  PHE184      0.0534
     47  CG       -59.1170   43.3490  -40.8320 C.ar  184  PHE184     -0.0203
     48  CD1      -60.3850   43.6340  -41.2960 C.ar  184  PHE184     -0.0042
     49  CD2      -58.4550   44.3130  -40.1120 C.ar  184  PHE184     -0.0042
     50  CE1      -60.9640   44.8520  -41.0450 C.ar  184  PHE184     -0.0003
     51  CE2      -59.0360   45.5310  -39.8640 C.ar  184  PHE184     -0.0003
     52  CZ       -60.2820   45.7980  -40.3280 C.ar  184  PHE184     -0.0000
     53  N        -61.6180   51.9010  -47.8370 N.3   212  ILE212     -0.1231
     54  CA       -62.9470   52.0890  -47.2600 C.3   212  ILE212      0.1692
     55  C        -62.9110   51.7300  -45.7890 C.2   212  ILE212      0.2592
     56  O        -63.5010   52.4130  -44.9480 O.2   212  ILE212     -0.2718
     57  CB       -64.0000   51.2480  -48.0160 C.3   212  ILE212      0.0266
     58  CG1      -64.5090   51.9700  -49.2550 C.3   212  ILE212      0.0019
     59  CG2      -65.1440   50.9110  -47.1180 C.3   212  ILE212      0.0020
     60  CD1      -64.8830   51.0440  -50.3620 C.3   212  ILE212      0.0001
     61  N        -62.1660   50.6800  -45.4550 N.am  213  TRP213     -0.1976
     62  CA       -62.1530   50.1750  -44.0930 C.3   213  TRP213      0.1640
     63  C        -61.3900   51.0980  -43.1510 C.2   213  TRP213      0.2290
     64  O        -61.8810   51.4190  -42.0640 O.2   213  TRP213     -0.2864
     65  CB       -61.5670   48.7720  -44.0780 C.3   213  TRP213      0.0576
     66  CG       -62.5900   47.7000  -43.9820 C.ar  213  TRP213      0.0006
     67  CD1      -63.1160   46.9750  -44.9980 C.ar  213  TRP213      0.0946
     68  CD2      -63.1950   47.2230  -42.7920 C.ar  213  TRP213      0.0152
     69  NE1      -64.0050   46.0730  -44.5140 N.ar  213  TRP213     -0.2442
     70  CE2      -64.0770   46.2080  -43.1560 C.ar  213  TRP213      0.0810
     71  CE3      -63.0740   47.5590  -41.4480 C.ar  213  TRP213      0.0012
     72  CZ2      -64.8420   45.5280  -42.2300 C.ar  213  TRP213      0.0191
     73  CZ3      -63.8200   46.8810  -40.5330 C.ar  213  TRP213      0.0001
     74  CH2      -64.6990   45.8780  -40.9220 C.ar  213  TRP213      0.0015
     75  N        -63.2030   54.3290  -42.6790 N.3   216  LEU216     -0.1231
     76  CA       -64.2190   54.2770  -41.6330 C.3   216  LEU216      0.1693
     77  C        -63.5940   54.1170  -40.2560 C.2   216  LEU216      0.2591
     78  O        -64.0260   54.7670  -39.3010 O.2   216  LEU216     -0.2718
     79  CB       -65.2280   53.1570  -41.9000 C.3   216  LEU216      0.0284
     80  CG       -66.1410   53.3100  -43.1240 C.3   216  LEU216      0.0019
     81  CD1      -67.1660   52.2110  -43.1900 C.3   216  LEU216      0.0001
     82  CD2      -66.8020   54.6560  -43.1210 C.3   216  LEU216      0.0001
     83  N        -62.5820   53.2540  -40.1270 N.am  217  ILE217     -0.1980
     84  CA       -61.9440   53.0500  -38.8300 C.3   217  ILE217      0.1595
     85  C        -61.4170   54.3700  -38.2830 C.2   217  ILE217      0.2287
     86  O        -61.5630   54.6700  -37.0940 O.2   217  ILE217     -0.2864
     87  CB       -60.8360   51.9880  -38.9480 C.3   217  ILE217      0.0276
     88  CG1      -61.4450   50.6000  -39.1120 C.3   217  ILE217      0.0022
     89  CG2      -59.9120   52.0090  -37.7390 C.3   217  ILE217      0.0022
     90  CD1      -60.4420   49.5410  -39.4550 C.3   217  ILE217      0.0001
     91  N        -64.2080   56.8870  -37.0640 N.3   220  ALA220     -0.1231
     92  CA       -64.7610   56.4010  -35.8120 C.3   220  ALA220      0.1694
     93  C        -63.8150   56.6620  -34.6570 C.2   220  ALA220      0.2592
     94  O        -64.2240   57.1710  -33.6100 O.2   220  ALA220     -0.2718
     95  CB       -65.0790   54.9180  -35.9260 C.3   220  ALA220      0.0304
     96  N        -62.5370   56.3180  -34.8280 N.am  221  GLY221     -0.1957
     97  CA       -61.5740   56.5730  -33.7740 C.3   221  GLY221      0.1869
     98  C        -61.4120   58.0500  -33.4900 C.2   221  GLY221      0.2309
     99  O        -61.2650   58.4580  -32.3390 O.2   221  GLY221     -0.2863
    100  N        -64.2440   58.8580  -31.4060 N.3   224  TRP224     -0.1241
    101  CA       -63.9930   58.2590  -30.0990 C.3   224  TRP224      0.1605
    102  C        -62.9870   59.0650  -29.2780 C.2   224  TRP224      0.2264
    103  O        -63.1240   59.1700  -28.0550 O.2   224  TRP224     -0.2867
    104  CB       -63.5140   56.8190  -30.2720 C.3   224  TRP224      0.0550
    105  CG       -62.7170   56.3020  -29.1150 C.ar  224  TRP224      0.0003
    106  CD1      -61.3650   56.4000  -28.9420 C.ar  224  TRP224      0.0946
    107  CD2      -63.2120   55.6050  -27.9750 C.ar  224  TRP224      0.0152
    108  NE1      -60.9950   55.8190  -27.7620 N.ar  224  TRP224     -0.2442
    109  CE2      -62.1110   55.3170  -27.1510 C.ar  224  TRP224      0.0810
    110  CE3      -64.4780   55.1970  -27.5670 C.ar  224  TRP224      0.0012
    111  CZ2      -62.2420   54.6430  -25.9510 C.ar  224  TRP224      0.0191
    112  CZ3      -64.6000   54.5280  -26.3820 C.ar  224  TRP224      0.0001
    113  CH2      -63.4950   54.2620  -25.5830 C.ar  224  TRP224      0.0015
@<TRIPOS>BOND
     1     7     1    1
     2     7     6    1
     3     1     2    1
     4     2     5    1
     5     2     3    1
     6     6     5    1
     7     3     4    2
     8    60    58    1
     9     8     9    1
    10    58    57    1
    11    13    14    1
    12    13    15    1
    13    13    12    1
    14    57    54    1
    15    57    59    1
    16     9    12    1
    17     9    10    1
    18    53    54    1
    19    20    21    1
    20    20    17    1
    21    23    21   ar
    22    16    10   am
    23    16    17    1
    24    54    55    1
    25    10    11    2
    26    21    22   ar
    27    40    39    1
    28    17    18    1
    29    19    18    2
    30    55    61   am
    31    55    56    2
    32    18    24   am
    33    39    38    2
    34    39    41    1
    35    61    62    1
    36    67    69   ar
    37    67    66   ar
    38    33    34    2
    39    33    32    1
    40    38    37    1
    41    69    70   ar
    42    24    30    1
    43    24    25    1
    44    62    65    1
    45    62    63    1
    46    65    66    1
    47    35    32    1
    48    35    36    1
    49    66    68   ar
    50    32    31    1
    51    31    26   am
    52    30    29    1
    53    42    43    1
    54    37    36    1
    55    25    26    1
    56    25    28    1
    57    26    27    2
    58    81    80    1
    59    70    68   ar
    60    70    72   ar
    61    63    64    2
    62    80    82    1
    63    80    79    1
    64    68    71   ar
    65    75    76    1
    66    44    43    1
    67    44    45    2
    68    29    28    1
    69    43    46    1
    70    72    74   ar
    71    79    76    1
    72    76    77    1
    73    71    73   ar
    74    48    50   ar
    75    48    47   ar
    76    46    47    1
    77    50    52   ar
    78    74    73   ar
    79    47    49   ar
    80    52    51   ar
    81    77    83   am
    82    77    78    2
    83    83    84    1
    84    49    51   ar
    85    90    88    1
    86    88    87    1
    87    87    84    1
    88    87    89    1
    89    84    85    1
    90    85    86    2
    91    91    92    1
    92    95    92    1
    93    92    93    1
    94    96    93   am
    95    96    97    1
    96    93    94    2
    97    97    98    1
    98    98    99    2
    99   100   101    1
   100   104   101    1
   101   104   105    1
   102   101   102    1
   103   102   103    2
   104   105   106   ar
   105   105   107   ar
   106   106   108   ar
   107   107   110   ar
   108   107   109   ar
   109   108   109   ar
   110   110   112   ar
   111   109   111   ar
   112   112   113   ar
   113   111   113   ar
