@<TRIPOS>MOLECULE
tmp/5mx2U15.pdb
 75 74 0 0 0
SMALL
GASTEIGER

@<TRIPOS>ATOM
      1  N        -37.6560  -11.0210  -16.6940 N.3   181  ALA181     -0.1231
      2  CA       -38.4950  -11.4180  -15.5830 C.3   181  ALA181      0.1679
      3  C        -37.6390  -11.8120  -14.3910 C.2   181  ALA181      0.2434
      4  O        -36.6720  -12.5490  -14.5510 O.2   181  ALA181     -0.2733
      5  CB       -39.3730  -12.5990  -15.9750 C.3   181  ALA181      0.0304
      6  N        -37.9930  -11.3700  -13.1930 N.am  182  PRO182     -0.2718
      7  CA       -37.2500  -11.8020  -12.0110 C.3   182  PRO182      0.1535
      8  C        -37.2670  -13.3150  -11.8710 C.2   182  PRO182      0.2598
      9  O        -38.2520  -13.9780  -12.1870 O.2   182  PRO182     -0.2715
     10  CB       -37.9890  -11.1150  -10.8600 C.3   182  PRO182      0.0310
     11  CG       -39.3210  -10.8100  -11.4010 C.3   182  PRO182      0.0237
     12  CD       -39.1440  -10.5330  -12.8440 C.3   182  PRO182      0.0939
     13  N        -36.1410  -13.8570  -11.4330 N.am  183  GLU183     -0.1964
     14  CA       -35.9900  -15.2830  -11.1910 C.3   183  GLU183      0.1733
     15  C        -35.8020  -15.4760   -9.6990 C.2   183  GLU183      0.2616
     16  O        -34.8370  -14.9780   -9.1250 O.2   183  GLU183     -0.2715
     17  CB       -34.8180  -15.8500  -11.9800 C.3   183  GLU183      0.0429
     18  CG       -34.3010  -17.1410  -11.4280 C.3   183  GLU183      0.1163
     19  CD       -35.3310  -18.2340  -11.4750 C.2   183  GLU183      0.3649
     20  OE1      -35.8080  -18.5420  -12.5790 O.co2 183  GLU183     -0.2457
     21  OE2      -35.6690  -18.7740  -10.4080 O.co2 183  GLU183     -0.2457
     22  N        -36.7340  -16.1630   -9.0670 N.am  184  TRP184     -0.1960
     23  CA       -36.7870  -16.1940   -7.6170 C.3   184  TRP184      0.1771
     24  C        -36.2550  -17.4840   -7.0370 C.2   184  TRP184      0.2620
     25  O        -36.1300  -17.5970   -5.8170 O.2   184  TRP184     -0.2715
     26  CB       -38.2260  -15.9500   -7.1510 C.3   184  TRP184      0.0590
     27  CG       -38.7090  -14.5960   -7.5380 C.ar  184  TRP184      0.0006
     28  CD1      -39.4240  -14.2730   -8.6380 C.ar  184  TRP184      0.0946
     29  CD2      -38.4760  -13.3760   -6.8370 C.ar  184  TRP184      0.0152
     30  NE1      -39.6640  -12.9280   -8.6650 N.ar  184  TRP184     -0.2442
     31  CE2      -39.0890  -12.3550   -7.5650 C.ar  184  TRP184      0.0810
     32  CE3      -37.8040  -13.0510   -5.6630 C.ar  184  TRP184      0.0012
     33  CZ2      -39.0590  -11.0370   -7.1590 C.ar  184  TRP184      0.0191
     34  CZ3      -37.7730  -11.7440   -5.2660 C.ar  184  TRP184      0.0001
     35  CH2      -38.3990  -10.7530   -6.0060 C.ar  184  TRP184      0.0015
     36  N        -35.9220  -18.4460   -7.8760 N.am  185  GLY185     -0.1954
     37  CA       -35.3940  -19.6960   -7.4030 C.3   185  GLY185      0.1869
     38  C        -33.9610  -19.5830   -6.9460 C.2   185  GLY185      0.2309
     39  O        -33.4670  -18.5130   -6.5880 O.2   185  GLY185     -0.2863
     40  N        -35.0270   -5.9190   -6.8400 N.3   202  ILE202     -0.1231
     41  CA       -36.3360   -5.8830   -6.1880 C.3   202  ILE202      0.1692
     42  C        -36.2020   -6.2250   -4.7130 C.2   202  ILE202      0.2591
     43  O        -36.6000   -5.4530   -3.8370 O.2   202  ILE202     -0.2718
     44  CB       -37.3110   -6.8430   -6.8820 C.3   202  ILE202      0.0266
     45  CG1      -37.5730   -6.4070   -8.3180 C.3   202  ILE202      0.0019
     46  CG2      -38.5770   -6.9410   -6.0810 C.3   202  ILE202      0.0020
     47  CD1      -38.0680   -7.5100   -9.1980 C.3   202  ILE202      0.0001
     48  N        -35.6300   -7.3920   -4.4200 N.am  203  ALA203     -0.1980
     49  CA       -35.5680   -7.8560   -3.0400 C.3   203  ALA203      0.1597
     50  C        -34.6280   -7.0070   -2.1960 C.2   203  ALA203      0.2287
     51  O        -34.9570   -6.6650   -1.0590 O.2   203  ALA203     -0.2864
     52  CB       -35.1510   -9.3190   -3.0040 C.3   203  ALA203      0.0319
     53  N        -36.1850   -3.7030   -1.3970 N.3   206  ILE206     -0.1231
     54  CA       -37.1380   -3.6890   -0.2950 C.3   206  ILE206      0.1692
     55  C        -36.4080   -3.7040    1.0380 C.2   206  ILE206      0.2591
     56  O        -36.7180   -2.9210    1.9430 O.2   206  ILE206     -0.2718
     57  CB       -38.1260   -4.8620   -0.4250 C.3   206  ILE206      0.0266
     58  CG1      -39.2030   -4.5170   -1.4500 C.3   206  ILE206      0.0019
     59  CG2      -38.7250   -5.2080    0.9200 C.3   206  ILE206      0.0020
     60  CD1      -39.6860   -5.6840   -2.2460 C.3   206  ILE206      0.0001
     61  N        -35.4240   -4.5950    1.1770 N.am  207  VAL207     -0.1980
     62  CA       -34.6120   -4.6240    2.3880 C.3   207  VAL207      0.1595
     63  C        -33.9730   -3.2650    2.6280 C.2   207  VAL207      0.2287
     64  O        -33.8540   -2.8090    3.7690 O.2   207  VAL207     -0.2864
     65  CB       -33.5560   -5.7400    2.2900 C.3   207  VAL207      0.0276
     66  CG1      -32.7810   -5.8510    3.5890 C.3   207  VAL207      0.0022
     67  CG2      -34.2130   -7.0500    1.9510 C.3   207  VAL207      0.0022
     68  N        -36.8450   -1.0240    4.1030 N.3   210  ILE210     -0.1245
     69  CA       -37.0710   -1.3800    5.4950 C.3   210  ILE210      0.1561
     70  C        -35.8940   -0.9370    6.3530 C.2   210  ILE210      0.2260
     71  O        -36.0660   -0.2270    7.3490 O.2   210  ILE210     -0.2867
     72  CB       -37.3400   -2.8870    5.6200 C.3   210  ILE210      0.0252
     73  CG1      -38.6050   -3.2490    4.8510 C.3   210  ILE210      0.0019
     74  CG2      -37.4800   -3.2720    7.0630 C.3   210  ILE210      0.0019
     75  CD1      -38.8410   -4.7180    4.7020 C.3   210  ILE210      0.0001
@<TRIPOS>BOND
     1     1     2    1
     2     5     2    1
     3     2     3    1
     4     4     3    2
     5     3     6   am
     6     6    12    1
     7     6     7    1
     8    12    11    1
     9    20    19   ar
    10     9     8    2
    11     7     8    1
    12     7    10    1
    13    17    18    1
    14    17    14    1
    15     8    13   am
    16    19    18    1
    17    19    21   ar
    18    13    14    1
    19    11    10    1
    20    14    15    1
    21    15    16    2
    22    15    22   am
    23    47    45    1
    24    22    23    1
    25    30    28   ar
    26    30    31   ar
    27    28    27   ar
    28    45    44    1
    29    36    37    1
    30    36    24   am
    31    23    26    1
    32    23    24    1
    33    31    33   ar
    34    31    29   ar
    35    27    26    1
    36    27    29   ar
    37    37    38    1
    38    33    35   ar
    39    24    25    2
    40    38    39    2
    41    44    41    1
    42    44    46    1
    43    40    41    1
    44    29    32   ar
    45    41    42    1
    46    35    34   ar
    47    32    34   ar
    48    42    48   am
    49    42    43    2
    50    48    49    1
    51    49    52    1
    52    49    50    1
    53    60    58    1
    54    50    51    2
    55    58    57    1
    56    53    54    1
    57    57    54    1
    58    57    59    1
    59    54    55    1
    60    55    61   am
    61    55    56    2
    62    61    62    1
    63    67    65    1
    64    65    62    1
    65    65    66    1
    66    62    63    1
    67    63    64    2
    68    68    69    1
    69    75    73    1
    70    73    72    1
    71    69    72    1
    72    69    70    1
    73    72    74    1
    74    70    71    2
