@<TRIPOS>MOLECULE
tmp/5mx6F00.pdb
 86 83 0 0 0
SMALL
GASTEIGER

@<TRIPOS>ATOM
      1  N         32.2330  -17.1360   -4.3490 N.3    90  THR90      -0.1203
      2  CA        32.8400  -15.8490   -4.6420 C.3    90  THR90       0.1994
      3  C         32.2590  -15.3070   -5.9380 C.2    90  THR90       0.2618
      4  O         31.6900  -16.0480   -6.7450 O.2    90  THR90      -0.2717
      5  CB        34.3600  -15.9740   -4.7520 C.3    90  THR90       0.1784
      6  OG1       34.6800  -16.9730   -5.7250 O.3    90  THR90      -0.2211
      7  CG2       34.9520  -16.3790   -3.4000 C.3    90  THR90       0.0376
      8  N         32.4040  -13.9960   -6.1290 N.am   91  CYS91      -0.1955
      9  CA        31.7850  -13.3290   -7.2620 C.3    91  CYS91       0.1843
     10  C         32.6220  -12.1200   -7.6510 C.2    91  CYS91       0.2626
     11  O         33.5330  -11.7100   -6.9310 O.2    91  CYS91      -0.2714
     12  CB        30.3340  -12.9240   -6.9370 C.3    91  CYS91       0.0997
     13  SG        30.0950  -11.6200   -5.6690 S.3    91  CYS91      -0.0797
     14  N         32.3000  -11.5560   -8.8150 N.am   92  GLY92      -0.1954
     15  CA        32.8540  -10.2850   -9.2470 C.3    92  GLY92       0.1869
     16  C         31.7990   -9.1930   -9.3320 C.2    92  GLY92       0.2309
     17  O         30.8350   -9.3120  -10.0970 O.2    92  GLY92      -0.2863
     18  N         30.5230  -17.8700  -18.9340 N.3   158  PHE158     -0.1227
     19  CA        31.8480  -17.3620  -19.2790 C.3   158  PHE158      0.1736
     20  C         32.5140  -16.7400  -18.0610 C.2   158  PHE158      0.2595
     21  O         31.9630  -15.8180  -17.4510 O.2   158  PHE158     -0.2718
     22  CB        31.7550  -16.3290  -20.4010 C.3   158  PHE158      0.0547
     23  CG        31.2040  -16.8880  -21.6710 C.ar  158  PHE158     -0.0202
     24  CD1       32.0170  -17.5850  -22.5400 C.ar  158  PHE158     -0.0042
     25  CD2       29.8590  -16.7580  -21.9780 C.ar  158  PHE158     -0.0042
     26  CE1       31.5010  -18.1290  -23.7040 C.ar  158  PHE158     -0.0003
     27  CE2       29.3420  -17.2930  -23.1440 C.ar  158  PHE158     -0.0003
     28  CZ        30.1690  -17.9750  -24.0110 C.ar  158  PHE158     -0.0000
     29  N         33.7000  -17.2310  -17.7050 N.am  159  PHE159     -0.1976
     30  CA        34.5210  -16.4600  -16.7760 C.3   159  PHE159      0.1639
     31  C         35.1390  -15.2590  -17.4900 C.2   159  PHE159      0.2290
     32  O         35.2400  -14.1730  -16.9180 O.2   159  PHE159     -0.2864
     33  CB        35.5960  -17.3500  -16.1610 C.3   159  PHE159      0.0560
     34  CG        36.3790  -16.6930  -15.0470 C.ar  159  PHE159     -0.0200
     35  CD1       35.8770  -16.6670  -13.7480 C.ar  159  PHE159     -0.0042
     36  CD2       37.6350  -16.1330  -15.2920 C.ar  159  PHE159     -0.0042
     37  CE1       36.6010  -16.0740  -12.7060 C.ar  159  PHE159     -0.0003
     38  CE2       38.3660  -15.5500  -14.2640 C.ar  159  PHE159     -0.0003
     39  CZ        37.8520  -15.5220  -12.9690 C.ar  159  PHE159     -0.0000
     40  N         28.5850  -11.0190  -10.7510 N.3   178  ILE178     -0.1231
     41  CA        28.5810  -12.1280  -11.6890 C.3   178  ILE178      0.1692
     42  C         29.2500  -13.3190  -11.0290 C.2   178  ILE178      0.2592
     43  O         30.3550  -13.1940  -10.4880 O.2   178  ILE178     -0.2718
     44  CB        29.3020  -11.7600  -12.9980 C.3   178  ILE178      0.0266
     45  CG1       28.5260  -10.6580  -13.7280 C.3   178  ILE178      0.0019
     46  CG2       29.4770  -12.9910  -13.8710 C.3   178  ILE178      0.0020
     47  CD1       29.1750  -10.2160  -15.0150 C.3   178  ILE178      0.0001
     48  N         28.5860  -14.4690  -11.0740 N.am  179  GLU179     -0.1966
     49  CA        29.2230  -15.7360  -10.7310 C.3   179  GLU179      0.1733
     50  C         28.7800  -16.7580  -11.7750 C.2   179  GLU179      0.2616
     51  O         28.2940  -16.4010  -12.8540 O.2   179  GLU179     -0.2715
     52  CB        28.9220  -16.1120   -9.2740 C.3   179  GLU179      0.0429
     53  CG        27.4740  -15.9660   -8.8670 C.3   179  GLU179      0.1163
     54  CD        26.6390  -17.1270   -9.3620 C.2   179  GLU179      0.3649
     55  OE1       26.7920  -18.2290   -8.7880 O.co2 179  GLU179     -0.2457
     56  OE2       25.8590  -16.9410  -10.3250 O.co2 179  GLU179     -0.2457
     57  N         28.9430  -18.0440  -11.4770 N.am  180  MET180     -0.1977
     58  CA        28.7640  -19.0490  -12.5180 C.3   180  MET180      0.1605
     59  C         27.9460  -20.2850  -12.1100 C.2   180  MET180      0.2287
     60  O         27.8740  -21.2360  -12.8920 O.2   180  MET180     -0.2864
     61  CB        30.1560  -19.4810  -13.0390 C.3   180  MET180      0.0413
     62  CG        30.8880  -18.3600  -13.8050 C.3   180  MET180      0.0598
     63  SD        32.5270  -18.8090  -14.4110 S.3   180  MET180     -0.1393
     64  CE        32.1090  -20.0010  -15.6990 C.3   180  MET180      0.0692
     65  N         34.8430  -10.8300   -4.1730 N.3   203  SER203     -0.1202
     66  CA        36.2860  -11.0120   -4.1400 C.3   203  SER203      0.2020
     67  C         37.0270  -10.1190   -5.1390 C.2   203  SER203      0.2618
     68  O         38.2300   -9.8870   -4.9780 O.2   203  SER203     -0.2717
     69  CB        36.6390  -12.4860   -4.3840 C.3   203  SER203      0.2103
     70  OG        36.1660  -12.9350   -5.6420 O.3   203  SER203     -0.2182
     71  N         36.3380   -9.6020   -6.1470 N.am  204  ASP204     -0.1973
     72  CA        36.8980   -8.6620   -7.1060 C.3   204  ASP204      0.1709
     73  C         35.8030   -7.6810   -7.4620 C.2   204  ASP204      0.2293
     74  O         34.6190   -7.9590   -7.2710 O.2   204  ASP204     -0.2864
     75  CB        37.3810   -9.3650   -8.3830 C.3   204  ASP204      0.1436
     76  CG        38.7470  -10.0290   -8.2250 C.2   204  ASP204      0.3671
     77  OD1       38.8360  -11.0690   -7.5130 O.co2 204  ASP204     -0.2456
     78  OD2       39.7350   -9.5170   -8.8140 O.co2 204  ASP204     -0.2456
     79  N         34.6580   -5.8950  -10.9930 N.3   206  LEU206     -0.1245
     80  CA        34.9290   -5.9640  -12.4210 C.3   206  LEU206      0.1561
     81  C         34.8290   -4.6130  -13.1110 C.2   206  LEU206      0.2260
     82  O         35.2150   -4.4990  -14.2790 O.2   206  LEU206     -0.2867
     83  CB        33.9740   -6.9540  -13.0960 C.3   206  LEU206      0.0270
     84  CG        34.0790   -8.4200  -12.6720 C.3   206  LEU206      0.0019
     85  CD1       33.1440   -9.2790  -13.5230 C.3   206  LEU206      0.0001
     86  CD2       35.4960   -8.9170  -12.7790 C.3   206  LEU206      0.0001
@<TRIPOS>BOND
     1    28    26   ar
     2    28    27   ar
     3    26    24   ar
     4    27    25   ar
     5    24    23   ar
     6    25    23   ar
     7    23    22    1
     8    22    19    1
     9    19    18    1
    10    19    20    1
    11    20    29   am
    12    20    21    2
    13    29    30    1
    14    31    32    2
    15    31    30    1
    16    30    33    1
    17    33    34    1
    18    64    63    1
    19    36    34   ar
    20    36    38   ar
    21    34    35   ar
    22    47    45    1
    23    63    62    1
    24    82    81    2
    25    38    39   ar
    26    46    44    1
    27    62    61    1
    28    35    37   ar
    29    45    44    1
    30    85    84    1
    31    81    80    1
    32    83    84    1
    33    83    80    1
    34    61    58    1
    35    44    41    1
    36    39    37   ar
    37    60    59    2
    38    51    50    2
    39    86    84    1
    40    58    59    1
    41    58    57    1
    42    80    79    1
    43    50    57   am
    44    50    49    1
    45    41    42    1
    46    41    40    1
    47    48    42   am
    48    48    49    1
    49    42    43    2
    50    49    52    1
    51    56    54   ar
    52    17    16    2
    53    54    53    1
    54    54    55   ar
    55    16    15    1
    56    52    53    1
    57    15    14    1
    58    14    10   am
    59    78    76   ar
    60    75    76    1
    61    75    72    1
    62    76    77   ar
    63    10     9    1
    64    10    11    2
    65    73    74    2
    66    73    72    1
    67     9    12    1
    68     9     8    1
    69    72    71    1
    70    12    13    1
    71     4     3    2
    72    71    67   am
    73     8     3   am
    74     3     2    1
    75     6     5    1
    76    70    69    1
    77    67    68    2
    78    67    66    1
    79     5     2    1
    80     5     7    1
    81     2     1    1
    82    69    66    1
    83    65    66    1
