@<TRIPOS>MOLECULE
tmp/5mx8A05.pdb
 92 89 0 0 0
SMALL
GASTEIGER

@<TRIPOS>ATOM
      1  N        -35.4950    4.8970    4.2800 N.3   101  LYS101     -0.1231
      2  CA       -36.9250    4.9590    4.0060 C.3   101  LYS101      0.1693
      3  C        -37.2650    5.7150    2.7350 C.2   101  LYS101      0.2592
      4  O        -38.4470    5.9140    2.4520 O.2   101  LYS101     -0.2718
      5  CB       -37.7120    5.5380    5.1870 C.3   101  LYS101      0.0285
      6  CG       -37.5890    4.6710    6.4310 C.3   101  LYS101      0.0035
      7  CD       -38.3550    5.2310    7.6040 C.3   101  LYS101      0.0206
      8  CE       -37.8400    6.5850    7.9830 C.3   101  LYS101      0.1093
      9  NZ       -38.5550    7.1600    9.1630 N.3   101  LYS101     -0.1314
     10  N        -36.2790    6.1080    1.9360 N.am  102  ASP102     -0.1960
     11  CA       -36.5810    6.5230    0.5720 C.3   102  ASP102      0.1840
     12  C        -37.1750    5.3610   -0.2040 C.2   102  ASP102      0.2621
     13  O        -36.8740    4.1950    0.0540 O.2   102  ASP102     -0.2715
     14  CB       -35.3270    7.0150   -0.1320 C.3   102  ASP102      0.1450
     15  CG       -35.0650    8.4780    0.1190 C.2   102  ASP102      0.3671
     16  OD1      -36.0440    9.2490    0.1060 O.co2 102  ASP102     -0.2456
     17  OD2      -33.8910    8.8490    0.3450 O.co2 102  ASP102     -0.2456
     18  N        -38.0280    5.6770   -1.1650 N.am  103  ILE103     -0.1977
     19  CA       -38.6220    4.6640   -2.0190 C.3   103  ILE103      0.1596
     20  C        -37.8910    4.6730   -3.3470 C.2   103  ILE103      0.2287
     21  O        -37.7700    5.7220   -3.9860 O.2   103  ILE103     -0.2864
     22  CB       -40.1220    4.9050   -2.2230 C.3   103  ILE103      0.0276
     23  CG1      -40.8360    4.9520   -0.8790 C.3   103  ILE103      0.0022
     24  CG2      -40.6950    3.8080   -3.0930 C.3   103  ILE103      0.0022
     25  CD1      -42.2960    5.3680   -0.9860 C.3   103  ILE103      0.0001
     26  N        -47.7960   13.1950   -4.1990 N.3   145  GLY145     -0.1210
     27  CA       -46.7560   13.9270   -3.5060 C.3   145  GLY145      0.1956
     28  C        -45.6390   13.0800   -2.9450 C.2   145  GLY145      0.2612
     29  O        -44.9040   13.5410   -2.0630 O.2   145  GLY145     -0.2717
     30  N        -45.4790   11.8550   -3.4330 N.am  146  ILE146     -0.1965
     31  CA       -44.4500   10.9470   -2.9390 C.3   146  ILE146      0.1727
     32  C        -43.2160   11.0860   -3.8210 C.2   146  ILE146      0.2616
     33  O        -43.2920   10.9450   -5.0470 O.2   146  ILE146     -0.2715
     34  CB       -44.9570    9.4980   -2.9160 C.3   146  ILE146      0.0290
     35  CG1      -46.1520    9.3760   -1.9680 C.3   146  ILE146      0.0022
     36  CG2      -43.8480    8.5430   -2.5070 C.3   146  ILE146      0.0023
     37  CD1      -46.7900    8.0260   -1.9930 C.3   146  ILE146      0.0001
     38  N        -42.0840   11.3810   -3.1970 N.am  147  ASP147     -0.1971
     39  CA       -40.8150   11.4780   -3.9030 C.3   147  ASP147      0.1709
     40  C        -40.2680   10.0820   -4.1790 C.2   147  ASP147      0.2293
     41  O        -40.0640    9.2850   -3.2570 O.2   147  ASP147     -0.2864
     42  CB       -39.8200   12.2950   -3.0860 C.3   147  ASP147      0.1436
     43  CG       -38.4990   12.4800   -3.7990 C.2   147  ASP147      0.3671
     44  OD1      -38.4920   12.7110   -5.0370 O.co2 147  ASP147     -0.2456
     45  OD2      -37.4620   12.3840   -3.1100 O.co2 147  ASP147     -0.2456
     46  N        -38.0090    0.1510   -0.3700 N.3   201  SER201     -0.1217
     47  CA       -37.6540    1.2210    0.5280 C.3   201  SER201      0.1889
     48  C        -36.3330    0.8960    1.1910 C.2   201  SER201      0.2288
     49  O        -35.9910   -0.2650    1.4090 O.2   201  SER201     -0.2866
     50  CB       -38.7450    1.4380    1.5690 C.3   201  SER201      0.2089
     51  OG       -39.9420    1.8250    0.9270 O.3   201  SER201     -0.2183
     52  N        -42.3410    0.8330    8.6550 N.3   220  SER220     -0.1202
     53  CA       -41.8130    2.1530    8.3380 C.3   220  SER220      0.2020
     54  C        -42.0390    2.5920    6.8950 C.2   220  SER220      0.2619
     55  O        -41.4520    3.5990    6.4870 O.2   220  SER220     -0.2717
     56  CB       -40.3180    2.1990    8.6390 C.3   220  SER220      0.2103
     57  OG       -40.0640    1.7950    9.9670 O.3   220  SER220     -0.2182
     58  N        -42.8750    1.9000    6.1180 N.am  221  PHE221     -0.1961
     59  CA       -42.9230    2.1430    4.6750 C.3   221  PHE221      0.1771
     60  C        -44.3450    2.3920    4.1760 C.2   221  PHE221      0.2620
     61  O        -44.7180    1.9740    3.0710 O.2   221  PHE221     -0.2715
     62  CB       -42.2940    0.9830    3.8950 C.3   221  PHE221      0.0574
     63  CG       -40.9460    0.5500    4.4150 C.ar  221  PHE221     -0.0200
     64  CD1      -39.9430    1.4830    4.6610 C.ar  221  PHE221     -0.0042
     65  CD2      -40.6850   -0.7960    4.6690 C.ar  221  PHE221     -0.0042
     66  CE1      -38.7050    1.0870    5.1400 C.ar  221  PHE221     -0.0003
     67  CE2      -39.4470   -1.2030    5.1600 C.ar  221  PHE221     -0.0003
     68  CZ       -38.4560   -0.2630    5.3960 C.ar  221  PHE221     -0.0000
     69  N        -45.1580    3.1170    4.9430 N.am  222  ASP222     -0.1957
     70  CA       -46.5700    3.2030    4.5850 C.3   222  ASP222      0.1840
     71  C        -46.8010    4.0060    3.3090 C.2   222  ASP222      0.2622
     72  O        -47.7850    3.7560    2.5990 O.2   222  ASP222     -0.2715
     73  CB       -47.3680    3.7710    5.7550 C.3   222  ASP222      0.1450
     74  CG       -47.3760    2.8330    6.9610 C.2   222  ASP222      0.3671
     75  OD1      -47.1730    1.6140    6.7770 O.co2 222  ASP222     -0.2456
     76  OD2      -47.5930    3.3020    8.0930 O.co2 222  ASP222     -0.2456
     77  N        -45.9150    4.9480    2.9730 N.am  223  ASN223     -0.1958
     78  CA       -46.1000    5.6440    1.6980 C.3   223  ASN223      0.1819
     79  C        -45.8500    4.7080    0.5240 C.2   223  ASN223      0.2621
     80  O        -46.5690    4.7660   -0.4840 O.2   223  ASN223     -0.2715
     81  CB       -45.2070    6.8790    1.6030 C.3   223  ASN223      0.1195
     82  CG       -45.6870    8.0060    2.5000 C.2   223  ASN223      0.2630
     83  OD1      -44.8920    8.7700    3.0400 O.2   223  ASN223     -0.2716
     84  ND2      -47.0000    8.0980    2.6760 N.am  223  ASN223     -0.0877
     85  N        -44.8500    3.8270    0.6440 N.am  224  MET224     -0.1977
     86  CA       -44.6840    2.7690   -0.3460 C.3   224  MET224      0.1605
     87  C        -45.9540    1.9410   -0.4660 C.2   224  MET224      0.2287
     88  O        -46.4510    1.7050   -1.5690 O.2   224  MET224     -0.2864
     89  CB       -43.4900    1.8790    0.0060 C.3   224  MET224      0.0413
     90  CG       -43.2390    0.7960   -1.0390 C.3   224  MET224      0.0598
     91  SD       -41.7190   -0.1620   -0.8090 S.3   224  MET224     -0.1393
     92  CE       -41.9720   -0.9050    0.7930 C.3   224  MET224      0.0692
@<TRIPOS>BOND
     1    33    32    2
     2    44    43   ar
     3    26    27    1
     4    40    39    1
     5    40    41    2
     6    21    20    2
     7    39    38    1
     8    39    42    1
     9    32    38   am
    10    32    31    1
    11    43    45   ar
    12    43    42    1
    13    27    28    1
    14    30    28   am
    15    30    31    1
    16    20    19    1
    17    24    22    1
    18    28    29    2
    19    31    34    1
    20    34    36    1
    21    34    35    1
    22    22    19    1
    23    22    23    1
    24    19    18    1
    25    37    35    1
    26    88    87    2
    27    18    12   am
    28    90    91    1
    29    90    89    1
    30    25    23    1
    31    91    92    1
    32    80    79    2
    33    87    86    1
    34    46    47    1
    35    86    89    1
    36    86    85    1
    37    12    13    2
    38    12    11    1
    39    14    15    1
    40    14    11    1
    41    16    15   ar
    42    15    17   ar
    43    79    85   am
    44    79    78    1
    45    47    48    1
    46    47    50    1
    47    11    10    1
    48    51    50    1
    49    48    49    2
    50    81    78    1
    51    81    82    1
    52    78    77    1
    53    10     3   am
    54     4     3    2
    55    82    84   am
    56    82    83    2
    57    72    71    2
    58     3     2    1
    59    77    71   am
    60    61    60    2
    61    71    70    1
    62    62    63    1
    63    62    59    1
    64     2     1    1
    65     2     5    1
    66    60    59    1
    67    60    69   am
    68    63    64   ar
    69    63    65   ar
    70    70    69    1
    71    70    73    1
    72    64    66   ar
    73    65    67   ar
    74    59    58    1
    75    66    68   ar
    76    67    68   ar
    77     5     6    1
    78    73    74    1
    79    58    54   am
    80     6     7    1
    81    55    54    2
    82    75    74   ar
    83    54    53    1
    84    74    76   ar
    85     7     8    1
    86     8     9    1
    87    53    56    1
    88    53    52    1
    89    56    57    1
