@<TRIPOS>MOLECULE
tmp/5mx8A06.pdb
 86 80 0 0 0
SMALL
GASTEIGER

@<TRIPOS>ATOM
      1  N        -25.8040  -10.7040   -9.6130 N.3   112  ASP112     -0.1239
      2  CA       -24.6750  -11.6320   -9.5910 C.3   112  ASP112      0.1674
      3  C        -25.1280  -13.0850   -9.6510 C.2   112  ASP112      0.2266
      4  O        -24.3140  -13.9900   -9.4750 O.2   112  ASP112     -0.2867
      5  CB       -23.7860  -11.4040   -8.3540 C.3   112  ASP112      0.1410
      6  CG       -24.5600  -11.4490   -7.0260 C.2   112  ASP112      0.3668
      7  OD1      -25.6780  -12.0030   -6.9780 O.co2 112  ASP112     -0.2456
      8  OD2      -24.0340  -10.9380   -6.0060 O.co2 112  ASP112     -0.2456
      9  N        -28.4840  -16.0580  -17.0320 N.3   117  ARG117     -0.1245
     10  CA       -27.6540  -16.7080  -18.0440 C.3   117  ARG117      0.1563
     11  C        -28.1890  -18.1000  -18.3650 C.2   117  ARG117      0.2260
     12  O        -28.2270  -18.5010  -19.5330 O.2   117  ARG117     -0.2867
     13  CB       -26.1960  -16.7590  -17.5860 C.3   117  ARG117      0.0307
     14  CG       -25.6290  -15.3780  -17.3260 C.3   117  ARG117      0.0489
     15  CD       -24.1950  -15.3900  -16.9180 C.3   117  ARG117      0.2205
     16  NE       -23.7720  -14.0420  -16.5580 N.pl3 117  ARG117     -0.0865
     17  CZ       -22.5360  -13.7130  -16.1990 C.cat 117  ARG117      0.5346
     18  NH1      -21.5970  -14.6420  -16.1420 N.pl3 117  ARG117      0.1354
     19  NH2      -22.2450  -12.4580  -15.8870 N.pl3 117  ARG117      0.1354
     20  N        -29.1930   -3.5620   -7.7300 N.3   154  PHE154     -0.1241
     21  CA       -28.4010   -4.7720   -7.8900 C.3   154  PHE154      0.1605
     22  C        -29.0450   -5.8790   -7.0560 C.2   154  PHE154      0.2264
     23  O        -29.0430   -5.8050   -5.8220 O.2   154  PHE154     -0.2867
     24  CB       -26.9540   -4.5260   -7.4670 C.3   154  PHE154      0.0534
     25  CG       -26.0220   -5.6290   -7.8720 C.ar  154  PHE154     -0.0203
     26  CD1      -25.8090   -6.7210   -7.0350 C.ar  154  PHE154     -0.0042
     27  CD2      -25.3790   -5.5910   -9.1050 C.ar  154  PHE154     -0.0042
     28  CE1      -24.9480   -7.7660   -7.4190 C.ar  154  PHE154     -0.0003
     29  CE2      -24.5320   -6.6120   -9.5070 C.ar  154  PHE154     -0.0003
     30  CZ       -24.3050   -7.7030   -8.6610 C.ar  154  PHE154     -0.0000
     31  N        -28.7200   -9.2970   -5.5620 N.3   156  SER156     -0.1217
     32  CA       -27.6320  -10.2100   -5.2310 C.3   156  SER156      0.1889
     33  C        -28.1400  -11.5220   -4.6310 C.2   156  SER156      0.2288
     34  O        -29.2100  -11.5840   -4.0180 O.2   156  SER156     -0.2866
     35  CB       -26.6580   -9.5570   -4.2470 C.3   156  SER156      0.2089
     36  OG       -25.6400  -10.4680   -3.8820 O.3   156  SER156     -0.2183
     37  N        -26.3760  -12.5840   -2.2870 N.3   158  PHE158     -0.1241
     38  CA       -25.7460  -12.4150   -0.9890 C.3   158  PHE158      0.1605
     39  C        -26.3340  -11.2080   -0.2790 C.2   158  PHE158      0.2264
     40  O        -26.6080  -10.1740   -0.8990 O.2   158  PHE158     -0.2867
     41  CB       -24.2250  -12.2410   -1.1100 C.3   158  PHE158      0.0534
     42  CG       -23.5310  -13.4020   -1.7590 C.ar  158  PHE158     -0.0203
     43  CD1      -23.0500  -14.4550   -0.9920 C.ar  158  PHE158     -0.0042
     44  CD2      -23.3700  -13.4520   -3.1400 C.ar  158  PHE158     -0.0042
     45  CE1      -22.4110  -15.5400   -1.5850 C.ar  158  PHE158     -0.0003
     46  CE2      -22.7250  -14.5280   -3.7400 C.ar  158  PHE158     -0.0003
     47  CZ       -22.2480  -15.5790   -2.9630 C.ar  158  PHE158     -0.0000
     48  N        -21.4620   -9.5700    2.9640 N.3   161  SER161     -0.1217
     49  CA       -20.3690   -9.4870    2.0180 C.3   161  SER161      0.1889
     50  C        -19.2860   -8.5690    2.5690 C.2   161  SER161      0.2288
     51  O        -19.5900   -7.5470    3.1930 O.2   161  SER161     -0.2866
     52  CB       -20.8880   -8.9780    0.6750 C.3   161  SER161      0.2089
     53  OG       -19.8430   -8.4330   -0.0660 O.3   161  SER161     -0.2183
     54  N        -17.2250   -7.2410    0.3590 N.3   163  GLU163     -0.1245
     55  CA       -16.9180   -6.3570   -0.7600 C.3   163  GLU163      0.1567
     56  C        -16.8900   -4.9180   -0.2750 C.2   163  GLU163      0.2260
     57  O        -17.4960   -4.5840    0.7480 O.2   163  GLU163     -0.2867
     58  CB       -17.9370   -6.4820   -1.8940 C.3   163  GLU163      0.0388
     59  CG       -17.9600   -7.8100   -2.6210 C.3   163  GLU163      0.1160
     60  CD       -16.6400   -8.1440   -3.2660 C.2   163  GLU163      0.3649
     61  OE1      -16.1020   -9.2360   -2.9790 O.co2 163  GLU163     -0.2457
     62  OE2      -16.1390   -7.3080   -4.0490 O.co2 163  GLU163     -0.2457
     63  N        -16.5170   -3.0310   -4.9820 N.3   166  ALA166     -0.1231
     64  CA       -17.6270   -3.4710   -5.8150 C.3   166  ALA166      0.1694
     65  C        -18.8680   -2.6040   -5.6070 C.2   166  ALA166      0.2592
     66  O        -19.6280   -2.3740   -6.5560 O.2   166  ALA166     -0.2718
     67  CB       -17.9440   -4.9350   -5.5300 C.3   166  ALA166      0.0304
     68  N        -19.0840   -2.1010   -4.3870 N.am  167  PHE167     -0.1976
     69  CA       -20.2300   -1.2260   -4.1510 C.3   167  PHE167      0.1639
     70  C        -20.0210    0.1380   -4.7870 C.2   167  PHE167      0.2290
     71  O        -20.9680    0.7240   -5.3270 O.2   167  PHE167     -0.2864
     72  CB       -20.4940   -1.0770   -2.6530 C.3   167  PHE167      0.0560
     73  CG       -20.7620   -2.3720   -1.9700 C.ar  167  PHE167     -0.0200
     74  CD1      -21.6840   -3.2630   -2.4960 C.ar  167  PHE167     -0.0042
     75  CD2      -20.0620   -2.7260   -0.8360 C.ar  167  PHE167     -0.0042
     76  CE1      -21.9230   -4.4820   -1.8760 C.ar  167  PHE167     -0.0003
     77  CE2      -20.2930   -3.9370   -0.2160 C.ar  167  PHE167     -0.0003
     78  CZ       -21.2220   -4.8190   -0.7380 C.ar  167  PHE167     -0.0000
     79  N        -20.7910   -0.3610   -8.4000 N.3   170  MET170     -0.1245
     80  CA       -22.2270   -0.3890   -8.6600 C.3   170  MET170      0.1570
     81  C        -22.8080    1.0110   -8.6280 C.2   170  MET170      0.2261
     82  O        -23.6090    1.3800   -9.4940 O.2   170  MET170     -0.2867
     83  CB       -22.9460   -1.2610   -7.6420 C.3   170  MET170      0.0387
     84  CG       -22.5910   -2.7270   -7.6910 C.3   170  MET170      0.0595
     85  SD       -23.3300   -3.5770   -6.2810 S.3   170  MET170     -0.1393
     86  CE       -22.5390   -5.1770   -6.4600 C.3   170  MET170      0.0692
@<TRIPOS>BOND
     1    12    11    2
     2    11    10    1
     3    10    13    1
     4    10     9    1
     5    13    14    1
     6    14    15    1
     7    15    16    1
     8    16    17    2
     9    17    18    1
    10    17    19    1
    11     3     2    1
    12     3     4    2
    13     1     2    1
    14     2     5    1
    15    29    27   ar
    16    29    30   ar
    17    82    81    2
    18    27    25   ar
    19    30    28   ar
    20    80    81    1
    21    80    79    1
    22    80    83    1
    23     5     6    1
    24    21    20    1
    25    21    24    1
    26    21    22    1
    27    25    24    1
    28    25    26   ar
    29    84    83    1
    30    84    85    1
    31    28    26   ar
    32    22    23    2
    33     6     7   ar
    34     6     8   ar
    35    66    65    2
    36    86    85    1
    37    64    65    1
    38    64    67    1
    39    64    63    1
    40    65    68   am
    41    31    32    1
    42    71    70    2
    43    32    33    1
    44    32    35    1
    45    70    69    1
    46    33    34    2
    47    68    69    1
    48    35    36    1
    49    69    72    1
    50    62    60   ar
    51    46    44   ar
    52    46    47   ar
    53    60    61   ar
    54    60    59    1
    55    44    42   ar
    56    47    45   ar
    57    72    73    1
    58    59    58    1
    59    74    73   ar
    60    74    76   ar
    61    37    38    1
    62    73    75   ar
    63    58    55    1
    64    76    78   ar
    65    42    41    1
    66    42    43   ar
    67    45    43   ar
    68    41    38    1
    69    38    39    1
    70    40    39    2
    71    75    77   ar
    72    55    56    1
    73    55    54    1
    74    78    77   ar
    75    56    57    2
    76    53    52    1
    77    52    49    1
    78    49    50    1
    79    49    48    1
    80    50    51    2
