@<TRIPOS>MOLECULE
tmp/5mx8A04.pdb
 86 81 0 0 0
SMALL
GASTEIGER

@<TRIPOS>ATOM
      1  N        -25.2580    8.0130   -1.9170 N.3    96  PRO96      -0.2102
      2  CA       -25.5040    9.1180   -0.9830 C.3    96  PRO96       0.1504
      3  C        -26.6610   10.0150   -1.4000 C.2    96  PRO96       0.2576
      4  O        -27.0380   10.9020   -0.6270 O.2    96  PRO96      -0.2718
      5  CB       -24.1770    9.8760   -0.9960 C.3    96  PRO96       0.0282
      6  CG       -23.6680    9.6570   -2.3880 C.3    96  PRO96       0.0208
      7  CD       -24.0990    8.2670   -2.7890 C.3    96  PRO96       0.0893
      8  N        -27.2440    9.8040   -2.5800 N.am   97  LYS97      -0.1966
      9  CA       -28.4530   10.4950   -3.0200 C.3    97  LYS97       0.1728
     10  C        -29.7420    9.9010   -2.4560 C.2    97  LYS97       0.2616
     11  O        -30.8190   10.3330   -2.8760 O.2    97  LYS97      -0.2715
     12  CB       -28.5570   10.4650   -4.5460 C.3    97  LYS97       0.0311
     13  CG       -27.3170   10.8980   -5.2850 C.3    97  LYS97       0.0038
     14  CD       -27.3840   10.4940   -6.7620 C.3    97  LYS97       0.0206
     15  CE       -28.5720   11.1210   -7.4880 C.3    97  LYS97       0.1093
     16  NZ       -28.3960   11.1190   -8.9880 N.3    97  LYS97      -0.1314
     17  N        -29.6820    8.9030   -1.5680 N.am   98  VAL98      -0.1963
     18  CA       -30.8770    8.3150   -0.9670 C.3    98  VAL98       0.1727
     19  C        -30.6160    8.0560    0.5130 C.2    98  VAL98       0.2616
     20  O        -29.4970    7.7320    0.9210 O.2    98  VAL98      -0.2715
     21  CB       -31.3280    7.0060   -1.6700 C.3    98  VAL98       0.0290
     22  CG1      -31.6720    7.2420   -3.1420 C.3    98  VAL98       0.0023
     23  CG2      -30.2680    5.9340   -1.5470 C.3    98  VAL98       0.0023
     24  N        -31.6600    8.2150    1.3310 N.am   99  GLY99      -0.1955
     25  CA       -31.5700    7.9660    2.7520 C.3    99  GLY99       0.1869
     26  C        -32.4950    6.8360    3.1890 C.2    99  GLY99       0.2309
     27  O        -33.2860    6.3030    2.4000 O.2    99  GLY99      -0.2863
     28  N        -36.2790    6.1080    1.9360 N.3   102  ASP102     -0.1239
     29  CA       -36.5810    6.5230    0.5720 C.3   102  ASP102      0.1674
     30  C        -37.1750    5.3610   -0.2040 C.2   102  ASP102      0.2266
     31  O        -36.8740    4.1950    0.0540 O.2   102  ASP102     -0.2867
     32  CB       -35.3270    7.0150   -0.1320 C.3   102  ASP102      0.1410
     33  CG       -35.0650    8.4780    0.1190 C.2   102  ASP102      0.3668
     34  OD1      -36.0440    9.2490    0.1060 O.co2 102  ASP102     -0.2456
     35  OD2      -33.8910    8.8490    0.3450 O.co2 102  ASP102     -0.2456
     36  N        -42.0840   11.3810   -3.1970 N.3   147  ASP147     -0.1239
     37  CA       -40.8150   11.4780   -3.9030 C.3   147  ASP147      0.1674
     38  C        -40.2680   10.0820   -4.1790 C.2   147  ASP147      0.2266
     39  O        -40.0640    9.2850   -3.2570 O.2   147  ASP147     -0.2867
     40  CB       -39.8200   12.2950   -3.0860 C.3   147  ASP147      0.1410
     41  CG       -38.4990   12.4800   -3.7990 C.2   147  ASP147      0.3668
     42  OD1      -38.4920   12.7110   -5.0370 O.co2 147  ASP147     -0.2456
     43  OD2      -37.4620   12.3840   -3.1100 O.co2 147  ASP147     -0.2456
     44  N        -37.2970    7.7570   -5.8610 N.3   149  LYS149     -0.1245
     45  CA       -35.9210    7.6860   -6.3390 C.3   149  LYS149      0.1561
     46  C        -35.8570    6.6220   -7.4200 C.2   149  LYS149      0.2260
     47  O        -36.2240    5.4710   -7.1770 O.2   149  LYS149     -0.2867
     48  CB       -34.9640    7.3530   -5.2010 C.3   149  LYS149      0.0271
     49  CG       -35.1370    8.2420   -3.9880 C.3   149  LYS149      0.0035
     50  CD       -34.8820    9.7020   -4.3140 C.3   149  LYS149      0.0206
     51  CE       -34.8060   10.5140   -3.0350 C.3   149  LYS149      0.1093
     52  NZ       -34.2750   11.8750   -3.2760 N.3   149  LYS149     -0.1314
     53  N        -28.4400    1.4020    5.0840 N.3   205  HIS205     -0.1241
     54  CA       -27.6330    2.3170    4.2860 C.3   205  HIS205      0.1621
     55  C        -26.1820    1.8940    4.4220 C.2   205  HIS205      0.2264
     56  O        -25.6050    1.9930    5.5080 O.2   205  HIS205     -0.2867
     57  CB       -27.8240    3.7750    4.6880 C.3   205  HIS205      0.0745
     58  CG       -27.4900    4.7270    3.5810 C.ar  205  HIS205      0.0817
     59  ND1      -26.2210    4.8330    3.0550 N.ar  205  HIS205     -0.2268
     60  CD2      -28.2650    5.5840    2.8740 C.ar  205  HIS205      0.1154
     61  CE1      -26.2280    5.7160    2.0740 C.ar  205  HIS205      0.1986
     62  NE2      -27.4560    6.1870    1.9440 N.ar  205  HIS205     -0.2212
     63  N        -23.5070    3.1960    3.2260 N.3   207  ILE207     -0.1231
     64  CA       -22.5440    4.2720    3.4460 C.3   207  ILE207      0.1692
     65  C        -22.5520    4.7010    4.9080 C.2   207  ILE207      0.2592
     66  O        -21.5260    4.6600    5.5930 O.2   207  ILE207     -0.2718
     67  CB       -22.8290    5.4620    2.5100 C.3   207  ILE207      0.0266
     68  CG1      -22.6080    5.0770    1.0470 C.3   207  ILE207      0.0019
     69  CG2      -21.9530    6.6310    2.8640 C.3   207  ILE207      0.0020
     70  CD1      -23.1960    6.0750    0.0760 C.3   207  ILE207      0.0001
     71  N        -23.7180    5.1060    5.4080 N.am  208  THR208     -0.1953
     72  CA       -23.8410    5.6160    6.7650 C.3   208  THR208      0.1897
     73  C        -23.9190    4.5160    7.8140 C.2   208  THR208      0.2313
     74  O        -23.8120    4.8200    9.0070 O.2   208  THR208     -0.2863
     75  CB       -25.0810    6.4990    6.8770 C.3   208  THR208      0.1794
     76  OG1      -26.2470    5.6680    6.8750 O.3   208  THR208     -0.2208
     77  CG2      -25.1570    7.4520    5.6970 C.3   208  THR208      0.0378
     78  N        -26.5150    2.8690    8.7640 N.3   210  GLU210     -0.1245
     79  CA       -27.8160    2.7830    9.4220 C.3   210  GLU210      0.1567
     80  C        -28.5780    1.5260    8.9990 C.2   210  GLU210      0.2260
     81  O        -28.5030    1.0810    7.8490 O.2   210  GLU210     -0.2867
     82  CB       -28.6620    4.0110    9.0940 C.3   210  GLU210      0.0388
     83  CG       -27.9830    5.3370    9.3900 C.3   210  GLU210      0.1160
     84  CD       -28.7630    6.5080    8.8420 C.2   210  GLU210      0.3649
     85  OE1      -28.7030    6.7650    7.6200 O.co2 210  GLU210     -0.2457
     86  OE2      -29.4550    7.1710    9.6380 O.co2 210  GLU210     -0.2457
@<TRIPOS>BOND
     1    16    15    1
     2    15    14    1
     3    46    47    2
     4    46    45    1
     5    14    13    1
     6    45    44    1
     7    45    48    1
     8    13    12    1
     9    48    49    1
    10    42    41   ar
    11    12     9    1
    12    50    49    1
    13    50    51    1
    14    38    37    1
    15    38    39    2
    16    37    36    1
    17    37    40    1
    18    41    43   ar
    19    41    40    1
    20    52    51    1
    21    22    21    1
    22     9     8    1
    23     9    10    1
    24    11    10    2
    25     7     6    1
    26     7     1    1
    27     8     3   am
    28    10    17   am
    29     6     5    1
    30     1     2    1
    31    21    23    1
    32    21    18    1
    33    17    18    1
    34     3     2    1
    35     3     4    2
    36     5     2    1
    37    18    19    1
    38    30    31    2
    39    30    29    1
    40    32    33    1
    41    32    29    1
    42    70    68    1
    43    34    33   ar
    44    33    35   ar
    45    19    20    2
    46    19    24   am
    47    29    28    1
    48    68    67    1
    49    24    25    1
    50    62    61   ar
    51    62    60   ar
    52    61    59   ar
    53    27    26    2
    54    67    69    1
    55    67    64    1
    56    25    26    1
    57    60    58   ar
    58    59    58   ar
    59    63    64    1
    60    64    65    1
    61    58    57    1
    62    54    55    1
    63    54    57    1
    64    54    53    1
    65    55    56    2
    66    65    71   am
    67    65    66    2
    68    71    72    1
    69    77    75    1
    70    72    75    1
    71    72    73    1
    72    76    75    1
    73    85    84   ar
    74    73    74    2
    75    81    80    2
    76    78    79    1
    77    84    83    1
    78    84    86   ar
    79    80    79    1
    80    82    83    1
    81    82    79    1
