@<TRIPOS>MOLECULE
tmp/5mxbA01.pdb
 151 143 0 0 0
SMALL
GASTEIGER

@<TRIPOS>ATOM
      1  N         24.6990  -17.6040  -10.7650 N.3     9  TYR9       -0.1241
      2  CA        23.2830  -17.4820  -10.7400 C.3     9  TYR9        0.1605
      3  C         22.8390  -16.4090  -11.7470 C.2     9  TYR9        0.2264
      4  O         23.4650  -15.3750  -11.8820 O.2     9  TYR9       -0.2867
      5  CB        22.8050  -17.0860   -9.3550 C.3     9  TYR9        0.0534
      6  CG        23.4500  -17.8790   -8.2430 C.ar    9  TYR9       -0.0201
      7  CD1       23.1760  -19.2210   -8.0400 C.ar    9  TYR9       -0.0009
      8  CD2       24.4750  -17.3220   -7.5260 C.ar    9  TYR9       -0.0009
      9  CE1       23.7890  -19.9060   -7.0060 C.ar    9  TYR9        0.0417
     10  CE2       25.0820  -18.0010   -6.4880 C.ar    9  TYR9        0.0417
     11  CZ        24.7930  -19.3010   -6.2950 C.ar    9  TYR9        0.1957
     12  OH        25.4940  -19.9530   -5.2430 O.3     9  TYR9       -0.2866
     13  N         15.0360  -14.0980    3.1690 N.3    34  VAL34      -0.1245
     14  CA        15.4680  -15.4730    3.3520 C.3    34  VAL34       0.1561
     15  C         14.8140  -16.0740    4.6060 C.2    34  VAL34       0.2260
     16  O         15.0820  -15.6510    5.7200 O.2    34  VAL34      -0.2867
     17  CB        16.9720  -15.5880    3.4460 C.3    34  VAL34       0.0252
     18  CG1       17.3310  -17.0640    3.4880 C.3    34  VAL34       0.0019
     19  CG2       17.6660  -14.9080    2.2800 C.3    34  VAL34       0.0019
     20  N         15.0410  -18.7730    6.3550 N.3    36  THR36      -0.1203
     21  CA        15.8590  -19.4830    7.3490 C.3    36  THR36       0.1994
     22  C         16.8290  -18.5310    8.0740 C.2    36  THR36       0.2617
     23  O         17.4710  -18.9830    9.0150 O.2    36  THR36      -0.2717
     24  CB        16.6920  -20.6130    6.6960 C.3    36  THR36       0.1784
     25  OG1       17.3950  -20.0880    5.5920 O.3    36  THR36      -0.2211
     26  CG2       15.8140  -21.7590    6.1760 C.3    36  THR36       0.0376
     27  N         16.8900  -17.2530    7.7010 N.am   37  ILE37      -0.1979
     28  CA        17.7820  -16.2630    8.3270 C.3    37  ILE37       0.1595
     29  C         16.9550  -15.3170    9.1580 C.2    37  ILE37       0.2287
     30  O         16.0490  -14.6380    8.6320 O.2    37  ILE37      -0.2864
     31  CB        18.6770  -15.5100    7.3050 C.3    37  ILE37       0.0276
     32  CG1       19.5530  -16.4960    6.6170 C.3    37  ILE37       0.0022
     33  CG2       19.4840  -14.3990    8.0150 C.3    37  ILE37       0.0022
     34  CD1       20.4060  -15.9040    5.5180 C.3    37  ILE37       0.0001
     35  N         25.3620  -13.4090   11.3240 N.3    55  LEU55      -0.1245
     36  CA        24.1860  -13.9120   10.5770 C.3    55  LEU55       0.1561
     37  C         23.6280  -15.0320   11.4750 C.2    55  LEU55       0.2260
     38  O         24.2850  -16.0700   11.6830 O.2    55  LEU55      -0.2867
     39  CB        24.6050  -14.3330    9.1910 C.3    55  LEU55       0.0270
     40  CG        23.5600  -14.7320    8.1400 C.3    55  LEU55       0.0019
     41  CD1       24.1730  -14.4460    6.7580 C.3    55  LEU55       0.0001
     42  CD2       23.1360  -16.2110    8.3350 C.3    55  LEU55       0.0001
     43  N         20.6730  -17.8450   12.0190 N.3    57  PHE57      -0.1227
     44  CA        19.8740  -18.6740   11.0950 C.3    57  PHE57       0.1736
     45  C         19.4050  -19.9150   11.8230 C.2    57  PHE57       0.2595
     46  O         19.8220  -20.2210   12.9300 O.2    57  PHE57      -0.2718
     47  CB        20.6450  -19.0500    9.8330 C.3    57  PHE57       0.0547
     48  CG        21.8400  -19.8890   10.0760 C.ar   57  PHE57      -0.0202
     49  CD1       23.0630  -19.2620   10.4170 C.ar   57  PHE57      -0.0042
     50  CD2       21.8210  -21.2320    9.9600 C.ar   57  PHE57      -0.0042
     51  CE1       24.1620  -20.0190   10.6890 C.ar   57  PHE57      -0.0003
     52  CE2       22.9620  -22.0230   10.1500 C.ar   57  PHE57      -0.0003
     53  CZ        24.1580  -21.3760   10.5530 C.ar   57  PHE57      -0.0000
     54  N         18.4280  -20.6140   11.2160 N.am   58  ILE58      -0.1980
     55  CA        17.9140  -21.8580   11.8070 C.3    58  ILE58       0.1595
     56  C         18.3430  -22.9970   10.8760 C.2    58  ILE58       0.2287
     57  O         18.2970  -22.8750    9.6080 O.2    58  ILE58      -0.2864
     58  CB        16.3690  -21.8100   11.8790 C.3    58  ILE58       0.0276
     59  CG1       15.8320  -22.9280   12.7310 C.3    58  ILE58       0.0022
     60  CG2       15.7470  -21.8730   10.4820 C.3    58  ILE58       0.0022
     61  CD1       15.7900  -22.4900   14.1970 C.3    58  ILE58       0.0001
     62  N         26.7290  -17.5860   12.2960 N.3    66  VAL66      -0.1245
     63  CA        28.0210  -17.5120   11.6840 C.3    66  VAL66       0.1561
     64  C         28.5090  -16.0970   11.6500 C.2    66  VAL66       0.2260
     65  O         27.7040  -15.1600   11.5850 O.2    66  VAL66      -0.2867
     66  CB        27.9880  -18.1350   10.2890 C.3    66  VAL66       0.0252
     67  CG1       27.0650  -17.3720    9.3180 C.3    66  VAL66       0.0019
     68  CG2       29.3380  -18.3010    9.7090 C.3    66  VAL66       0.0019
     69  N         30.9470  -13.3350    9.7150 N.3    68  HIS68      -0.1241
     70  CA        31.6160  -13.0160    8.4410 C.3    68  HIS68       0.1621
     71  C         32.4730  -11.8050    8.5920 C.2    68  HIS68       0.2264
     72  O         32.0680  -10.8230    9.2900 O.2    68  HIS68      -0.2867
     73  CB        30.5710  -12.6490    7.3980 C.3    68  HIS68       0.0745
     74  CG        29.7580  -13.8120    6.9510 C.ar   68  HIS68       0.0817
     75  ND1       28.7040  -13.6850    6.0730 N.ar   68  HIS68      -0.2268
     76  CD2       29.9020  -15.1260    7.1670 C.ar   68  HIS68       0.1154
     77  CE1       28.1530  -14.8750    5.8950 C.ar   68  HIS68       0.1986
     78  NE2       28.8550  -15.7740    6.5270 N.ar   68  HIS68      -0.2212
     79  N         34.3330  -11.7680    1.4950 N.3    82  TYR82      -0.1241
     80  CA        34.2990  -11.9790    2.9390 C.3    82  TYR82       0.1605
     81  C         34.8040  -13.3540    3.2770 C.2    82  TYR82       0.2264
     82  O         34.9110  -14.2260    2.4180 O.2    82  TYR82      -0.2867
     83  CB        32.8750  -11.7750    3.4420 C.3    82  TYR82       0.0534
     84  CG        31.8810  -12.8320    3.0580 C.ar   82  TYR82      -0.0201
     85  CD1       31.6530  -13.9900    3.8240 C.ar   82  TYR82      -0.0009
     86  CD2       31.1810  -12.7680    1.8650 C.ar   82  TYR82      -0.0009
     87  CE1       30.7080  -14.9580    3.4820 C.ar   82  TYR82       0.0417
     88  CE2       30.1950  -13.7230    1.5800 C.ar   82  TYR82       0.0417
     89  CZ        29.9970  -14.7980    2.3760 C.ar   82  TYR82       0.1957
     90  OH        29.0650  -15.7900    2.1680 O.3    82  TYR82      -0.2866
     91  N         35.0290  -16.2130    0.4840 N.3    99  PHE99      -0.1241
     92  CA        34.1730  -15.9690   -0.6740 C.3    99  PHE99       0.1605
     93  C         34.5370  -14.6920   -1.3820 C.2    99  PHE99       0.2264
     94  O         34.8060  -13.6430   -0.8170 O.2    99  PHE99      -0.2867
     95  CB        32.7310  -15.7950   -0.1370 C.3    99  PHE99       0.0534
     96  CG        32.1610  -16.9890    0.5020 C.ar   99  PHE99      -0.0203
     97  CD1       32.4370  -17.2540    1.8250 C.ar   99  PHE99      -0.0042
     98  CD2       31.3700  -17.8520   -0.1850 C.ar   99  PHE99      -0.0042
     99  CE1       31.9710  -18.3900    2.4250 C.ar   99  PHE99      -0.0003
    100  CE2       30.9050  -18.9900    0.4350 C.ar   99  PHE99      -0.0003
    101  CZ        31.1960  -19.2490    1.7210 C.ar   99  PHE99      -0.0000
    102  N         32.7190  -12.4970   -4.4610 N.3   101  THR101     -0.1218
    103  CA        31.4730  -12.3610   -5.2470 C.3   101  THR101      0.1862
    104  C         31.4720  -11.1360   -6.0960 C.2   101  THR101      0.2287
    105  O         32.1460  -10.1190   -5.8350 O.2   101  THR101     -0.2866
    106  CB        30.2470  -12.2370   -4.3300 C.3   101  THR101      0.1770
    107  OG1       30.1250  -10.9190   -3.7650 O.3   101  THR101     -0.2211
    108  CG2       30.2110  -13.3120   -3.2130 C.3   101  THR101      0.0375
    109  N         30.1570  -16.4470   -7.7490 N.3   115  VAL115     -0.1245
    110  CA        30.7670  -16.6850   -6.4600 C.3   115  VAL115      0.1561
    111  C         31.9160  -17.6640   -6.5870 C.2   115  VAL115      0.2260
    112  O         31.7560  -18.7560   -7.2040 O.2   115  VAL115     -0.2867
    113  CB        29.7520  -17.2730   -5.4740 C.3   115  VAL115      0.0252
    114  CG1       30.4170  -17.4400   -4.0670 C.3   115  VAL115      0.0019
    115  CG2       28.5730  -16.2980   -5.3610 C.3   115  VAL115      0.0019
    116  N         25.8770  -26.6570    1.2760 N.3   135  ALA135     -0.1245
    117  CA        26.2450  -25.2790    1.0430 C.3   135  ALA135      0.1562
    118  C         25.8620  -24.7650   -0.2920 C.2   135  ALA135      0.2260
    119  O         25.3860  -23.6290   -0.4040 O.2   135  ALA135     -0.2867
    120  CB        27.7520  -25.0950    1.2800 C.3   135  ALA135      0.0290
    121  N         22.2400  -24.1700   -0.4100 N.3   138  ARG138     -0.1231
    122  CA        21.9180  -22.9320    0.3970 C.3   138  ARG138      0.1694
    123  C         22.1750  -21.6810   -0.4380 C.2   138  ARG138      0.2592
    124  O         21.4030  -20.7530   -0.4610 O.2   138  ARG138     -0.2718
    125  CB        22.6860  -22.8610    1.7390 C.3   138  ARG138      0.0321
    126  CG        22.0360  -23.5520    2.9200 C.3   138  ARG138      0.0489
    127  CD        22.6550  -23.2100    4.2830 C.3   138  ARG138      0.2205
    128  NE        24.1040  -23.3210    4.3000 N.pl3 138  ARG138     -0.0865
    129  CZ        24.7870  -24.4330    4.4990 C.cat 138  ARG138      0.5346
    130  NH1       24.2040  -25.6120    4.6700 N.pl3 138  ARG138      0.1354
    131  NH2       26.1140  -24.3680    4.5000 N.pl3 138  ARG138      0.1354
    132  N         23.2740  -21.6730   -1.1420 N.am  139  GLY139     -0.1957
    133  CA        23.6040  -20.5700   -2.0080 C.3   139  GLY139      0.1869
    134  C         22.5670  -20.3210   -3.0640 C.2   139  GLY139      0.2309
    135  O         22.1150  -19.2030   -3.3400 O.2   139  GLY139     -0.2863
    136  N         19.4330  -21.3250   -2.9360 N.3   141  ALA141     -0.1231
    137  CA        18.1980  -20.8950   -2.3220 C.3   141  ALA141      0.1694
    138  C         18.2460  -19.4250   -1.8910 C.2   141  ALA141      0.2592
    139  O         17.1880  -18.7580   -1.8990 O.2   141  ALA141     -0.2718
    140  CB        17.8800  -21.7640   -1.0960 C.3   141  ALA141      0.0304
    141  N         19.4030  -19.0110   -1.4430 N.am  142  PHE142     -0.1976
    142  CA        19.6500  -17.6400   -0.9450 C.3   142  PHE142      0.1639
    143  C         19.4190  -16.6770   -2.0870 C.2   142  PHE142      0.2290
    144  O         18.5900  -15.7550   -1.9730 O.2   142  PHE142     -0.2864
    145  CB        21.0690  -17.5160   -0.4340 C.3   142  PHE142      0.0560
    146  CG        21.4350  -16.1590    0.1060 C.ar  142  PHE142     -0.0200
    147  CD1       21.4350  -15.8900    1.4760 C.ar  142  PHE142     -0.0042
    148  CD2       21.9880  -15.2550   -0.7510 C.ar  142  PHE142     -0.0042
    149  CE1       21.8550  -14.6410    1.9290 C.ar  142  PHE142     -0.0003
    150  CE2       22.4160  -14.0280   -0.3010 C.ar  142  PHE142     -0.0003
    151  CZ        22.3230  -13.7090    1.0000 C.ar  142  PHE142     -0.0000
@<TRIPOS>BOND
     1     4     3    2
     2     3     2    1
     3     1     2    1
     4     2     5    1
     5     5     6    1
     6     6     7   ar
     7     6     8   ar
     8     7     9   ar
     9   109   110    1
    10     8    10   ar
    11   112   111    2
    12     9    11   ar
    13   111   110    1
    14    10    11   ar
    15   110   113    1
    16    11    12    1
    17   104   105    2
    18   104   103    1
    19   113   115    1
    20   113   114    1
    21   103   102    1
    22   103   106    1
    23   106   107    1
    24   106   108    1
    25   135   134    2
    26   134   133    1
    27   136   137    1
    28   137   138    1
    29   137   140    1
    30   143   144    2
    31   143   142    1
    32   133   132    1
    33   139   138    2
    34   138   141   am
    35   141   142    1
    36    93    94    2
    37    93    92    1
    38   132   123   am
    39   142   145    1
    40   148   150   ar
    41   148   146   ar
    42    92    95    1
    43    92    91    1
    44   124   123    2
    45   123   122    1
    46   145   146    1
    47   121   122    1
    48   119   118    2
    49   150   151   ar
    50   118   117    1
    51    98   100   ar
    52    98    96   ar
    53    95    96    1
    54   146   147   ar
    55   122   125    1
    56   100   101   ar
    57    96    97   ar
    58   151   149   ar
    59   117   116    1
    60   117   120    1
    61   147   149   ar
    62    79    80    1
    63    88    86   ar
    64    88    89   ar
    65   101    99   ar
    66   125   126    1
    67    97    99   ar
    68    86    84   ar
    69    90    89    1
    70    19    17    1
    71    89    87   ar
    72    82    81    2
    73   126   127    1
    74    80    81    1
    75    80    83    1
    76    84    83    1
    77    84    85   ar
    78    13    14    1
    79    14    17    1
    80    14    15    1
    81    17    18    1
    82    87    85   ar
    83   127   128    1
    84   128   129    2
    85   129   131    1
    86   129   130    1
    87    15    16    2
    88    34    32    1
    89    25    24    1
    90    77    75   ar
    91    77    78   ar
    92    75    74   ar
    93    26    24    1
    94    20    21    1
    95    78    76   ar
    96    32    31    1
    97    24    21    1
    98    41    40    1
    99    74    76   ar
   100    74    73    1
   101    31    33    1
   102    31    28    1
   103    21    22    1
   104    73    70    1
   105    27    22   am
   106    27    28    1
   107    22    23    2
   108    40    42    1
   109    40    39    1
   110    28    29    1
   111    70    71    1
   112    70    69    1
   113    71    72    2
   114    30    29    2
   115    39    36    1
   116    67    66    1
   117    57    56    2
   118    68    66    1
   119    47    48    1
   120    47    44    1
   121    50    48   ar
   122    50    52   ar
   123    48    49   ar
   124    52    53   ar
   125    66    63    1
   126    49    51   ar
   127    60    58    1
   128    53    51   ar
   129    36    35    1
   130    36    37    1
   131    56    55    1
   132    44    45    1
   133    44    43    1
   134    54    55    1
   135    54    45   am
   136    37    38    2
   137    65    64    2
   138    64    63    1
   139    63    62    1
   140    55    58    1
   141    45    46    2
   142    58    59    1
   143    59    61    1
