@<TRIPOS>MOLECULE
tmp/5mxcA04.pdb
 117 112 0 0 0
SMALL
GASTEIGER

@<TRIPOS>ATOM
      1  N         31.8020  -31.0040   -7.0240 N.3   219  TRP219     -0.1241
      2  CA        32.0200  -30.5070   -5.6710 C.3   219  TRP219      0.1605
      3  C         33.0270  -31.3990   -4.9570 C.2   219  TRP219      0.2264
      4  O         33.3650  -32.4900   -5.4200 O.2   219  TRP219     -0.2867
      5  CB        30.7110  -30.4370   -4.8620 C.3   219  TRP219      0.0550
      6  CG        30.1760  -31.7690   -4.4500 C.ar  219  TRP219      0.0003
      7  CD1       30.2870  -32.3760   -3.2180 C.ar  219  TRP219      0.0946
      8  CD2       29.4350  -32.6780   -5.2710 C.ar  219  TRP219      0.0152
      9  NE1       29.6660  -33.5880   -3.2510 N.ar  219  TRP219     -0.2442
     10  CE2       29.1340  -33.8040   -4.4930 C.ar  219  TRP219      0.0810
     11  CE3       28.9750  -32.6420   -6.5960 C.ar  219  TRP219      0.0012
     12  CZ2       28.4230  -34.8920   -5.0090 C.ar  219  TRP219      0.0191
     13  CZ3       28.2590  -33.7240   -7.0890 C.ar  219  TRP219      0.0001
     14  CH2       27.9870  -34.8230   -6.2950 C.ar  219  TRP219      0.0015
     15  N         29.4340  -34.7940  -11.7280 N.3   226  ARG226     -0.1245
     16  CA        28.2410  -35.3920  -12.3420 C.3   226  ARG226      0.1563
     17  C         28.0190  -34.7250  -13.6920 C.2   226  ARG226      0.2260
     18  O         28.0180  -33.4860  -13.7880 O.2   226  ARG226     -0.2867
     19  CB        26.9960  -35.2270  -11.4770 C.3   226  ARG226      0.0307
     20  CG        27.0930  -35.8010  -10.0660 C.3   226  ARG226      0.0489
     21  CD        27.2140  -37.3170  -10.0260 C.3   226  ARG226      0.2205
     22  NE        27.2650  -37.8220   -8.6490 N.pl3 226  ARG226     -0.0865
     23  CZ        28.3760  -38.0150   -7.9350 C.cat 226  ARG226      0.5346
     24  NH1       29.5810  -37.8120   -8.4470 N.pl3 226  ARG226      0.1354
     25  NH2       28.2750  -38.4470   -6.6740 N.pl3 226  ARG226      0.1354
     26  N         25.3330  -34.6140  -16.8840 N.3   228  TYR228     -0.1241
     27  CA        23.9470  -34.8810  -17.2560 C.3   228  TYR228      0.1605
     28  C         23.7610  -34.7000  -18.7360 C.2   228  TYR228      0.2264
     29  O         24.3250  -33.7670  -19.3390 O.2   228  TYR228     -0.2867
     30  CB        22.9900  -33.9190  -16.5170 C.3   228  TYR228      0.0534
     31  CG        23.0720  -34.1060  -15.0420 C.ar  228  TYR228     -0.0201
     32  CD1       22.4530  -35.1940  -14.4410 C.ar  228  TYR228     -0.0009
     33  CD2       23.8450  -33.2740  -14.2380 C.ar  228  TYR228     -0.0009
     34  CE1       22.5920  -35.4410  -13.0920 C.ar  228  TYR228      0.0417
     35  CE2       23.9830  -33.5030  -12.8830 C.ar  228  TYR228      0.0417
     36  CZ        23.3760  -34.5960  -12.3100 C.ar  228  TYR228      0.1957
     37  OH        23.5890  -34.8470  -10.9650 O.3   228  TYR228     -0.2866
     38  N         22.7190  -39.5850  -16.1900 N.3   238  GLU238     -0.1245
     39  CA        23.8120  -39.0800  -15.3630 C.3   238  GLU238      0.1567
     40  C         24.9900  -40.0230  -15.4260 C.2   238  GLU238      0.2260
     41  O         24.8180  -41.2350  -15.2470 O.2   238  GLU238     -0.2867
     42  CB        23.3810  -38.9670  -13.9070 C.3   238  GLU238      0.0388
     43  CG        24.4300  -38.3730  -12.9660 C.3   238  GLU238      0.1160
     44  CD        24.0830  -38.5820  -11.5100 C.2   238  GLU238      0.3649
     45  OE1       24.1350  -39.7510  -11.0540 O.co2 238  GLU238     -0.2457
     46  OE2       23.7730  -37.6070  -10.7920 O.co2 238  GLU238     -0.2457
     47  N         28.6170  -40.4240  -13.2350 N.3   240  ALA240     -0.1245
     48  CA        29.1620  -39.9770  -11.9570 C.3   240  ALA240      0.1562
     49  C         30.6190  -40.3760  -11.8070 C.2   240  ALA240      0.2260
     50  O         30.9840  -41.5460  -12.0490 O.2   240  ALA240     -0.2867
     51  CB        28.3580  -40.5380  -10.7980 C.3   240  ALA240      0.0290
     52  N         31.4380  -44.1520  -13.3390 N.3   246  ASN246     -0.1240
     53  CA        30.4960  -45.2730  -13.3330 C.3   246  ASN246      0.1653
     54  C         29.9130  -45.4790  -14.7300 C.2   246  ASN246      0.2266
     55  O         30.2260  -44.7630  -15.6650 O.2   246  ASN246     -0.2867
     56  CB        29.4010  -45.0590  -12.2790 C.3   246  ASN246      0.1155
     57  CG        28.3900  -43.9840  -12.6690 C.2   246  ASN246      0.2627
     58  OD1       28.6080  -43.2160  -13.6120 O.2   246  ASN246     -0.2716
     59  ND2       27.2900  -43.9100  -11.9260 N.am  246  ASN246     -0.0877
     60  N         17.9050  -41.2370  -14.9010 N.3   251  ILE251     -0.1245
     61  CA        17.1670  -40.6600  -13.7900 C.3   251  ILE251      0.1561
     62  C         15.7420  -40.5560  -14.3040 C.2   251  ILE251      0.2260
     63  O         15.4720  -39.7900  -15.2300 O.2   251  ILE251     -0.2867
     64  CB        17.7180  -39.2750  -13.4030 C.3   251  ILE251      0.0252
     65  CG1       19.1190  -39.4110  -12.8100 C.3   251  ILE251      0.0019
     66  CG2       16.7560  -38.5760  -12.4370 C.3   251  ILE251      0.0019
     67  CD1       19.8730  -38.1010  -12.6930 C.3   251  ILE251      0.0001
     68  N         25.3310  -32.6870   -0.6290 N.3   274  ILE274     -0.1245
     69  CA        25.1620  -31.9810   -1.9170 C.3   274  ILE274      0.1561
     70  C         23.6770  -31.8230   -2.2200 C.2   274  ILE274      0.2260
     71  O         22.8860  -32.7110   -1.9320 O.2   274  ILE274     -0.2867
     72  CB        25.8750  -32.7570   -3.0610 C.3   274  ILE274      0.0252
     73  CG1       25.9820  -31.9180   -4.3460 C.3   274  ILE274      0.0019
     74  CG2       25.1940  -34.0960   -3.3420 C.3   274  ILE274      0.0019
     75  CD1       26.8320  -30.6760   -4.2280 C.3   274  ILE274      0.0001
     76  N         21.2860  -30.8910   -5.5790 N.3   276  ILE276     -0.1245
     77  CA        21.3500  -30.8360   -7.0400 C.3   276  ILE276      0.1561
     78  C         19.9580  -30.6360   -7.6130 C.2   276  ILE276      0.2260
     79  O         19.0240  -31.3490   -7.2300 O.2   276  ILE276     -0.2867
     80  CB        21.9380  -32.1310   -7.6420 C.3   276  ILE276      0.0252
     81  CG1       23.2970  -32.4830   -7.0200 C.3   276  ILE276      0.0019
     82  CG2       22.0440  -31.9960   -9.1600 C.3   276  ILE276      0.0019
     83  CD1       23.7730  -33.8730   -7.3710 C.3   276  ILE276      0.0001
     84  N         17.7680  -34.1640   -6.2400 N.3   292  TRP292     -0.1241
     85  CA        18.4470  -35.2250   -5.5180 C.3   292  TRP292      0.1605
     86  C         18.3740  -34.9800   -4.0250 C.2   292  TRP292      0.2264
     87  O         18.7890  -33.9310   -3.5950 O.2   292  TRP292     -0.2867
     88  CB        19.9400  -35.2490   -5.8840 C.3   292  TRP292      0.0550
     89  CG        20.6920  -36.0720   -4.9040 C.ar  292  TRP292      0.0003
     90  CD1       21.4150  -35.6330   -3.8290 C.ar  292  TRP292      0.0946
     91  CD2       20.7100  -37.4910   -4.8500 C.ar  292  TRP292      0.0152
     92  NE1       21.9080  -36.7050   -3.1300 N.ar  292  TRP292     -0.2442
     93  CE2       21.4860  -37.8590   -3.7360 C.ar  292  TRP292      0.0810
     94  CE3       20.1560  -38.4930   -5.6480 C.ar  292  TRP292      0.0012
     95  CZ2       21.7300  -39.1930   -3.4020 C.ar  292  TRP292      0.0191
     96  CZ3       20.4020  -39.8110   -5.3160 C.ar  292  TRP292      0.0001
     97  CH2       21.1760  -40.1480   -4.2010 C.ar  292  TRP292      0.0015
     98  N         19.7680  -37.2940   -0.5720 N.3   294  SER294     -0.1217
     99  CA        20.4920  -38.4650   -0.0840 C.3   294  SER294      0.1889
    100  C         19.5770  -39.2810    0.8040 C.2   294  SER294      0.2288
    101  O         18.9880  -38.7610    1.7480 O.2   294  SER294     -0.2866
    102  CB        21.7410  -38.0600    0.7020 C.3   294  SER294      0.2089
    103  OG        22.4720  -39.2000    1.1390 O.3   294  SER294     -0.2183
    104  N         16.3360  -39.5530   -6.4150 N.3   298  TRP298     -0.1241
    105  CA        15.8610  -38.5550   -7.3650 C.3   298  TRP298      0.1605
    106  C         14.3430  -38.5360   -7.4700 C.2   298  TRP298      0.2264
    107  O         13.6950  -39.5990   -7.4950 O.2   298  TRP298     -0.2867
    108  CB        16.4130  -38.8720   -8.7430 C.3   298  TRP298      0.0550
    109  CG        17.8690  -38.6260   -8.8960 C.ar  298  TRP298      0.0003
    110  CD1       18.8810  -39.5450   -8.8380 C.ar  298  TRP298      0.0946
    111  CD2       18.4790  -37.3670   -9.1840 C.ar  298  TRP298      0.0152
    112  NE1       20.0900  -38.9270   -9.0640 N.ar  298  TRP298     -0.2442
    113  CE2       19.8710  -37.5900   -9.2810 C.ar  298  TRP298      0.0810
    114  CE3       17.9860  -36.0650   -9.3670 C.ar  298  TRP298      0.0012
    115  CZ2       20.7730  -36.5560   -9.5530 C.ar  298  TRP298      0.0191
    116  CZ3       18.8760  -35.0480   -9.6460 C.ar  298  TRP298      0.0001
    117  CH2       20.2520  -35.2990   -9.7290 C.ar  298  TRP298      0.0015
@<TRIPOS>BOND
     1    29    28    2
     2    28    27    1
     3    27    26    1
     4    27    30    1
     5    30    31    1
     6    38    39    1
     7    55    54    2
     8    40    39    1
     9    40    41    2
    10    39    42    1
    11    63    62    2
    12    31    32   ar
    13    31    33   ar
    14    60    61    1
    15    54    53    1
    16    32    34   ar
    17    62    61    1
    18    33    35   ar
    19    42    43    1
    20    61    64    1
    21    18    17    2
    22    17    16    1
    23    58    57    2
    24    64    65    1
    25    64    66    1
    26    52    53    1
    27    53    56    1
    28    47    48    1
    29    34    36   ar
    30    43    44    1
    31    35    36   ar
    32    65    67    1
    33    57    56    1
    34    57    59   am
    35    16    15    1
    36    16    19    1
    37    36    37    1
    38    50    49    2
    39    48    49    1
    40    48    51    1
    41    44    45   ar
    42    44    46   ar
    43    19    20    1
    44    20    21    1
    45    21    22    1
    46   117   116   ar
    47   117   115   ar
    48   116   114   ar
    49   115   113   ar
    50   114   111   ar
    51   113   111   ar
    52   113   112   ar
    53   111   109   ar
    54    82    80    1
    55   112   110   ar
    56   109   110   ar
    57   109   108    1
    58   108   105    1
    59    22    23    2
    60    24    23    1
    61    23    25    1
    62    80    77    1
    63    80    81    1
    64    78    79    2
    65    78    77    1
    66   107   106    2
    67   106   105    1
    68    83    81    1
    69   105   104    1
    70    13    11   ar
    71    13    14   ar
    72    77    76    1
    73     1     2    1
    74    11     8   ar
    75    14    12   ar
    76    84    85    1
    77    88    85    1
    78    88    89    1
    79     2     3    1
    80     2     5    1
    81    94    96   ar
    82    94    91   ar
    83    85    86    1
    84     4     3    2
    85    96    97   ar
    86     8    10   ar
    87     8     6   ar
    88    12    10   ar
    89    89    91   ar
    90    89    90   ar
    91     5     6    1
    92    91    93   ar
    93    10     9   ar
    94     6     7   ar
    95    73    75    1
    96    73    72    1
    97    97    95   ar
    98    86    87    2
    99    90    92   ar
   100    93    95   ar
   101    93    92   ar
   102    74    72    1
   103     9     7   ar
   104    72    69    1
   105    70    71    2
   106    70    69    1
   107    69    68    1
   108    98    99    1
   109    99   102    1
   110    99   100    1
   111   102   103    1
   112   100   101    2
