@<TRIPOS>MOLECULE
tmp/5mxcA01.pdb
 97 95 0 0 0
SMALL
GASTEIGER

@<TRIPOS>ATOM
      1  N         28.9870  -16.0740   -7.4520 N.3    68  TRP68      -0.1241
      2  CA        29.9060  -16.1470   -6.3100 C.3    68  TRP68       0.1605
      3  C         29.5130  -15.0270   -5.3470 C.2    68  TRP68       0.2264
      4  O         28.7140  -14.1450   -5.6960 O.2    68  TRP68      -0.2867
      5  CB        31.3830  -16.0180   -6.7460 C.3    68  TRP68       0.0550
      6  CG        31.7470  -14.6860   -7.3110 C.ar   68  TRP68       0.0003
      7  CD1       32.3560  -13.6510   -6.6540 C.ar   68  TRP68       0.0946
      8  CD2       31.5070  -14.2110   -8.6450 C.ar   68  TRP68       0.0152
      9  NE1       32.5140  -12.5830   -7.4890 N.ar   68  TRP68      -0.2442
     10  CE2       31.9880  -12.8940   -8.7160 C.ar   68  TRP68       0.0810
     11  CE3       30.9330  -14.7770   -9.7910 C.ar   68  TRP68       0.0012
     12  CZ2       31.9000  -12.1230   -9.8760 C.ar   68  TRP68       0.0191
     13  CZ3       30.8380  -14.0080  -10.9530 C.ar   68  TRP68       0.0001
     14  CH2       31.3250  -12.7000  -10.9840 C.ar   68  TRP68       0.0015
     15  N         26.3260  -13.6340  -13.0720 N.3    77  ARG77      -0.1245
     16  CA        26.5630  -13.2850  -14.4730 C.3    77  ARG77       0.1563
     17  C         25.7360  -14.2350  -15.3180 C.2    77  ARG77       0.2260
     18  O         25.8080  -15.4600  -15.1140 O.2    77  ARG77      -0.2867
     19  CB        28.0370  -13.4150  -14.8330 C.3    77  ARG77       0.0307
     20  CG        28.9730  -12.5790  -13.9600 C.3    77  ARG77       0.0489
     21  CD        28.7780  -11.0860  -14.1570 C.3    77  ARG77       0.2205
     22  NE        29.7010  -10.2670  -13.3510 N.pl3  77  ARG77      -0.0865
     23  CZ        29.4870   -9.8640  -12.1030 C.cat  77  ARG77       0.5346
     24  NH1       28.3880  -10.1790  -11.4470 N.pl3  77  ARG77       0.1354
     25  NH2       30.4270   -9.1490  -11.4910 N.pl3  77  ARG77       0.1354
     26  N         26.3210  -10.2490  -21.8250 N.3    89  GLU89      -0.1245
     27  CA        26.3530  -10.5820  -20.3940 C.3    89  GLU89       0.1567
     28  C         25.4850   -9.6120  -19.6070 C.2    89  GLU89       0.2260
     29  O         25.6130   -8.3930  -19.7670 O.2    89  GLU89      -0.2867
     30  CB        27.7870  -10.4950  -19.8920 C.3    89  GLU89       0.0388
     31  CG        28.0340  -10.7420  -18.4090 C.3    89  GLU89       0.1160
     32  CD        29.4240  -10.3290  -17.9840 C.2    89  GLU89       0.3649
     33  OE1       29.7870   -9.1730  -18.2930 O.co2  89  GLU89      -0.2457
     34  OE2       30.1400  -11.1430  -17.3430 O.co2  89  GLU89      -0.2457
     35  N         24.6800   -8.6020  -15.5680 N.3    91  VAL91      -0.1245
     36  CA        25.3670   -8.6020  -14.2920 C.3    91  VAL91       0.1561
     37  C         24.3790   -8.2870  -13.1820 C.2    91  VAL91       0.2260
     38  O         23.7040   -7.2530  -13.2470 O.2    91  VAL91      -0.2867
     39  CB        26.4320   -7.4800  -14.2910 C.3    91  VAL91       0.0252
     40  CG1       26.9520   -7.1660  -12.8930 C.3    91  VAL91       0.0019
     41  CG2       27.5870   -7.8240  -15.2180 C.3    91  VAL91       0.0019
     42  N         26.6590   -6.1150  -18.5450 N.3   100  GLY100     -0.1210
     43  CA        28.0650   -6.3150  -18.2780 C.3   100  GLY100      0.1956
     44  C         28.9630   -5.9470  -19.4370 C.2   100  GLY100      0.2611
     45  O         28.5040   -5.6750  -20.5540 O.2   100  GLY100     -0.2717
     46  N         30.2640   -5.9910  -19.1800 N.am  101  GLN101     -0.1979
     47  CA        31.2620   -5.5480  -20.1540 C.3   101  GLN101      0.1601
     48  C         31.5050   -6.5220  -21.3130 C.2   101  GLN101      0.2287
     49  O         32.0750   -6.1110  -22.3250 O.2   101  GLN101     -0.2864
     50  CB        32.5900   -5.2840  -19.4440 C.3   101  GLN101      0.0394
     51  CG        32.5560   -4.0960  -18.5020 C.3   101  GLN101      0.0908
     52  CD        33.8520   -3.9710  -17.7390 C.2   101  GLN101      0.2608
     53  OE1       34.8310   -3.4150  -18.2570 O.2   101  GLN101     -0.2717
     54  NE2       33.8950   -4.5070  -16.5270 N.am  101  GLN101     -0.0878
     55  N         37.1270  -13.1740   -8.7890 N.3   128  PRO128     -0.2116
     56  CA        36.5730  -14.2810   -9.5630 C.3   128  PRO128      0.1372
     57  C         37.4030  -14.6140  -10.7920 C.2   128  PRO128      0.2244
     58  O         38.1030  -13.7540  -11.3400 O.2   128  PRO128     -0.2868
     59  CB        35.2040  -13.7490   -9.9800 C.3   128  PRO128      0.0268
     60  CG        35.4350  -12.2870  -10.1160 C.3   128  PRO128      0.0207
     61  CD        36.3790  -11.9270   -9.0140 C.3   128  PRO128      0.0892
     62  N         36.3440  -16.3790  -14.4170 N.3   130  ILE130     -0.1245
     63  CA        35.2020  -16.8570  -15.1950 C.3   130  ILE130      0.1561
     64  C         35.7160  -17.3960  -16.5200 C.2   130  ILE130      0.2260
     65  O         36.6320  -16.8240  -17.1180 O.2   130  ILE130     -0.2867
     66  CB        34.1700  -15.7200  -15.4420 C.3   130  ILE130      0.0252
     67  CG1       33.7080  -15.0710  -14.1370 C.3   130  ILE130      0.0019
     68  CG2       32.9750  -16.2550  -16.2230 C.3   130  ILE130      0.0019
     69  CD1       32.9720  -13.7680  -14.3540 C.3   130  ILE130      0.0001
     70  N         37.8730  -14.4370  -18.2100 N.3   149  TRP149     -0.1241
     71  CA        37.9630  -13.2820  -17.2990 C.3   149  TRP149      0.1605
     72  C         38.7850  -13.6690  -16.0950 C.2   149  TRP149      0.2264
     73  O         38.3260  -14.4470  -15.2550 O.2   149  TRP149     -0.2867
     74  CB        36.6080  -12.8260  -16.7640 C.3   149  TRP149      0.0550
     75  CG        36.7650  -11.7080  -15.7140 C.ar  149  TRP149      0.0003
     76  CD1       37.0470  -11.8330  -14.3630 C.ar  149  TRP149      0.0946
     77  CD2       36.6500  -10.3130  -15.9580 C.ar  149  TRP149      0.0152
     78  NE1       37.1300  -10.5960  -13.7820 N.ar  149  TRP149     -0.2442
     79  CE2       36.8720   -9.6450  -14.7340 C.ar  149  TRP149      0.0810
     80  CE3       36.3620   -9.5600  -17.0910 C.ar  149  TRP149      0.0012
     81  CZ2       36.8300   -8.2550  -14.6260 C.ar  149  TRP149      0.0191
     82  CZ3       36.3210   -8.1870  -16.9820 C.ar  149  TRP149      0.0001
     83  CH2       36.5450   -7.5480  -15.7600 C.ar  149  TRP149      0.0015
     84  N         38.5780   -9.2980  -19.9350 N.3   153  TRP153     -0.1241
     85  CA        38.2050  -10.3390  -20.9030 C.3   153  TRP153      0.1605
     86  C         39.2850  -10.5230  -21.9650 C.2   153  TRP153      0.2264
     87  O         39.7500   -9.5410  -22.5720 O.2   153  TRP153     -0.2867
     88  CB        36.8830  -10.0170  -21.5930 C.3   153  TRP153      0.0550
     89  CG        35.6890  -10.1780  -20.7210 C.ar  153  TRP153      0.0003
     90  CD1       34.9140   -9.1790  -20.2060 C.ar  153  TRP153      0.0946
     91  CD2       35.1230  -11.4160  -20.2460 C.ar  153  TRP153      0.0152
     92  NE1       33.9030   -9.7170  -19.4420 N.ar  153  TRP153     -0.2442
     93  CE2       34.0100  -11.0850  -19.4490 C.ar  153  TRP153      0.0810
     94  CE3       35.4320  -12.7750  -20.4480 C.ar  153  TRP153      0.0012
     95  CZ2       33.2180  -12.0550  -18.8360 C.ar  153  TRP153      0.0191
     96  CZ3       34.6390  -13.7440  -19.8390 C.ar  153  TRP153      0.0001
     97  CH2       33.5410  -13.3720  -19.0470 C.ar  153  TRP153      0.0015
@<TRIPOS>BOND
     1    87    86    2
     2    49    48    2
     3    86    85    1
     4    26    27    1
     5    88    85    1
     6    88    89    1
     7    48    47    1
     8    85    84    1
     9    89    91   ar
    10    89    90   ar
    11    45    44    2
    12    94    91   ar
    13    94    96   ar
    14    27    30    1
    15    27    28    1
    16    91    93   ar
    17    90    92   ar
    18    47    50    1
    19    47    46    1
    20    30    31    1
    21    96    97   ar
    22    29    28    2
    23    93    92   ar
    24    93    95   ar
    25    50    51    1
    26    44    46   am
    27    44    43    1
    28    97    95   ar
    29    42    43    1
    30    51    52    1
    31    31    32    1
    32    33    32   ar
    33    53    52    2
    34    70    71    1
    35    32    34   ar
    36    52    54   am
    37    71    74    1
    38    71    72    1
    39    65    64    2
    40    80    82   ar
    41    80    77   ar
    42    82    83   ar
    43    74    75    1
    44    64    63    1
    45    68    66    1
    46    72    73    2
    47    77    75   ar
    48    77    79   ar
    49    83    81   ar
    50    75    76   ar
    51    35    36    1
    52    66    63    1
    53    66    67    1
    54    17    18    2
    55    17    16    1
    56    41    39    1
    57    63    62    1
    58    19    16    1
    59    19    20    1
    60    79    81   ar
    61    79    78   ar
    62    16    15    1
    63    76    78   ar
    64    69    67    1
    65    36    39    1
    66    36    37    1
    67    39    40    1
    68    21    20    1
    69    21    22    1
    70    22    23    2
    71    38    37    2
    72    23    25    1
    73    23    24    1
    74    58    57    2
    75    14    13   ar
    76    14    12   ar
    77    13    11   ar
    78    57    56    1
    79    60    59    1
    80    60    61    1
    81    59    56    1
    82    12    10   ar
    83    11     8   ar
    84    56    55    1
    85    61    55    1
    86    10     8   ar
    87    10     9   ar
    88     8     6   ar
    89     9     7   ar
    90     1     2    1
    91     6     5    1
    92     6     7   ar
    93     5     2    1
    94     2     3    1
    95     4     3    2
