@<TRIPOS>MOLECULE
tmp/5mxcA03.pdb
 125 119 0 0 0
SMALL
GASTEIGER

@<TRIPOS>ATOM
      1  N         36.2530  -28.0820  -11.1830 N.3   173  ILE173     -0.1245
      2  CA        36.2860  -29.1900  -10.2210 C.3   173  ILE173      0.1561
      3  C         37.1970  -28.9200   -9.0300 C.2   173  ILE173      0.2260
      4  O         37.1810  -29.6830   -8.0500 O.2   173  ILE173     -0.2867
      5  CB        36.6450  -30.5280  -10.9070 C.3   173  ILE173      0.0252
      6  CG1       38.1160  -30.5840  -11.3650 C.3   173  ILE173      0.0019
      7  CG2       35.7040  -30.8120  -12.0720 C.3   173  ILE173      0.0019
      8  CD1       38.5870  -31.9590  -11.7700 C.3   173  ILE173      0.0001
      9  N         40.9910  -25.7730  -11.9180 N.3   177  ARG177     -0.1245
     10  CA        40.9510  -27.1010  -12.5030 C.3   177  ARG177      0.1563
     11  C         39.5960  -27.2630  -13.1970 C.2   177  ARG177      0.2260
     12  O         38.5480  -27.2280  -12.5250 O.2   177  ARG177     -0.2867
     13  CB        41.1510  -28.1120  -11.3840 C.3   177  ARG177      0.0307
     14  CG        41.5500  -29.4910  -11.8240 C.3   177  ARG177      0.0489
     15  CD        41.7120  -30.4120  -10.6300 C.3   177  ARG177      0.2205
     16  NE        42.1760  -31.7300  -11.0410 N.pl3 177  ARG177     -0.0865
     17  CZ        42.0050  -32.8320  -10.3240 C.cat 177  ARG177      0.5346
     18  NH1       41.3460  -32.7870   -9.1770 N.pl3 177  ARG177      0.1354
     19  NH2       42.4630  -33.9880  -10.7740 N.pl3 177  ARG177      0.1354
     20  N         36.8310  -28.9020  -16.2010 N.3   179  ARG179     -0.1245
     21  CA        36.3990  -30.0200  -17.0390 C.3   179  ARG179      0.1563
     22  C         35.2530  -29.5710  -17.9200 C.2   179  ARG179      0.2260
     23  O         34.2570  -29.0070  -17.4340 O.2   179  ARG179     -0.2867
     24  CB        35.9760  -31.2190  -16.1790 C.3   179  ARG179      0.0307
     25  CG        37.0980  -31.8100  -15.3270 C.3   179  ARG179      0.0489
     26  CD        38.1880  -32.4930  -16.1550 C.3   179  ARG179      0.2205
     27  NE        39.2320  -33.1160  -15.3420 N.pl3 179  ARG179     -0.0865
     28  CZ        40.3080  -32.5070  -14.8480 C.cat 179  ARG179      0.5346
     29  NH1       40.5170  -31.2040  -15.0280 N.pl3 179  ARG179      0.1354
     30  NH2       41.1860  -33.2140  -14.1360 N.pl3 179  ARG179      0.1354
     31  N         35.4520  -35.2990  -23.0560 N.3   191  GLU191     -0.1245
     32  CA        35.8680  -34.4590  -21.9400 C.3   191  GLU191      0.1567
     33  C         37.1960  -33.8110  -22.2710 C.2   191  GLU191      0.2260
     34  O         38.1180  -34.5130  -22.7430 O.2   191  GLU191     -0.2867
     35  CB        36.0130  -35.3560  -20.7100 C.3   191  GLU191      0.0388
     36  CG        36.4880  -34.6680  -19.4300 C.3   191  GLU191      0.1160
     37  CD        36.7910  -35.6520  -18.3100 C.2   191  GLU191      0.3649
     38  OE1       37.5140  -36.6390  -18.5870 O.co2 191  GLU191     -0.2457
     39  OE2       36.3380  -35.4270  -17.1620 O.co2 191  GLU191     -0.2457
     40  N         40.2140  -31.2470  -20.4130 N.3   193  CYS193     -0.1235
     41  CA        40.6570  -31.0190  -19.0510 C.3   193  CYS193      0.1677
     42  C         41.7660  -29.9890  -18.9570 C.2   193  CYS193      0.2270
     43  O         42.7090  -30.0240  -19.7570 O.2   193  CYS193     -0.2867
     44  CB        41.2440  -32.3160  -18.4920 C.3   193  CYS193      0.0956
     45  SG        40.2080  -33.7800  -18.6210 S.3   193  CYS193     -0.0801
     46  N         44.3190  -28.8530  -15.7270 N.3   195  ASP195     -0.1239
     47  CA        44.7280  -28.9510  -14.3190 C.3   195  ASP195      0.1674
     48  C         45.6700  -27.8330  -13.8750 C.2   195  ASP195      0.2266
     49  O         45.5620  -27.3710  -12.7460 O.2   195  ASP195     -0.2867
     50  CB        45.4000  -30.2950  -14.0250 C.3   195  ASP195      0.1410
     51  CG        44.4370  -31.4660  -14.0470 C.2   195  ASP195      0.3668
     52  OD1       43.2670  -31.2960  -13.6820 O.co2 195  ASP195     -0.2456
     53  OD2       44.8870  -32.5650  -14.4230 O.co2 195  ASP195     -0.2456
     54  N         44.1650  -31.0540  -21.9450 N.3   200  TYR200     -0.1241
     55  CA        44.3670  -32.4230  -22.4230 C.3   200  TYR200      0.1605
     56  C         43.0480  -33.1670  -22.5120 C.2   200  TYR200      0.2264
     57  O         42.0500  -32.8150  -21.8550 O.2   200  TYR200     -0.2867
     58  CB        45.3560  -33.1770  -21.5370 C.3   200  TYR200      0.0534
     59  CG        44.9140  -33.4120  -20.1140 C.ar  200  TYR200     -0.0201
     60  CD1       44.2300  -34.5700  -19.7630 C.ar  200  TYR200     -0.0009
     61  CD2       45.2170  -32.5050  -19.1110 C.ar  200  TYR200     -0.0009
     62  CE1       43.8450  -34.8090  -18.4650 C.ar  200  TYR200      0.0417
     63  CE2       44.8260  -32.7350  -17.8030 C.ar  200  TYR200      0.0417
     64  CZ        44.1430  -33.8890  -17.4790 C.ar  200  TYR200      0.1957
     65  OH        43.7540  -34.1640  -16.1910 O.3   200  TYR200     -0.2866
     66  N         40.4090  -35.8290  -21.7400 N.3   202  GLY202     -0.1210
     67  CA        40.0840  -36.5910  -20.5490 C.3   202  GLY202      0.1956
     68  C         39.6910  -38.0160  -20.8480 C.2   202  GLY202      0.2612
     69  O         39.4320  -38.3870  -21.9930 O.2   202  GLY202     -0.2717
     70  N         39.6110  -38.8000  -19.7840 N.am  203  GLY203     -0.1942
     71  CA        39.2800  -40.2110  -19.9150 C.3   203  GLY203      0.2014
     72  C         37.7930  -40.5130  -20.0330 C.2   203  GLY203      0.2638
     73  O         37.4310  -41.6300  -20.4100 O.2   203  GLY203     -0.2714
     74  N         36.9170  -39.5540  -19.7320 N.am  204  PHE204     -0.1973
     75  CA        35.4810  -39.8230  -19.7730 C.3   204  PHE204      0.1639
     76  C         34.9780  -39.9030  -21.2060 C.2   204  PHE204      0.2290
     77  O         35.2770  -39.0250  -22.0120 O.2   204  PHE204     -0.2864
     78  CB        34.6950  -38.7100  -19.0930 C.3   204  PHE204      0.0560
     79  CG        33.2100  -38.8980  -19.2080 C.ar  204  PHE204     -0.0200
     80  CD1       32.5910  -39.9500  -18.5650 C.ar  204  PHE204     -0.0042
     81  CD2       32.4420  -38.0660  -20.0170 C.ar  204  PHE204     -0.0042
     82  CE1       31.2300  -40.1580  -18.7010 C.ar  204  PHE204     -0.0003
     83  CE2       31.0710  -38.2750  -20.1460 C.ar  204  PHE204     -0.0003
     84  CZ        30.4800  -39.3160  -19.4760 C.ar  204  PHE204     -0.0000
     85  N         37.6370  -34.8480   -6.7810 N.3   223  PRO223     -0.2116
     86  CA        36.2980  -34.3440   -6.5000 C.3   223  PRO223      0.1372
     87  C         35.2170  -35.2430   -7.0810 C.2   223  PRO223      0.2244
     88  O         35.4890  -36.1090   -7.9090 O.2   223  PRO223     -0.2868
     89  CB        36.3090  -32.9950   -7.2330 C.3   223  PRO223      0.0268
     90  CG        37.1580  -33.2390   -8.4250 C.3   223  PRO223      0.0207
     91  CD        38.1880  -34.2670   -8.0180 C.3   223  PRO223      0.0892
     92  N         32.1690  -35.4880   -9.6090 N.3   225  ILE225     -0.1245
     93  CA        31.6960  -34.8400  -10.8390 C.3   225  ILE225      0.1561
     94  C         30.4260  -35.5530  -11.2530 C.2   225  ILE225      0.2260
     95  O         30.3350  -36.7830  -11.1290 O.2   225  ILE225     -0.2867
     96  CB        32.7190  -34.8960  -12.0050 C.3   225  ILE225      0.0252
     97  CG1       34.1090  -34.4700  -11.5230 C.3   225  ILE225      0.0019
     98  CG2       32.2360  -34.0220  -13.1560 C.3   225  ILE225      0.0019
     99  CD1       35.2080  -34.7440  -12.5220 C.3   225  ILE225      0.0001
    100  N         31.4500  -39.4150  -11.4060 N.3   241  TYR241     -0.1241
    101  CA        32.8470  -39.6390  -11.0830 C.3   241  TYR241      0.1605
    102  C         33.0440  -39.4810   -9.5930 C.2   241  TYR241      0.2264
    103  O         32.6910  -38.4430   -9.0370 O.2   241  TYR241     -0.2867
    104  CB        33.7420  -38.6350  -11.8120 C.3   241  TYR241      0.0534
    105  CG        35.2170  -38.7900  -11.5320 C.ar  241  TYR241     -0.0201
    106  CD1       35.9990  -39.6460  -12.2870 C.ar  241  TYR241     -0.0009
    107  CD2       35.8380  -38.0480  -10.5330 C.ar  241  TYR241     -0.0009
    108  CE1       37.3580  -39.7580  -12.0470 C.ar  241  TYR241      0.0417
    109  CE2       37.1940  -38.1590  -10.2900 C.ar  241  TYR241      0.0417
    110  CZ        37.9430  -39.0190  -11.0440 C.ar  241  TYR241      0.1957
    111  OH        39.3070  -39.1290  -10.8130 O.3   241  TYR241     -0.2866
    112  N         34.8690  -43.2610  -13.2060 N.3   245  TRP245     -0.1241
    113  CA        33.5380  -43.0470  -13.7880 C.3   245  TRP245      0.1605
    114  C         32.7070  -44.3140  -13.6790 C.2   245  TRP245      0.2264
    115  O         33.2100  -45.4270  -13.9270 O.2   245  TRP245     -0.2867
    116  CB        33.6440  -42.6450  -15.2550 C.3   245  TRP245      0.0550
    117  CG        34.2120  -41.2790  -15.4180 C.ar  245  TRP245      0.0003
    118  CD1       35.4940  -40.9610  -15.7120 C.ar  245  TRP245      0.0946
    119  CD2       33.5120  -40.0390  -15.2680 C.ar  245  TRP245      0.0152
    120  NE1       35.6460  -39.6020  -15.7560 N.ar  245  TRP245     -0.2442
    121  CE2       34.4410  -39.0100  -15.4930 C.ar  245  TRP245      0.0810
    122  CE3       32.1870  -39.7010  -14.9900 C.ar  245  TRP245      0.0012
    123  CZ2       34.0920  -37.6510  -15.4390 C.ar  245  TRP245      0.0191
    124  CZ3       31.8280  -38.3640  -14.9430 C.ar  245  TRP245      0.0001
    125  CH2       32.7790  -37.3440  -15.1670 C.ar  245  TRP245      0.0015
@<TRIPOS>BOND
     1    31    32    1
     2    34    33    2
     3    56    55    1
     4    56    57    2
     5    55    54    1
     6    55    58    1
     7    33    32    1
     8    77    76    2
     9    69    68    2
    10    32    35    1
    11    66    67    1
    12    58    59    1
    13    76    75    1
    14    68    67    1
    15    68    70   am
    16    35    36    1
    17    40    41    1
    18    73    72    2
    19    83    81   ar
    20    83    84   ar
    21    59    60   ar
    22    59    61   ar
    23    72    71    1
    24    72    74   am
    25    81    79   ar
    26    71    70    1
    27    75    74    1
    28    75    78    1
    29    60    62   ar
    30    43    42    2
    31    84    82   ar
    32    36    37    1
    33    79    78    1
    34    79    80   ar
    35    61    63   ar
    36    41    42    1
    37    41    44    1
    38    82    80   ar
    39    45    44    1
    40    38    37   ar
    41    62    64   ar
    42    37    39   ar
    43    22    23    2
    44    22    21    1
    45    63    64   ar
    46    64    65    1
    47    21    20    1
    48    21    24    1
    49    24    25    1
    50    26    27    1
    51    26    25    1
    52   120   118   ar
    53   120   121   ar
    54    46    47    1
    55   118   117   ar
    56   121   123   ar
    57   121   119   ar
    58   123   125   ar
    59   117   119   ar
    60   117   116    1
    61    27    28    2
    62   119   122   ar
    63   116   113    1
    64   125   124   ar
    65    29    28    1
    66   122   124   ar
    67    28    30    1
    68    53    51   ar
    69    47    50    1
    70    47    48    1
    71    51    50    1
    72    51    52   ar
    73   115   114    2
    74    48    49    2
    75   113   114    1
    76   113   112    1
    77    11    12    2
    78    11    10    1
    79    98    96    1
    80    99    97    1
    81    10     9    1
    82    10    13    1
    83   106   108   ar
    84   106   105   ar
    85     7     5    1
    86   108   110   ar
    87    96    97    1
    88    96    93    1
    89    14    13    1
    90    14    15    1
    91   104   105    1
    92   104   101    1
    93     8     6    1
    94   105   107   ar
    95   100   101    1
    96     6     5    1
    97    94    95    2
    98    94    93    1
    99     1     2    1
   100   101   102    1
   101   110   111    1
   102   110   109   ar
   103    16    15    1
   104    16    17    2
   105     5     2    1
   106    93    92    1
   107    19    17    1
   108   107   109   ar
   109    17    18    1
   110     2     3    1
   111   102   103    2
   112     3     4    2
   113    90    91    1
   114    90    89    1
   115    91    85    1
   116    88    87    2
   117    89    86    1
   118    87    86    1
   119    85    86    1
