@<TRIPOS>MOLECULE
tmp/5mxcA02.pdb
 95 92 0 0 0
SMALL
GASTEIGER

@<TRIPOS>ATOM
      1  N         35.6260  -19.9460  -10.6880 N.3   120  TRP120     -0.1241
      2  CA        36.2330  -20.3510   -9.4140 C.3   120  TRP120      0.1605
      3  C         36.9790  -19.1650   -8.8030 C.2   120  TRP120      0.2264
      4  O         37.4820  -18.2830   -9.4970 O.2   120  TRP120     -0.2867
      5  CB        37.1940  -21.5510   -9.5530 C.3   120  TRP120      0.0550
      6  CG        38.5830  -21.1250   -9.9230 C.ar  120  TRP120      0.0003
      7  CD1       39.5940  -20.7970   -9.0550 C.ar  120  TRP120      0.0946
      8  CD2       39.1000  -20.8740  -11.2440 C.ar  120  TRP120      0.0152
      9  NE1       40.6910  -20.3650   -9.7450 N.ar  120  TRP120     -0.2442
     10  CE2       40.4300  -20.4120  -11.0880 C.ar  120  TRP120      0.0810
     11  CE3       38.5820  -21.0060  -12.5380 C.ar  120  TRP120      0.0012
     12  CZ2       41.2410  -20.0810  -12.1740 C.ar  120  TRP120      0.0191
     13  CZ3       39.4100  -20.6860  -13.6170 C.ar  120  TRP120      0.0001
     14  CH2       40.7070  -20.2320  -13.4200 C.ar  120  TRP120      0.0015
     15  N         35.1040  -18.4740  -16.9890 N.3   131  ARG131     -0.1245
     16  CA        35.3770  -18.9770  -18.3510 C.3   131  ARG131      0.1563
     17  C         34.0430  -19.2360  -19.0270 C.2   131  ARG131      0.2260
     18  O         33.1400  -19.8280  -18.4200 O.2   131  ARG131     -0.2867
     19  CB        36.2110  -20.2510  -18.3030 C.3   131  ARG131      0.0307
     20  CG        37.5250  -20.1450  -17.5390 C.3   131  ARG131      0.0489
     21  CD        38.5440  -19.2860  -18.2540 C.3   131  ARG131      0.2205
     22  NE        39.8510  -19.1970  -17.5950 N.pl3 131  ARG131     -0.0865
     23  CZ        40.2180  -18.2790  -16.6920 C.cat 131  ARG131      0.5346
     24  NH1       39.3580  -17.4030  -16.1750 N.pl3 131  ARG131      0.1354
     25  NH2       41.4770  -18.2750  -16.2540 N.pl3 131  ARG131      0.1354
     26  N         36.8010  -20.5790  -26.0170 N.3   146  GLU146     -0.1245
     27  CA        36.7430  -20.1220  -24.6260 C.3   146  GLU146      0.1567
     28  C         37.0480  -18.6420  -24.5520 C.2   146  GLU146      0.2260
     29  O         38.0070  -18.1740  -25.1920 O.2   146  GLU146     -0.2867
     30  CB        37.7890  -20.8910  -23.8280 C.3   146  GLU146      0.0388
     31  CG        37.9080  -20.5440  -22.3450 C.3   146  GLU146      0.1160
     32  CD        39.1520  -21.1440  -21.7220 C.2   146  GLU146      0.3649
     33  OE1       40.2380  -20.9130  -22.2900 O.co2 146  GLU146     -0.2457
     34  OE2       39.0300  -21.8150  -20.6680 O.co2 146  GLU146     -0.2457
     35  N         37.8310  -15.6540  -21.4950 N.3   148  VAL148     -0.1245
     36  CA        38.4740  -15.7330  -20.1970 C.3   148  VAL148      0.1561
     37  C         38.3510  -14.4050  -19.4550 C.2   148  VAL148      0.2260
     38  O         38.7390  -13.3660  -20.0000 O.2   148  VAL148     -0.2867
     39  CB        39.9890  -16.0200  -20.4250 C.3   148  VAL148      0.0252
     40  CG1       40.8000  -15.8980  -19.1370 C.3   148  VAL148      0.0019
     41  CG2       40.1960  -17.3690  -21.0980 C.3   148  VAL148      0.0019
     42  N         40.6510  -13.7650  -25.0670 N.3   155  ALA155     -0.1231
     43  CA        40.4180  -15.0730  -25.6540 C.3   155  ALA155      0.1694
     44  C         41.2390  -16.1330  -24.9350 C.2   155  ALA155      0.2593
     45  O         42.3590  -15.8820  -24.4660 O.2   155  ALA155     -0.2718
     46  CB        40.7520  -15.0710  -27.1290 C.3   155  ALA155      0.0304
     47  N         40.6730  -17.3360  -24.8730 N.am  156  GLY156     -0.1942
     48  CA        41.3710  -18.5040  -24.3620 C.3   156  GLY156      0.2014
     49  C         41.5610  -19.5590  -25.4250 C.2   156  GLY156      0.2638
     50  O         41.9670  -19.2620  -26.5610 O.2   156  GLY156     -0.2714
     51  N         41.2940  -20.8040  -25.0490 N.am  157  ALA157     -0.1977
     52  CA        41.5780  -21.9640  -25.8790 C.3   157  ALA157      0.1597
     53  C         40.4960  -22.2300  -26.9270 C.2   157  ALA157      0.2287
     54  O         39.3850  -21.6830  -26.8850 O.2   157  ALA157     -0.2864
     55  CB        41.7420  -23.1930  -24.9780 C.3   157  ALA157      0.0319
     56  N         41.1560  -23.5260  -10.2850 N.3   176  GLY176     -0.1225
     57  CA        41.8530  -23.5080  -11.5660 C.3   176  GLY176      0.1811
     58  C         41.8970  -24.8590  -12.2670 C.2   176  GLY176      0.2280
     59  O         42.7460  -25.0480  -13.1420 O.2   176  GLY176     -0.2866
     60  N         39.6180  -27.4160  -14.5230 N.3   178  LEU178     -0.1245
     61  CA        38.4130  -27.2880  -15.3500 C.3   178  LEU178      0.1561
     62  C         38.1140  -28.5710  -16.0810 C.2   178  LEU178      0.2260
     63  O         39.0370  -29.2520  -16.5430 O.2   178  LEU178     -0.2867
     64  CB        38.6260  -26.1960  -16.4060 C.3   178  LEU178      0.0270
     65  CG        39.2570  -24.8920  -15.9070 C.3   178  LEU178      0.0019
     66  CD1       39.2910  -23.9010  -17.0550 C.3   178  LEU178      0.0001
     67  CD2       38.5470  -24.3120  -14.6980 C.3   178  LEU178      0.0001
     68  N         41.7090  -29.1480  -17.9300 N.3   194  TRP194     -0.1241
     69  CA        42.8260  -28.2730  -17.5580 C.3   194  TRP194      0.1605
     70  C         43.0830  -28.4770  -16.0840 C.2   194  TRP194      0.2264
     71  O         42.1700  -28.2990  -15.2750 O.2   194  TRP194     -0.2867
     72  CB        42.4760  -26.8070  -17.8350 C.3   194  TRP194      0.0550
     73  CG        43.5420  -25.8200  -17.4150 C.ar  194  TRP194      0.0003
     74  CD1       43.8290  -25.4070  -16.1560 C.ar  194  TRP194      0.0946
     75  CD2       44.4460  -25.1240  -18.2770 C.ar  194  TRP194      0.0152
     76  NE1       44.8710  -24.5070  -16.1650 N.ar  194  TRP194     -0.2442
     77  CE2       45.2520  -24.2980  -17.4610 C.ar  194  TRP194      0.0810
     78  CE3       44.6320  -25.0970  -19.6600 C.ar  194  TRP194      0.0012
     79  CZ2       46.2370  -23.4620  -17.9950 C.ar  194  TRP194      0.0191
     80  CZ3       45.6060  -24.2660  -20.1850 C.ar  194  TRP194      0.0001
     81  CH2       46.3890  -23.4530  -19.3510 C.ar  194  TRP194      0.0015
     82  N         45.6940  -27.8470  -21.7160 N.3   199  TRP199     -0.1241
     83  CA        44.4940  -28.6480  -21.9510 C.3   199  TRP199      0.1605
     84  C         44.8820  -30.0430  -22.4180 C.2   199  TRP199      0.2264
     85  O         45.8080  -30.2070  -23.2300 O.2   199  TRP199     -0.2867
     86  CB        43.6000  -28.0180  -23.0170 C.3   199  TRP199      0.0550
     87  CG        42.8780  -26.8080  -22.5330 C.ar  199  TRP199      0.0003
     88  CD1       43.2470  -25.5050  -22.6970 C.ar  199  TRP199      0.0946
     89  CD2       41.6600  -26.7910  -21.7850 C.ar  199  TRP199      0.0152
     90  NE1       42.3290  -24.6700  -22.0880 N.ar  199  TRP199     -0.2442
     91  CE2       41.3560  -25.4390  -21.5090 C.ar  199  TRP199      0.0810
     92  CE3       40.8080  -27.7860  -21.3040 C.ar  199  TRP199      0.0012
     93  CZ2       40.2170  -25.0590  -20.7830 C.ar  199  TRP199      0.0191
     94  CZ3       39.6830  -27.4020  -20.5880 C.ar  199  TRP199      0.0001
     95  CH2       39.3980  -26.0550  -20.3380 C.ar  199  TRP199      0.0015
@<TRIPOS>BOND
     1    46    43    1
     2    53    54    2
     3    53    52    1
     4    50    49    2
     5    26    27    1
     6    52    51    1
     7    52    55    1
     8    43    42    1
     9    43    44    1
    10    49    51   am
    11    49    48    1
    12    29    28    2
    13    44    47   am
    14    44    45    2
    15    47    48    1
    16    27    28    1
    17    27    30    1
    18    30    31    1
    19    85    84    2
    20    86    87    1
    21    86    83    1
    22    88    87   ar
    23    88    90   ar
    24    87    89   ar
    25    84    83    1
    26    31    32    1
    27    33    32   ar
    28    90    91   ar
    29    83    82    1
    30    89    91   ar
    31    89    92   ar
    32    32    34   ar
    33    91    93   ar
    34    35    36    1
    35    92    94   ar
    36    41    39    1
    37    93    95   ar
    38    94    95   ar
    39    39    36    1
    40    39    40    1
    41    36    37    1
    42    80    78   ar
    43    80    81   ar
    44    38    37    2
    45    78    75   ar
    46    81    79   ar
    47    17    18    2
    48    17    16    1
    49    16    19    1
    50    16    15    1
    51    19    20    1
    52    75    77   ar
    53    75    73   ar
    54    21    22    1
    55    21    20    1
    56    79    77   ar
    57    68    69    1
    58    72    69    1
    59    72    73    1
    60    22    23    2
    61    69    70    1
    62    77    76   ar
    63    73    74   ar
    64    66    65    1
    65    23    25    1
    66    23    24    1
    67    63    62    2
    68    64    65    1
    69    64    61    1
    70    76    74   ar
    71    70    71    2
    72    62    61    1
    73    65    67    1
    74    61    60    1
    75    13    14   ar
    76    13    11   ar
    77    14    12   ar
    78    59    58    2
    79    11     8   ar
    80    58    57    1
    81    12    10   ar
    82    57    56    1
    83     8    10   ar
    84     8     6   ar
    85    10     9   ar
    86     1     2    1
    87     6     5    1
    88     6     7   ar
    89     9     7   ar
    90     5     2    1
    91     4     3    2
    92     2     3    1
