@<TRIPOS>MOLECULE
tmp/5mxdA00.pdb
 130 127 0 0 0
SMALL
GASTEIGER

@<TRIPOS>ATOM
      1  N        -26.8490  -46.6410   13.4530 N.3    15  SER15      -0.1202
      2  CA       -27.2260  -45.9820   14.7080 C.3    15  SER15       0.2020
      3  C        -28.1880  -44.8100   14.5000 C.2    15  SER15       0.2619
      4  O        -29.1010  -44.6140   15.3050 O.2    15  SER15      -0.2717
      5  CB       -25.9820  -45.5160   15.4700 C.3    15  SER15       0.2103
      6  OG       -25.0370  -44.9090   14.6020 O.3    15  SER15      -0.2182
      7  N        -27.9730  -44.0510   13.4230 N.am   16  GLY16      -0.1942
      8  CA       -28.8230  -42.9230   13.0590 C.3    16  GLY16       0.2014
      9  C        -30.2640  -43.2720   12.7320 C.2    16  GLY16       0.2639
     10  O        -31.1670  -42.4780   13.0340 O.2    16  GLY16      -0.2714
     11  N        -30.4700  -44.4470   12.1230 N.am   17  GLN17      -0.1963
     12  CA       -31.7970  -44.9170   11.6750 C.3    17  GLN17       0.1733
     13  C        -32.3130  -46.1990   12.3490 C.2    17  GLN17       0.2616
     14  O        -33.4150  -46.6540   12.0260 O.2    17  GLN17      -0.2715
     15  CB       -31.7680  -45.1480   10.1630 C.3    17  GLN17       0.0408
     16  CG       -31.5480  -43.8860    9.3430 C.3    17  GLN17       0.0908
     17  CD       -31.6410  -44.1340    7.8490 C.2    17  GLN17       0.2608
     18  OE1      -31.5680  -45.2770    7.3840 O.2    17  GLN17      -0.2717
     19  NE2      -31.8020  -43.0610    7.0870 N.am   17  GLN17      -0.0878
     20  N        -31.5440  -46.7710   13.2760 N.am   18  GLY18      -0.1955
     21  CA       -31.9060  -48.0310   13.9380 C.3    18  GLY18       0.1869
     22  C        -31.4320  -49.2820   13.2110 C.2    18  GLY18       0.2309
     23  O        -31.0420  -49.2270   12.0380 O.2    18  GLY18      -0.2863
     24  N        -37.6060  -53.1000   13.0670 N.3    35  LEU35      -0.1245
     25  CA       -36.6460  -52.5170   13.9940 C.3    35  LEU35       0.1561
     26  C        -36.5990  -53.3060   15.2970 C.2    35  LEU35       0.2260
     27  O        -37.6340  -53.6700   15.8480 O.2    35  LEU35      -0.2867
     28  CB       -37.0390  -51.0800   14.3110 C.3    35  LEU35       0.0270
     29  CG       -36.1100  -50.2690   15.2310 C.3    35  LEU35       0.0019
     30  CD1      -35.2420  -49.3480   14.4030 C.3    35  LEU35       0.0001
     31  CD2      -36.8800  -49.4450   16.2540 C.3    35  LEU35       0.0001
     32  N        -35.9760  -53.0910   19.0380 N.3    37  ASP37      -0.1239
     33  CA       -36.0510  -52.0180   20.0440 C.3    37  ASP37       0.1674
     34  C        -36.1520  -52.5740   21.4710 C.2    37  ASP37       0.2266
     35  O        -37.2270  -52.9670   21.9170 O.2    37  ASP37      -0.2867
     36  CB       -37.2550  -51.1170   19.7230 C.3    37  ASP37       0.1410
     37  CG       -37.3920  -49.9230   20.6660 C.2    37  ASP37       0.3668
     38  OD1      -36.4030  -49.4920   21.2980 O.co2  37  ASP37      -0.2456
     39  OD2      -38.5210  -49.3980   20.7590 O.co2  37  ASP37      -0.2456
     40  N        -45.3660  -41.2430   20.8370 N.3    76  TYR76      -0.1241
     41  CA       -43.9100  -41.3290   20.7210 C.3    76  TYR76       0.1605
     42  C        -43.3780  -40.0050   21.3020 C.2    76  TYR76       0.2264
     43  O        -44.1780  -39.1390   21.6830 O.2    76  TYR76      -0.2867
     44  CB       -43.5310  -41.5520   19.2380 C.3    76  TYR76       0.0534
     45  CG       -42.0580  -41.7690   18.9560 C.ar   76  TYR76      -0.0201
     46  CD1      -41.3010  -40.7900   18.3000 C.ar   76  TYR76      -0.0009
     47  CD2      -41.4080  -42.9410   19.3600 C.ar   76  TYR76      -0.0009
     48  CE1      -39.9450  -40.9720   18.0510 C.ar   76  TYR76       0.0417
     49  CE2      -40.0480  -43.1310   19.1160 C.ar   76  TYR76       0.0417
     50  CZ       -39.3230  -42.1440   18.4600 C.ar   76  TYR76       0.1957
     51  OH       -37.9810  -42.3150   18.2120 O.3    76  TYR76      -0.2866
     52  N        -44.4850  -38.6480   12.7020 N.3   112  LYS112     -0.1231
     53  CA       -43.0840  -38.5450   13.1710 C.3   112  LYS112      0.1693
     54  C        -42.5680  -39.8400   13.8360 C.2   112  LYS112      0.2592
     55  O        -41.8230  -39.7980   14.8220 O.2   112  LYS112     -0.2718
     56  CB       -42.9250  -37.3310   14.1100 C.3   112  LYS112      0.0285
     57  CG       -43.1740  -35.9750   13.4460 C.3   112  LYS112      0.0035
     58  CD       -44.0490  -35.0550   14.2970 C.3   112  LYS112      0.0206
     59  CE       -44.4810  -33.8010   13.5430 C.3   112  LYS112      0.1093
     60  NZ       -45.8030  -33.2850   14.0110 N.3   112  LYS112     -0.1314
     61  N        -42.9740  -40.9790   13.2780 N.am  113  PHE113     -0.1962
     62  CA       -42.6480  -42.2990   13.8160 C.3   113  PHE113      0.1771
     63  C        -41.7600  -43.0640   12.8490 C.2   113  PHE113      0.2620
     64  O        -40.6610  -43.4670   13.2100 O.2   113  PHE113     -0.2715
     65  CB       -43.9200  -43.1040   14.0990 C.3   113  PHE113      0.0574
     66  CG       -43.6520  -44.5250   14.4920 C.ar  113  PHE113     -0.0200
     67  CD1      -43.1650  -44.8210   15.7610 C.ar  113  PHE113     -0.0042
     68  CD2      -43.8560  -45.5670   13.5840 C.ar  113  PHE113     -0.0042
     69  CE1      -42.9050  -46.1320   16.1300 C.ar  113  PHE113     -0.0003
     70  CE2      -43.5940  -46.8780   13.9430 C.ar  113  PHE113     -0.0003
     71  CZ       -43.1210  -47.1630   15.2190 C.ar  113  PHE113     -0.0000
     72  N        -42.2600  -43.2960   11.6380 N.am  114  PHE114     -0.1960
     73  CA       -41.4530  -43.8890   10.5790 C.3   114  PHE114      0.1771
     74  C        -40.4280  -42.8620   10.1190 C.2   114  PHE114      0.2619
     75  O        -40.6810  -41.6560   10.1690 O.2   114  PHE114     -0.2715
     76  CB       -42.3200  -44.3280    9.3930 C.3   114  PHE114      0.0574
     77  CG       -43.2760  -45.4470    9.7180 C.ar  114  PHE114     -0.0200
     78  CD1      -42.8000  -46.6960   10.0720 C.ar  114  PHE114     -0.0042
     79  CD2      -44.6520  -45.2520    9.6540 C.ar  114  PHE114     -0.0042
     80  CE1      -43.6690  -47.7290   10.3790 C.ar  114  PHE114     -0.0003
     81  CE2      -45.5280  -46.2830    9.9530 C.ar  114  PHE114     -0.0003
     82  CZ       -45.0360  -47.5260   10.3160 C.ar  114  PHE114     -0.0000
     83  N        -39.2680  -43.3520    9.6970 N.am  115  ILE115     -0.1977
     84  CA       -38.2020  -42.5210    9.1430 C.3   115  ILE115      0.1596
     85  C        -38.2490  -42.6800    7.6250 C.2   115  ILE115      0.2287
     86  O        -38.4580  -43.7860    7.1150 O.2   115  ILE115     -0.2864
     87  CB       -36.8200  -42.9530    9.6900 C.3   115  ILE115      0.0276
     88  CG1      -36.7260  -42.7100   11.2030 C.3   115  ILE115      0.0022
     89  CG2      -35.6820  -42.2280    8.9700 C.3   115  ILE115      0.0022
     90  CD1      -35.5760  -43.4330   11.8820 C.3   115  ILE115      0.0001
     91  N        -37.1540  -50.0540    7.2320 N.3   120  TRP120     -0.1241
     92  CA       -37.9160  -50.9210    8.1340 C.3   120  TRP120      0.1605
     93  C        -39.3660  -50.4530    8.2030 C.2   120  TRP120      0.2264
     94  O        -39.6530  -49.2670    8.0720 O.2   120  TRP120     -0.2867
     95  CB       -37.2890  -51.0420    9.5300 C.3   120  TRP120      0.0550
     96  CG       -36.9840  -49.7610   10.2230 C.ar  120  TRP120      0.0003
     97  CD1      -35.7800  -49.1080   10.2460 C.ar  120  TRP120      0.0946
     98  CD2      -37.8800  -48.9820   11.0250 C.ar  120  TRP120      0.0152
     99  NE1      -35.8760  -47.9650   11.0040 N.ar  120  TRP120     -0.2442
    100  CE2      -37.1520  -47.8620   11.4960 C.ar  120  TRP120      0.0810
    101  CE3      -39.2320  -49.1130   11.3840 C.ar  120  TRP120      0.0012
    102  CZ2      -37.7330  -46.8730   12.3110 C.ar  120  TRP120      0.0191
    103  CZ3      -39.8090  -48.1340   12.2020 C.ar  120  TRP120      0.0001
    104  CH2      -39.0540  -47.0260   12.6540 C.ar  120  TRP120      0.0015
    105  N        -41.8580  -52.3040   14.3330 N.3   123  ILE123     -0.1245
    106  CA       -41.0420  -52.2560   15.5370 C.3   123  ILE123      0.1561
    107  C        -41.2430  -53.5300   16.3560 C.2   123  ILE123      0.2260
    108  O        -42.3820  -53.9120   16.6270 O.2   123  ILE123     -0.2867
    109  CB       -41.3410  -50.9860   16.3680 C.3   123  ILE123      0.0252
    110  CG1      -40.3750  -50.8700   17.5520 C.3   123  ILE123      0.0019
    111  CG2      -42.7840  -50.9350   16.8650 C.3   123  ILE123      0.0019
    112  CD1      -40.3660  -49.5060   18.2110 C.3   123  ILE123      0.0001
    113  N        -33.0510  -48.7910   20.3990 N.3   235  GLY235     -0.1210
    114  CA       -33.8120  -47.8280   19.5880 C.3   235  GLY235      0.1956
    115  C        -33.4550  -46.3530   19.7320 C.2   235  GLY235      0.2613
    116  O        -34.1630  -45.4860   19.1870 O.2   235  GLY235     -0.2717
    117  N        -32.3840  -46.0630   20.4730 N.am  236  THR236     -0.1938
    118  CA       -31.8640  -44.7090   20.6480 C.3   236  THR236      0.2028
    119  C        -30.4780  -44.6520   20.0160 C.2   236  THR236      0.2642
    120  O        -29.6670  -45.5660   20.1960 O.2   236  THR236     -0.2714
    121  CB       -31.7970  -44.3540   22.1490 C.3   236  THR236      0.1808
    122  OG1      -33.1290  -44.2820   22.6660 O.3   236  THR236     -0.2208
    123  CG2      -31.0870  -43.0160   22.3960 C.3   236  THR236      0.0379
    124  N        -30.2080  -43.5750   19.2860 N.am  237  THR237     -0.1950
    125  CA       -28.9520  -43.4350   18.5530 C.3   237  THR237      0.1897
    126  C        -27.7760  -43.1580   19.4990 C.2   237  THR237      0.2313
    127  O        -26.8100  -43.9130   19.5120 O.2   237  THR237     -0.2863
    128  CB       -29.0630  -42.3260   17.4890 C.3   237  THR237      0.1794
    129  OG1      -30.1140  -42.6550   16.5730 O.3   237  THR237     -0.2208
    130  CG2      -27.7750  -42.1700   16.7160 C.3   237  THR237      0.0378
@<TRIPOS>BOND
     1    19    17   am
     2    86    85    2
     3    91    92    1
     4    18    17    2
     5    85    84    1
     6    17    16    1
     7    94    93    2
     8    92    93    1
     9    92    95    1
    10    89    87    1
    11    84    87    1
    12    84    83    1
    13    16    15    1
    14    76    77    1
    15    76    73    1
    16    95    96    1
    17    79    77   ar
    18    79    81   ar
    19    87    88    1
    20    83    74   am
    21    77    78   ar
    22    81    82   ar
    23    78    80   ar
    24    74    75    2
    25    74    73    1
    26    15    12    1
    27    96    97   ar
    28    96    98   ar
    29    97    99   ar
    30    82    80   ar
    31    73    72    1
    32    99   100   ar
    33    98   101   ar
    34    98   100   ar
    35    88    90    1
    36   101   103   ar
    37   100   102   ar
    38    72    63   am
    39    12    11    1
    40    12    13    1
    41    14    13    2
    42    23    22    2
    43    11     9   am
    44   103   104   ar
    45   102   104   ar
    46    13    20   am
    47    52    53    1
    48     9    10    2
    49     9     8    1
    50    63    64    2
    51    63    62    1
    52     8     7    1
    53    24    25    1
    54    53    54    1
    55    53    56    1
    56    22    21    1
    57    20    21    1
    58    61    62    1
    59    61    54   am
    60     7     3   am
    61    57    56    1
    62    57    58    1
    63     1     2    1
    64    59    60    1
    65    59    58    1
    66    68    70   ar
    67    68    66   ar
    68    62    65    1
    69    54    55    2
    70    70    71   ar
    71    25    28    1
    72    25    26    1
    73    65    66    1
    74    28    29    1
    75   105   106    1
    76    30    29    1
    77    66    67   ar
    78     3     2    1
    79     3     4    2
    80     6     5    1
    81     2     5    1
    82    71    69   ar
    83    29    31    1
    84    26    27    2
    85   106   107    1
    86   106   109    1
    87    67    69   ar
    88   107   108    2
    89   109   111    1
    90   109   110    1
    91   129   128    1
    92   130   128    1
    93   128   125    1
    94   110   112    1
    95    48    46   ar
    96    48    50   ar
    97    51    50    1
    98    46    45   ar
    99    50    49   ar
   100   125   124    1
   101   125   126    1
   102    45    44    1
   103    45    47   ar
   104    32    33    1
   105    49    47   ar
   106   116   115    2
   107    44    41    1
   108   124   119   am
   109   126   127    2
   110   114   115    1
   111   114   113    1
   112    36    33    1
   113    36    37    1
   114   115   117   am
   115   119   120    2
   116   119   118    1
   117    33    34    1
   118   117   118    1
   119   118   121    1
   120    37    39   ar
   121    37    38   ar
   122    41    40    1
   123    41    42    1
   124    42    43    2
   125    34    35    2
   126   121   123    1
   127   121   122    1
