@<TRIPOS>MOLECULE
tmp/5mxfA00.pdb
 85 85 0 0 0
SMALL
GASTEIGER

@<TRIPOS>ATOM
      1  N          1.7320   15.6820   -1.0710 N.3   291  ASN291     -0.1225
      2  CA         1.6490   15.3610   -2.5020 C.3   291  ASN291      0.1785
      3  C          0.7450   16.3080   -3.2730 C.2   291  ASN291      0.2598
      4  O          0.5500   17.4520   -2.8470 O.2   291  ASN291     -0.2718
      5  CB         1.2710   13.8890   -2.6830 C.3   291  ASN291      0.1169
      6  CG         2.1990   12.9790   -1.9280 C.2   291  ASN291      0.2627
      7  OD1        3.4030   13.0500   -2.1220 O.2   291  ASN291     -0.2716
      8  ND2        1.6590   12.1610   -1.0330 N.am  291  ASN291     -0.0877
      9  N          0.2070   15.8480   -4.4020 N.am  292  GLY292     -0.1942
     10  CA        -0.6370   16.6700   -5.2510 C.3   292  GLY292      0.2014
     11  C          0.2240   17.4980   -6.1780 C.2   292  GLY292      0.2639
     12  O          1.4400   17.6050   -5.9960 O.2   292  GLY292     -0.2714
     13  N         -0.4120   18.0460   -7.2030 N.am  293  VAL293     -0.1963
     14  CA         0.1990   19.0550   -8.0420 C.3   293  VAL293      0.1727
     15  C         -0.8080   20.1930   -8.1260 C.2   293  VAL293      0.2616
     16  O         -1.8550   20.0630   -8.7720 O.2   293  VAL293     -0.2715
     17  CB         0.5480   18.5420   -9.4590 C.3   293  VAL293      0.0290
     18  CG1        1.3540   19.6000  -10.1960 C.3   293  VAL293      0.0023
     19  CG2        1.3400   17.2430   -9.3930 C.3   293  VAL293      0.0023
     20  N         -0.4850   21.3100   -7.4830 N.am  294  ILE294     -0.1977
     21  CA        -1.4700   22.3580   -7.2650 C.3   294  ILE294      0.1596
     22  C         -1.0710   23.6650   -7.9540 C.2   294  ILE294      0.2287
     23  O          0.1150   23.9750   -8.0920 O.2   294  ILE294     -0.2864
     24  CB        -1.8050   22.5290   -5.7520 C.3   294  ILE294      0.0276
     25  CG1       -0.5720   22.9350   -4.9340 C.3   294  ILE294      0.0022
     26  CG2       -2.3880   21.2240   -5.2060 C.3   294  ILE294      0.0022
     27  CD1       -0.8760   23.3040   -3.4860 C.3   294  ILE294      0.0001
     28  N         -6.4120   24.2060   -6.0880 N.3   313  ARG313     -0.1231
     29  CA        -6.6740   24.0180   -7.5050 C.3   313  ARG313      0.1694
     30  C         -5.6690   23.0160   -8.0790 C.2   313  ARG313      0.2593
     31  O         -4.5220   22.9910   -7.6700 O.2   313  ARG313     -0.2718
     32  CB        -6.6360   25.3220   -8.2840 C.3   313  ARG313      0.0321
     33  CG        -7.2170   25.1400   -9.6820 C.3   313  ARG313      0.0489
     34  CD        -7.3220   26.4220  -10.4600 C.3   313  ARG313      0.2205
     35  NE        -6.0410   27.1010  -10.5690 N.pl3 313  ARG313     -0.0865
     36  CZ        -5.8580   28.2610  -11.1930 C.cat 313  ARG313      0.5346
     37  NH1       -6.8780   28.9070  -11.7540 N.pl3 313  ARG313      0.1354
     38  NH2       -4.6420   28.7870  -11.2390 N.pl3 313  ARG313      0.1354
     39  N         -6.1340   22.1950   -9.0160 N.am  314  GLY314     -0.1942
     40  CA        -5.2840   21.2030   -9.7010 C.3   314  GLY314      0.2014
     41  C         -4.8350   21.7000  -11.0590 C.2   314  GLY314      0.2640
     42  O         -5.1940   22.7920  -11.4940 O.2   314  GLY314     -0.2714
     43  N         -4.0530   20.8790  -11.7460 N.am  315  THR315     -0.1936
     44  CA        -3.5450   21.2160  -13.0800 C.3   315  THR315      0.2028
     45  C         -4.6610   21.3280  -14.1260 C.2   315  THR315      0.2642
     46  O         -4.5670   22.1350  -15.0600 O.2   315  THR315     -0.2714
     47  CB        -2.4970   20.1810  -13.5350 C.3   315  THR315      0.1808
     48  OG1       -3.0560   18.8660  -13.4410 O.3   315  THR315     -0.2208
     49  CG2       -1.2680   20.2650  -12.6410 C.3   315  THR315      0.0379
     50  N         -5.7370   20.5690  -13.9170 N.am  316  ASP316     -0.1971
     51  CA        -6.9610   20.6740  -14.7330 C.3   316  ASP316      0.1709
     52  C         -7.9070   21.8410  -14.3680 C.2   316  ASP316      0.2293
     53  O         -9.0060   21.9240  -14.8930 O.2   316  ASP316     -0.2864
     54  CB        -7.7330   19.3440  -14.6820 C.3   316  ASP316      0.1436
     55  CG        -8.1180   18.9140  -13.2610 C.2   316  ASP316      0.3671
     56  OD1       -7.8390   19.6520  -12.2730 O.co2 316  ASP316     -0.2456
     57  OD2       -8.6900   17.8030  -13.1490 O.co2 316  ASP316     -0.2456
     58  N         -9.4730   20.3050   -5.9580 N.3   320  TRP320     -0.1241
     59  CA        -9.1520   19.0330   -5.3320 C.3   320  TRP320      0.1605
     60  C         -9.1000   19.1560   -3.8350 C.2   320  TRP320      0.2264
     61  O         -8.9290   20.2600   -3.2980 O.2   320  TRP320     -0.2867
     62  CB        -7.8200   18.4890   -5.8630 C.3   320  TRP320      0.0550
     63  CG        -7.8710   18.1510   -7.3290 C.ar  320  TRP320      0.0003
     64  CD1       -7.9880   19.0240   -8.3740 C.ar  320  TRP320      0.0946
     65  CD2       -7.8130   16.8400   -7.9040 C.ar  320  TRP320      0.0152
     66  NE1       -8.0100   18.3330   -9.5770 N.ar  320  TRP320     -0.2442
     67  CE2       -7.9120   16.9920   -9.3100 C.ar  320  TRP320      0.0810
     68  CE3       -7.6920   15.5550   -7.3670 C.ar  320  TRP320      0.0012
     69  CZ2       -7.8620   15.9010  -10.1900 C.ar  320  TRP320      0.0191
     70  CZ3       -7.6550   14.4600   -8.2460 C.ar  320  TRP320      0.0001
     71  CH2       -7.7360   14.6520   -9.6470 C.ar  320  TRP320      0.0015
     72  N         -5.7900   12.6880   -2.6670 N.3   332  TRP332     -0.1241
     73  CA        -6.5070   13.7990   -3.2780 C.3   332  TRP332      0.1605
     74  C         -7.6880   13.2710   -4.0860 C.2   332  TRP332      0.2264
     75  O         -7.5550   12.3060   -4.8520 O.2   332  TRP332     -0.2867
     76  CB        -5.6050   14.6060   -4.2100 C.3   332  TRP332      0.0550
     77  CG        -4.5640   15.3920   -3.5160 C.ar  332  TRP332      0.0003
     78  CD1       -3.3050   14.9840   -3.1860 C.ar  332  TRP332      0.0946
     79  CD2       -4.6870   16.7370   -3.0460 C.ar  332  TRP332      0.0152
     80  NE1       -2.6360   15.9890   -2.5350 N.ar  332  TRP332     -0.2442
     81  CE2       -3.4570   17.0810   -2.4410 C.ar  332  TRP332      0.0810
     82  CE3       -5.7240   17.6830   -3.0670 C.ar  332  TRP332      0.0012
     83  CZ2       -3.2330   18.3340   -1.8660 C.ar  332  TRP332      0.0191
     84  CZ3       -5.5010   18.9300   -2.5110 C.ar  332  TRP332      0.0001
     85  CH2       -4.2610   19.2500   -1.9200 C.ar  332  TRP332      0.0015
@<TRIPOS>BOND
     1    46    45    2
     2    53    52    2
     3    51    54    1
     4    51    52    1
     5    51    50    1
     6    54    55    1
     7    45    50   am
     8    45    44    1
     9    47    48    1
    10    47    44    1
    11    47    49    1
    12    55    57   ar
    13    55    56   ar
    14    44    43    1
    15    37    36    1
    16    43    41   am
    17    42    41    2
    18    38    36    1
    19    36    35    2
    20    41    40    1
    21    35    34    1
    22    34    33    1
    23    18    17    1
    24    69    71   ar
    25    69    67   ar
    26    40    39    1
    27    33    32    1
    28    71    70   ar
    29    66    67   ar
    30    66    64   ar
    31    17    19    1
    32    17    14    1
    33    67    65   ar
    34    39    30   am
    35    16    15    2
    36    64    63   ar
    37    32    29    1
    38    70    68   ar
    39    15    14    1
    40    15    20   am
    41    23    22    2
    42    30    31    2
    43    30    29    1
    44    14    13    1
    45    22    21    1
    46    65    68   ar
    47    65    63   ar
    48    29    28    1
    49    20    21    1
    50    63    62    1
    51    21    24    1
    52    13    11   am
    53    11    12    2
    54    11    10    1
    55    58    59    1
    56    62    59    1
    57    24    26    1
    58    24    25    1
    59    59    60    1
    60    10     9    1
    61    25    27    1
    62    75    74    2
    63     9     3   am
    64    76    77    1
    65    76    73    1
    66    74    73    1
    67    60    61    2
    68    77    78   ar
    69    77    79   ar
    70    73    72    1
    71     3     4    2
    72     3     2    1
    73    78    80   ar
    74    82    79   ar
    75    82    84   ar
    76    79    81   ar
    77     5     2    1
    78     5     6    1
    79    80    81   ar
    80    84    85   ar
    81     2     1    1
    82    81    83   ar
    83     7     6    2
    84     6     8   am
    85    85    83   ar
