@<TRIPOS>MOLECULE
tmp/5mxhA02.pdb
 96 93 0 0 0
SMALL
GASTEIGER

@<TRIPOS>ATOM
      1  N          3.6340   22.8560    0.5470 N.3   259  ARG259     -0.1245
      2  CA         2.3700   22.8320    1.3010 C.3   259  ARG259      0.1563
      3  C          2.5720   23.5020    2.6620 C.2   259  ARG259      0.2260
      4  O          3.4310   23.0930    3.4470 O.2   259  ARG259     -0.2867
      5  CB         1.8990   21.3930    1.5450 C.3   259  ARG259      0.0307
      6  CG         1.2510   20.7030    0.3620 C.3   259  ARG259      0.0489
      7  CD         0.9740   19.2130    0.5920 C.3   259  ARG259      0.2205
      8  NE         1.9710   18.5100    1.4460 N.pl3 259  ARG259     -0.0865
      9  CZ         1.8190   18.2200    2.7490 C.cat 259  ARG259      0.5346
     10  NH1        0.7210   18.5550    3.4290 N.pl3 259  ARG259      0.1354
     11  NH2        2.8010   17.5970    3.3910 N.pl3 259  ARG259      0.1354
     12  N          1.5580   24.5390    6.4510 N.3   261  GLU261     -0.1245
     13  CA         0.9870   23.8480    7.5900 C.3   261  GLU261      0.1567
     14  C          1.0250   24.7970    8.7760 C.2   261  GLU261      0.2260
     15  O          2.0740   25.3560    9.0590 O.2   261  GLU261     -0.2867
     16  CB         1.7760   22.5730    7.8640 C.3   261  GLU261      0.0388
     17  CG         1.1770   21.6160    8.8880 C.3   261  GLU261      0.1160
     18  CD         1.5480   20.1770    8.6400 C.2   261  GLU261      0.3649
     19  OE1        2.1110   19.8830    7.5630 O.co2 261  GLU261     -0.2457
     20  OE2        1.2490   19.3190    9.5100 O.co2 261  GLU261     -0.2457
     21  N         -3.0790   20.8410   14.3880 N.3   273  HIS273     -0.1241
     22  CA        -2.5970   21.3470   13.0970 C.3   273  HIS273      0.1621
     23  C         -3.5570   21.1830   11.9190 C.2   273  HIS273      0.2264
     24  O         -4.4400   20.3320   11.9220 O.2   273  HIS273     -0.2867
     25  CB        -1.2260   20.7450   12.7480 C.3   273  HIS273      0.0745
     26  CG        -1.2160   19.2650   12.4910 C.ar  273  HIS273      0.0817
     27  ND1       -0.4770   18.7050   11.4800 N.ar  273  HIS273     -0.2268
     28  CD2       -1.7790   18.2240   13.1480 C.ar  273  HIS273      0.1154
     29  CE1       -0.5830   17.3900   11.5120 C.ar  273  HIS273      0.1986
     30  NE2       -1.3680   17.0720   12.5200 N.ar  273  HIS273     -0.2212
     31  N         -3.1530   21.6120    7.4040 N.3   275  TRP275     -0.1241
     32  CA        -2.1680   21.6960    6.3010 C.3   275  TRP275      0.1605
     33  C         -2.8980   21.7760    5.0010 C.2   275  TRP275      0.2264
     34  O         -4.0310   21.2530    4.8870 O.2   275  TRP275     -0.2867
     35  CB        -1.2590   20.4660    6.3080 C.3   275  TRP275      0.0550
     36  CG        -1.9930   19.1680    6.2410 C.ar  275  TRP275      0.0003
     37  CD1       -2.3060   18.4590    5.1290 C.ar  275  TRP275      0.0946
     38  CD2       -2.5270   18.4420    7.3460 C.ar  275  TRP275      0.0152
     39  NE1       -3.0150   17.3100    5.4760 N.ar  275  TRP275     -0.2442
     40  CE2       -3.1520   17.2800    6.8320 C.ar  275  TRP275      0.0810
     41  CE3       -2.5370   18.6550    8.7260 C.ar  275  TRP275      0.0012
     42  CZ2       -3.7790   16.3400    7.6540 C.ar  275  TRP275      0.0191
     43  CZ3       -3.1610   17.7310    9.5330 C.ar  275  TRP275      0.0001
     44  CH2       -3.7770   16.5860    8.9960 C.ar  275  TRP275      0.0015
     45  N         -6.4910   18.6960   13.1600 N.3   288  GLN288     -0.1245
     46  CA        -6.2560   17.3700   13.7400 C.3   288  GLN288      0.1566
     47  C         -5.2280   17.4720   14.8480 C.2   288  GLN288      0.2260
     48  O         -4.4680   18.4380   14.8860 O.2   288  GLN288     -0.2867
     49  CB        -5.8170   16.3850   12.6720 C.3   288  GLN288      0.0367
     50  CG        -7.0000   15.9720   11.8090 C.3   288  GLN288      0.0905
     51  CD        -6.6200   15.1360   10.6210 C.2   288  GLN288      0.2608
     52  OE1       -5.8670   14.1630   10.7410 O.2   288  GLN288     -0.2717
     53  NE2       -7.1170   15.5220    9.4490 N.am  288  GLN288     -0.0878
     54  N         -2.1980   16.5020   17.6050 N.3   290  LEU290     -0.1245
     55  CA        -0.8870   15.9010   17.7690 C.3   290  LEU290      0.1561
     56  C         -0.6220   15.6650   19.2400 C.2   290  LEU290      0.2260
     57  O          0.5200   15.3560   19.6230 O.2   290  LEU290     -0.2867
     58  CB         0.1900   16.8120   17.1380 C.3   290  LEU290      0.0270
     59  CG         0.1900   16.8790   15.5990 C.3   290  LEU290      0.0019
     60  CD1        1.2770   17.8330   15.1170 C.3   290  LEU290      0.0001
     61  CD2        0.3790   15.5090   14.9490 C.3   290  LEU290      0.0001
     62  N          7.4700   14.9090   12.0240 N.3   324  GLN324     -0.1245
     63  CA         6.8440   14.0740   11.0210 C.3   324  GLN324      0.1566
     64  C          7.6930   12.8010   10.8140 C.2   324  GLN324      0.2260
     65  O          8.9310   12.8490   10.7700 O.2   324  GLN324     -0.2867
     66  CB         6.6890   14.8190    9.6830 C.3   324  GLN324      0.0367
     67  CG         5.7310   16.0070    9.6470 C.3   324  GLN324      0.0905
     68  CD         5.8490   16.8330    8.3610 C.2   324  GLN324      0.2608
     69  OE1        6.9470   16.9780    7.7800 O.2   324  GLN324     -0.2717
     70  NE2        4.7440   17.4110    7.9280 N.am  324  GLN324     -0.0878
     71  N          4.8760    7.6900    8.0590 N.3   327  SER327     -0.1202
     72  CA         3.4540    7.4730    8.3840 C.3   327  SER327      0.2020
     73  C          2.7230    8.7290    8.9100 C.2   327  SER327      0.2619
     74  O          1.7450    9.1890    8.3110 O.2   327  SER327     -0.2717
     75  CB         3.3310    6.3480    9.4260 C.3   327  SER327      0.2103
     76  OG         2.0760    6.1040    9.8230 O.3   327  SER327     -0.2182
     77  N          3.2450    9.2970    9.9930 N.am  328  SER328     -0.1937
     78  CA         2.4630   10.0660   10.9510 C.3   328  SER328      0.2055
     79  C          3.3440   11.1690   11.6030 C.2   328  SER328      0.2643
     80  O          4.1230   11.8460   10.8900 O.2   328  SER328     -0.2714
     81  CB         1.9280    9.0520   11.9750 C.3   328  SER328      0.2130
     82  OG         1.1010    9.6490   12.9370 O.3   328  SER328     -0.2179
     83  N          3.2070   11.3550   12.9240 N.am  329  TRP329     -0.1973
     84  CA         4.1070   12.1600   13.7750 C.3   329  TRP329      0.1640
     85  C          4.6450   11.3550   14.9500 C.2   329  TRP329      0.2290
     86  O          3.9440   10.5210   15.5020 O.2   329  TRP329     -0.2864
     87  CB         3.3560   13.3500   14.3430 C.3   329  TRP329      0.0576
     88  CG         3.1510   14.4420   13.3570 C.ar  329  TRP329      0.0006
     89  CD1        2.2950   14.4400   12.3170 C.ar  329  TRP329      0.0946
     90  CD2        3.8310   15.7030   13.3220 C.ar  329  TRP329      0.0152
     91  NE1        2.3950   15.6120   11.6250 N.ar  329  TRP329     -0.2442
     92  CE2        3.3310   16.4090   12.2250 C.ar  329  TRP329      0.0810
     93  CE3        4.8220   16.2890   14.1060 C.ar  329  TRP329      0.0012
     94  CZ2        3.7660   17.6890   11.8940 C.ar  329  TRP329      0.0191
     95  CZ3        5.2590   17.5700   13.7850 C.ar  329  TRP329      0.0001
     96  CH2        4.7290   18.2550   12.6760 C.ar  329  TRP329      0.0015
@<TRIPOS>BOND
     1     6     7    1
     2     6     5    1
     3     1     2    1
     4     7     8    1
     5     2     5    1
     6     2     3    1
     7     8     9    2
     8     3     4    2
     9     9    11    1
    10     9    10    1
    11    34    33    2
    12    33    32    1
    13    37    39   ar
    14    37    36   ar
    15    39    40   ar
    16    36    35    1
    17    36    38   ar
    18    32    35    1
    19    32    31    1
    20    12    13    1
    21    40    38   ar
    22    40    42   ar
    23    38    41   ar
    24    19    18   ar
    25    13    16    1
    26    13    14    1
    27    42    44   ar
    28    69    68    2
    29    16    17    1
    30    70    68   am
    31    71    72    1
    32    74    73    2
    33    68    67    1
    34    72    73    1
    35    72    75    1
    36    18    17    1
    37    18    20   ar
    38    41    43   ar
    39    14    15    2
    40    73    77   am
    41    44    43   ar
    42    75    76    1
    43    53    51   am
    44    67    66    1
    45    66    63    1
    46    77    78    1
    47    51    52    2
    48    51    50    1
    49    65    64    2
    50    64    63    1
    51    80    79    2
    52    78    79    1
    53    78    81    1
    54    63    62    1
    55    27    29   ar
    56    27    26   ar
    57    29    30   ar
    58    79    83   am
    59    91    92   ar
    60    91    89   ar
    61    50    49    1
    62    94    92   ar
    63    94    96   ar
    64    23    24    2
    65    23    22    1
    66    81    82    1
    67    92    90   ar
    68    89    88   ar
    69    26    25    1
    70    26    28   ar
    71    30    28   ar
    72    49    46    1
    73    96    95   ar
    74    25    22    1
    75    83    84    1
    76    22    21    1
    77    45    46    1
    78    90    88   ar
    79    90    93   ar
    80    88    87    1
    81    46    47    1
    82    84    87    1
    83    84    85    1
    84    95    93   ar
    85    47    48    2
    86    61    59    1
    87    85    86    2
    88    60    59    1
    89    59    58    1
    90    58    55    1
    91    54    55    1
    92    55    56    1
    93    56    57    2
