@<TRIPOS>MOLECULE
tmp/5mxhA01.pdb
 111 110 0 0 0
SMALL
GASTEIGER

@<TRIPOS>ATOM
      1  N          9.5980   40.6050    0.5450 N.3   159  ASN159     -0.1240
      2  CA         8.9140   40.2250   -0.6880 C.3   159  ASN159      0.1653
      3  C          9.8170   39.4780   -1.6590 C.2   159  ASN159      0.2266
      4  O         11.0490   39.5450   -1.5830 O.2   159  ASN159     -0.2867
      5  CB         8.3000   41.4530   -1.3940 C.3   159  ASN159      0.1155
      6  CG         7.0330   41.9410   -0.7120 C.2   159  ASN159      0.2627
      7  OD1        5.9450   41.3920   -0.9510 O.2   159  ASN159     -0.2716
      8  ND2        7.1650   42.9580    0.1620 N.am  159  ASN159     -0.0877
      9  N         11.7890   43.6370   -1.4150 N.3   163  ARG163     -0.1245
     10  CA        11.2710   44.7510   -0.5860 C.3   163  ARG163      0.1563
     11  C         10.8270   44.2400    0.7690 C.2   163  ARG163      0.2260
     12  O          9.9660   43.3390    0.8530 O.2   163  ARG163     -0.2867
     13  CB        10.1390   45.4770   -1.3170 C.3   163  ARG163      0.0307
     14  CG        10.5980   46.3690   -2.4830 C.3   163  ARG163      0.0489
     15  CD         9.4280   47.0330   -3.2200 C.3   163  ARG163      0.2205
     16  NE         8.3540   46.0890   -3.5500 N.pl3 163  ARG163     -0.0865
     17  CZ         7.2300   45.8750   -2.8490 C.cat 163  ARG163      0.5346
     18  NH1        6.9760   46.4990   -1.6880 N.pl3 163  ARG163      0.1354
     19  NH2        6.3980   44.9210   -3.2590 N.pl3 163  ARG163      0.1354
     20  N          8.8770   44.2080    4.2620 N.3   165  GLU165     -0.1245
     21  CA         7.5000   44.5760    4.6250 C.3   165  GLU165      0.1567
     22  C          7.2050   44.1470    6.0530 C.2   165  GLU165      0.2260
     23  O          7.4760   43.0090    6.4710 O.2   165  GLU165     -0.2867
     24  CB         6.5250   43.9950    3.6060 C.3   165  GLU165      0.0388
     25  CG         5.0450   44.4100    3.7430 C.3   165  GLU165      0.1160
     26  CD         4.2520   44.2280    2.4530 C.2   165  GLU165      0.3649
     27  OE1        4.8510   44.1470    1.3680 O.co2 165  GLU165     -0.2457
     28  OE2        2.9860   44.1500    2.4900 O.co2 165  GLU165     -0.2457
     29  N          0.1470   47.1690    7.7610 N.3   177  HIS177     -0.1241
     30  CA         1.4590   46.9050    7.1630 C.3   177  HIS177      0.1621
     31  C          2.0510   48.1200    6.5250 C.2   177  HIS177      0.2264
     32  O          1.3740   49.1420    6.2920 O.2   177  HIS177     -0.2867
     33  CB         1.4200   45.7220    6.1960 C.3   177  HIS177      0.0745
     34  CG         0.6260   45.9500    4.9450 C.ar  177  HIS177      0.0817
     35  ND1        1.0040   45.4300    3.7220 N.ar  177  HIS177     -0.2268
     36  CD2       -0.5510   46.5990    4.7230 C.ar  177  HIS177      0.1154
     37  CE1        0.1160   45.7650    2.8010 C.ar  177  HIS177      0.1986
     38  NE2       -0.8430   46.4700    3.3840 N.ar  177  HIS177     -0.2212
     39  N          5.8110   49.0050    3.9230 N.3   179  TRP179     -0.1241
     40  CA         6.7730   48.3150    3.0250 C.3   179  TRP179      0.1605
     41  C          7.7800   49.2890    2.4530 C.2   179  TRP179      0.2264
     42  O          7.5100   50.4800    2.2530 O.2   179  TRP179     -0.2867
     43  CB         6.0670   47.5430    1.8860 C.3   179  TRP179      0.0550
     44  CG         5.1340   48.4350    1.0900 C.ar  179  TRP179      0.0003
     45  CD1        5.4200   49.1600   -0.0200 C.ar  179  TRP179      0.0946
     46  CD2        3.7760   48.7010    1.4120 C.ar  179  TRP179      0.0152
     47  NE1        4.2980   49.8830   -0.4290 N.ar  179  TRP179     -0.2442
     48  CE2        3.2750   49.6020    0.4390 C.ar  179  TRP179      0.0810
     49  CE3        2.9310   48.2710    2.4350 C.ar  179  TRP179      0.0012
     50  CZ2        1.9820   50.0890    0.4830 C.ar  179  TRP179      0.0191
     51  CZ3        1.6430   48.7620    2.4870 C.ar  179  TRP179      0.0001
     52  CH2        1.1780   49.6540    1.5010 C.ar  179  TRP179      0.0015
     53  N         -0.7230   51.1760    6.0930 N.3   192  GLU192     -0.1245
     54  CA        -2.0260   50.9100    5.4470 C.3   192  GLU192      0.1567
     55  C         -2.7240   49.7860    6.1850 C.2   192  GLU192      0.2260
     56  O         -2.0640   48.8490    6.6620 O.2   192  GLU192     -0.2867
     57  CB        -1.8650   50.5360    3.9480 C.3   192  GLU192      0.0388
     58  CG        -2.4180   51.5640    2.9510 C.3   192  GLU192      0.1160
     59  CD        -2.2470   51.1740    1.4720 C.2   192  GLU192      0.3649
     60  OE1       -2.8060   50.1510    1.0270 O.co2 192  GLU192     -0.2457
     61  OE2       -1.5690   51.9180    0.7360 O.co2 192  GLU192     -0.2457
     62  N         -1.3090   38.5890   -0.4900 N.3   228  GLN228     -0.1245
     63  CA        -1.1300   39.3020   -1.7440 C.3   228  GLN228      0.1566
     64  C         -1.7360   38.4580   -2.8680 C.2   228  GLN228      0.2260
     65  O         -1.5050   37.2670   -2.8900 O.2   228  GLN228     -0.2867
     66  CB         0.3810   39.4920   -2.0490 C.3   228  GLN228      0.0367
     67  CG         1.1070   40.4040   -1.0820 C.3   228  GLN228      0.0905
     68  CD         2.5950   40.5380   -1.3940 C.2   228  GLN228      0.2608
     69  OE1        3.2340   39.6210   -1.9000 O.2   228  GLN228     -0.2717
     70  NE2        3.1410   41.6840   -1.0880 N.am  228  GLN228     -0.0878
     71  N          4.5190   39.5930   -4.9470 N.3   232  HIS232     -0.1226
     72  CA         5.0240   40.8360   -4.3190 C.3   232  HIS232      0.1752
     73  C          4.1910   42.0640   -4.5850 C.2   232  HIS232      0.2597
     74  O          4.7320   43.1270   -4.7870 O.2   232  HIS232     -0.2718
     75  CB         6.5060   41.1100   -4.6560 C.3   232  HIS232      0.0759
     76  CG         6.7840   41.2320   -6.1270 C.ar  232  HIS232      0.0818
     77  ND1        6.4740   42.3650   -6.8440 N.ar  232  HIS232     -0.2268
     78  CD2        7.2690   40.3450   -7.0220 C.ar  232  HIS232      0.1154
     79  CE1        6.7680   42.1800   -8.1190 C.ar  232  HIS232      0.1986
     80  NE2        7.2360   40.9540   -8.2540 N.ar  232  HIS232     -0.2212
     81  N          2.8710   41.9370   -4.5980 N.am  233  SER233     -0.1938
     82  CA         2.0060   43.1040   -4.8410 C.3   233  SER233      0.2055
     83  C          0.5860   42.9580   -4.3300 C.2   233  SER233      0.2644
     84  O          0.0090   41.8710   -4.3250 O.2   233  SER233     -0.2714
     85  CB         1.9760   43.4640   -6.3230 C.3   233  SER233      0.2130
     86  OG         1.2190   44.6420   -6.5830 O.3   233  SER233     -0.2179
     87  N          0.0260   44.0870   -3.8990 N.am  234  GLY234     -0.1940
     88  CA        -1.4210   44.1860   -3.7360 C.3   234  GLY234      0.1999
     89  C         -2.0750   44.1520   -5.1210 C.2   234  GLY234      0.2481
     90  O         -1.3700   44.2120   -6.1220 O.2   234  GLY234     -0.2729
     91  N         -3.4010   44.0410   -5.1980 N.am  235  PRO235     -0.2715
     92  CA        -4.2680   44.0640   -4.0250 C.3   235  PRO235      0.1536
     93  C         -4.1900   42.8070   -3.2120 C.2   235  PRO235      0.2598
     94  O         -3.8320   41.7460   -3.7170 O.2   235  PRO235     -0.2715
     95  CB        -5.6840   44.2270   -4.6280 C.3   235  PRO235      0.0310
     96  CG        -5.5670   43.6950   -6.0130 C.3   235  PRO235      0.0237
     97  CD        -4.1680   44.0010   -6.4630 C.3   235  PRO235      0.0939
     98  N         -4.4940   42.9530   -1.9330 N.am  236  TRP236     -0.1974
     99  CA        -4.6310   41.8380   -1.0380 C.3   236  TRP236      0.1640
    100  C         -5.9930   41.1450   -1.1820 C.2   236  TRP236      0.2290
    101  O         -6.9580   41.7350   -1.6580 O.2   236  TRP236     -0.2864
    102  CB        -4.3830   42.2990    0.4070 C.3   236  TRP236      0.0576
    103  CG        -2.9330   42.5360    0.6490 C.ar  236  TRP236      0.0006
    104  CD1       -2.1610   43.5160    0.1190 C.ar  236  TRP236      0.0946
    105  CD2       -2.0680   41.7420    1.4600 C.ar  236  TRP236      0.0152
    106  NE1       -0.8670   43.3960    0.5660 N.ar  236  TRP236     -0.2442
    107  CE2       -0.7830   42.3090    1.3820 C.ar  236  TRP236      0.0810
    108  CE3       -2.2530   40.5900    2.2380 C.ar  236  TRP236      0.0012
    109  CZ2        0.2990   41.7840    2.0780 C.ar  236  TRP236      0.0191
    110  CZ3       -1.1760   40.0600    2.9090 C.ar  236  TRP236      0.0001
    111  CH2        0.0820   40.6470    2.8260 C.ar  236  TRP236      0.0015
@<TRIPOS>BOND
     1    80    79   ar
     2    80    78   ar
     3    79    77   ar
     4    78    76   ar
     5    77    76   ar
     6    86    85    1
     7    97    96    1
     8    97    91    1
     9    85    82    1
    10    76    75    1
    11    90    89    2
    12    96    95    1
    13    91    89   am
    14    91    92    1
    15    89    88    1
    16    71    72    1
    17    82    81    1
    18    82    83    1
    19    74    73    2
    20    75    72    1
    21    95    92    1
    22    81    73   am
    23    73    72    1
    24    83    84    2
    25    83    87   am
    26    92    93    1
    27    87    88    1
    28    94    93    2
    29    16    15    1
    30    16    17    2
    31    19    17    1
    32    15    14    1
    33    93    98   am
    34    65    64    2
    35    64    63    1
    36    17    18    1
    37    14    13    1
    38    66    63    1
    39    66    67    1
    40    98    99    1
    41    69    68    2
    42    63    62    1
    43     3     4    2
    44     3     2    1
    45   101   100    2
    46     9    10    1
    47     5     6    1
    48     5     2    1
    49    68    70   am
    50    68    67    1
    51    13    10    1
    52   100    99    1
    53    99   102    1
    54     7     6    2
    55     6     8   am
    56     2     1    1
    57    10    11    1
    58    47    45   ar
    59    47    48   ar
    60    45    44   ar
    61   104   106   ar
    62   104   103   ar
    63   102   103    1
    64    48    50   ar
    65    48    46   ar
    66    50    52   ar
    67   106   107   ar
    68   103   105   ar
    69    61    59   ar
    70    11    12    2
    71    60    59   ar
    72    44    46   ar
    73    44    43    1
    74    27    26   ar
    75   107   105   ar
    76   107   109   ar
    77    46    49   ar
    78   105   108   ar
    79    59    58    1
    80    52    51   ar
    81    43    40    1
    82   109   111   ar
    83   108   110   ar
    84    42    41    2
    85    49    51   ar
    86    41    40    1
    87    26    28   ar
    88    26    25    1
    89    37    38   ar
    90    37    35   ar
    91   111   110   ar
    92    58    57    1
    93    40    39    1
    94    38    36   ar
    95    24    25    1
    96    24    21    1
    97    35    34   ar
    98    57    54    1
    99    20    21    1
   100    21    22    1
   101    36    34   ar
   102    34    33    1
   103    54    53    1
   104    54    55    1
   105    22    23    2
   106    55    56    2
   107    33    30    1
   108    32    31    2
   109    31    30    1
   110    30    29    1
