@<TRIPOS>MOLECULE
tmp/5mxhA00.pdb
 111 110 0 0 0
SMALL
GASTEIGER

@<TRIPOS>ATOM
      1  N         22.7720   35.4060    9.5350 N.3    64  ASN64      -0.1240
      2  CA        23.4220   36.2960    8.6190 C.3    64  ASN64       0.1653
      3  C         23.6890   35.5820    7.2690 C.2    64  ASN64       0.2266
      4  O         23.7450   34.3430    7.1870 O.2    64  ASN64      -0.2867
      5  CB        24.7370   36.8480    9.1810 C.3    64  ASN64       0.1155
      6  CG        24.5420   37.9720   10.1920 C.2    64  ASN64       0.2627
      7  OD1       24.3260   39.1450    9.8390 O.2    64  ASN64      -0.2716
      8  ND2       24.6120   37.6270   11.4630 N.am   64  ASN64      -0.0877
      9  N         26.6150   33.0530    9.9070 N.3    68  ARG68      -0.1245
     10  CA        26.7660   33.3100   11.3390 C.3    68  ARG68       0.1563
     11  C         25.4200   33.5970   11.9890 C.2    68  ARG68       0.2260
     12  O         24.7150   34.4790   11.5380 O.2    68  ARG68      -0.2867
     13  CB        27.7540   34.4560   11.6050 C.3    68  ARG68       0.0307
     14  CG        29.1910   34.1660   11.1790 C.3    68  ARG68       0.0489
     15  CD        30.1660   35.2790   11.5510 C.3    68  ARG68       0.2205
     16  NE        29.7260   36.5640   10.9740 N.pl3  68  ARG68      -0.0865
     17  CZ        29.0580   37.5360   11.6100 C.cat  68  ARG68       0.5346
     18  NH1       28.6930   37.4510   12.8940 N.pl3  68  ARG68       0.1354
     19  NH2       28.6980   38.5940   10.9110 N.pl3  68  ARG68       0.1354
     20  N         22.9880   35.0840   14.8400 N.3    70  GLU70      -0.1245
     21  CA        22.9400   36.2820   15.6650 C.3    70  GLU70       0.1567
     22  C         21.5770   36.3490   16.4040 C.2    70  GLU70       0.2260
     23  O         20.5340   36.1930   15.7750 O.2    70  GLU70      -0.2867
     24  CB        23.1410   37.5090   14.7700 C.3    70  GLU70       0.0388
     25  CG        23.2140   38.8600   15.4840 C.3    70  GLU70       0.1160
     26  CD        23.9290   39.9380   14.6670 C.2    70  GLU70       0.3649
     27  OE1       24.5150   39.6690   13.5820 O.co2  70  GLU70      -0.2457
     28  OE2       23.9310   41.0990   15.1190 O.co2  70  GLU70      -0.2457
     29  N         22.4590   42.4620   21.2910 N.3    82  HIS82      -0.1241
     30  CA        22.6990   41.3280   20.3830 C.3    82  HIS82       0.1621
     31  C         23.9900   40.6310   20.7230 C.2    82  HIS82       0.2264
     32  O         24.8320   41.2060   21.4150 O.2    82  HIS82      -0.2867
     33  CB        22.6320   41.7740   18.8990 C.3    82  HIS82       0.0745
     34  CG        23.6870   42.7550   18.4840 C.ar   82  HIS82       0.0817
     35  ND1       24.2780   42.7110   17.2390 N.ar   82  HIS82      -0.2268
     36  CD2       24.3050   43.7520   19.1530 C.ar   82  HIS82       0.1154
     37  CE1       25.1630   43.6910   17.1330 C.ar   82  HIS82       0.1986
     38  NE2       25.2180   44.3190   18.2970 N.ar   82  HIS82      -0.2212
     39  N         26.4990   37.3540   18.6210 N.3    84  TRP84      -0.1241
     40  CA        26.6660   36.6880   17.3250 C.3    84  TRP84       0.1605
     41  C         27.7840   35.6640   17.3880 C.2    84  TRP84       0.2264
     42  O         28.6800   35.7870   18.1990 O.2    84  TRP84      -0.2867
     43  CB        26.9650   37.7280   16.2490 C.3    84  TRP84       0.0550
     44  CG        28.1300   38.6070   16.5960 C.ar   84  TRP84       0.0003
     45  CD1       29.4280   38.4000   16.2720 C.ar   84  TRP84       0.0946
     46  CD2       28.1000   39.7970   17.3940 C.ar   84  TRP84       0.0152
     47  NE1       30.2110   39.4280   16.7370 N.ar   84  TRP84      -0.2442
     48  CE2       29.4280   40.2710   17.4830 C.ar   84  TRP84       0.0810
     49  CE3       27.0820   40.4960   18.0640 C.ar   84  TRP84       0.0012
     50  CZ2       29.7750   41.4320   18.2100 C.ar   84  TRP84       0.0191
     51  CZ3       27.4210   41.6720   18.7730 C.ar   84  TRP84       0.0001
     52  CH2       28.7660   42.1130   18.8320 C.ar   84  TRP84       0.0015
     53  N         26.3790   42.8090   23.2190 N.3    96  GLN96      -0.1245
     54  CA        26.6670   44.2230   22.9840 C.3    96  GLN96       0.1566
     55  C         25.3220   44.9690   22.8080 C.2    96  GLN96       0.2260
     56  O         24.3540   44.3880   22.2950 O.2    96  GLN96      -0.2867
     57  CB        27.5540   44.3200   21.7570 C.3    96  GLN96       0.0367
     58  CG        28.2740   45.6330   21.5400 C.3    96  GLN96       0.0905
     59  CD        29.4540   45.4900   20.5650 C.2    96  GLN96       0.2608
     60  OE1       29.5400   46.1910   19.5710 O.2    96  GLN96      -0.2717
     61  NE2       30.3550   44.5530   20.8530 N.am   96  GLN96      -0.0878
     62  N         22.5330   46.9100   10.1330 N.3   132  GLN132     -0.1245
     63  CA        23.9400   46.8140    9.7480 C.3   132  GLN132      0.1566
     64  C         24.2430   47.7950    8.6200 C.2   132  GLN132      0.2260
     65  O         23.4030   47.9900    7.7410 O.2   132  GLN132     -0.2867
     66  CB        24.2480   45.3840    9.2970 C.3   132  GLN132      0.0367
     67  CG        24.2600   44.4060   10.4430 C.3   132  GLN132      0.0905
     68  CD        24.2900   42.9760    9.9820 C.2   132  GLN132      0.2608
     69  OE1       24.0070   42.6680    8.8110 O.2   132  GLN132     -0.2717
     70  NE2       24.5840   42.0730   10.9240 N.am  132  GLN132     -0.0878
     71  N         26.2780   41.6960    6.6720 N.3   136  HIS136     -0.1226
     72  CA        26.5190   40.9790    7.9400 C.3   136  HIS136      0.1752
     73  C         27.5750   41.6180    8.8270 C.2   136  HIS136      0.2597
     74  O         28.4640   40.9310    9.3850 O.2   136  HIS136     -0.2718
     75  CB        26.8660   39.4900    7.6600 C.3   136  HIS136      0.0759
     76  CG        27.8830   39.3070    6.5720 C.ar  136  HIS136      0.0818
     77  ND1       29.2390   39.4560    6.7730 N.ar  136  HIS136     -0.2268
     78  CD2       27.7300   39.0060    5.2650 C.ar  136  HIS136      0.1154
     79  CE1       29.8720   39.2760    5.6360 C.ar  136  HIS136      0.1986
     80  NE2       28.9800   38.9670    4.7110 N.ar  136  HIS136     -0.2212
     81  N         27.4910   42.9330    8.9770 N.am  137  SER137     -0.1938
     82  CA        28.4810   43.6280    9.7880 C.3   137  SER137      0.2055
     83  C         28.0680   44.9450   10.3360 C.2   137  SER137      0.2644
     84  O         27.4660   45.7490    9.6460 O.2   137  SER137     -0.2714
     85  CB        29.8140   43.8450    9.0220 C.3   137  SER137      0.2130
     86  OG        30.8010   44.1990    9.9790 O.3   137  SER137     -0.2179
     87  N         28.4530   45.1830   11.5920 N.am  138  GLY138     -0.1940
     88  CA        28.5110   46.5300   12.1090 C.3   138  GLY138      0.1999
     89  C         29.5820   47.3590   11.3770 C.2   138  GLY138      0.2481
     90  O         30.3710   46.8020   10.5770 O.2   138  GLY138     -0.2729
     91  N         29.6580   48.6590   11.6550 N.am  139  PRO139     -0.2715
     92  CA        28.8030   49.3380   12.6120 C.3   139  PRO139      0.1536
     93  C         27.3460   49.4040   12.1940 C.2   139  PRO139      0.2598
     94  O         27.0140   49.2210   11.0170 O.2   139  PRO139     -0.2715
     95  CB        29.4050   50.7640   12.6860 C.3   139  PRO139      0.0310
     96  CG        30.2110   50.9220   11.4580 C.3   139  PRO139      0.0237
     97  CD        30.7400   49.5330   11.1730 C.3   139  PRO139      0.0939
     98  N         26.4960   49.6640   13.1680 N.am  140  TRP140     -0.1974
     99  CA        25.0730   49.7770   12.9250 C.3   140  TRP140      0.1640
    100  C         24.7010   51.2520   12.6870 C.2   140  TRP140      0.2290
    101  O         25.4300   52.1590   13.0790 O.2   140  TRP140     -0.2864
    102  CB        24.2960   49.1390   14.0610 C.3   140  TRP140      0.0576
    103  CG        24.3270   47.6610   14.0400 C.ar  140  TRP140      0.0006
    104  CD1       25.3940   46.8790   14.2510 C.ar  140  TRP140      0.0946
    105  CD2       23.2410   46.7930   13.8010 C.ar  140  TRP140      0.0152
    106  NE1       25.0600   45.5580   14.1350 N.ar  140  TRP140     -0.2442
    107  CE2       23.7260   45.4810   13.8680 C.ar  140  TRP140      0.0810
    108  CE3       21.8950   46.9890   13.5380 C.ar  140  TRP140      0.0012
    109  CZ2       22.9020   44.3660   13.6560 C.ar  140  TRP140      0.0191
    110  CZ3       21.0860   45.9030   13.3140 C.ar  140  TRP140      0.0001
    111  CH2       21.5860   44.6010   13.3920 C.ar  140  TRP140      0.0015
@<TRIPOS>BOND
     1    80    78   ar
     2    80    79   ar
     3    78    76   ar
     4    79    77   ar
     5    76    77   ar
     6    76    75    1
     7    71    72    1
     8     4     3    2
     9     3     2    1
    10    75    72    1
    11    65    64    2
    12    72    73    1
    13     2     5    1
    14     2     1    1
    15    64    63    1
    16    69    68    2
    17    73    81   am
    18    73    74    2
    19    81    82    1
    20    85    82    1
    21    85    86    1
    22     5     6    1
    23    66    63    1
    24    66    67    1
    25    84    83    2
    26    63    62    1
    27    82    83    1
    28     7     6    2
    29     9    10    1
    30    68    67    1
    31    68    70   am
    32     6     8   am
    33    83    87   am
    34    90    89    2
    35    19    17    1
    36    16    15    1
    37    16    17    2
    38    94    93    2
    39    97    96    1
    40    97    91    1
    41    14    15    1
    42    14    13    1
    43    10    13    1
    44    10    11    1
    45    89    91   am
    46    89    88    1
    47    96    95    1
    48    12    11    2
    49    87    88    1
    50    17    18    1
    51    91    92    1
    52    93    92    1
    53    93    98   am
    54    92    95    1
    55   100    99    1
    56   100   101    2
    57    99    98    1
    58    99   102    1
    59   110   111   ar
    60   110   108   ar
    61   111   109   ar
    62   108   105   ar
    63    27    26   ar
    64   109   107   ar
    65   105   107   ar
    66   105   103   ar
    67   107   106   ar
    68   103   102    1
    69   103   104   ar
    70   106   104   ar
    71    26    28   ar
    72    26    25    1
    73    24    25    1
    74    24    21    1
    75    20    21    1
    76    21    22    1
    77    23    22    2
    78    43    44    1
    79    43    40    1
    80    45    44   ar
    81    45    47   ar
    82    44    46   ar
    83    47    48   ar
    84    37    35   ar
    85    37    38   ar
    86    35    34   ar
    87    40    41    1
    88    40    39    1
    89    41    42    2
    90    46    48   ar
    91    46    49   ar
    92    48    50   ar
    93    49    51   ar
    94    50    52   ar
    95    38    36   ar
    96    34    33    1
    97    34    36   ar
    98    51    52   ar
    99    33    30    1
   100    60    59    2
   101    30    31    1
   102    30    29    1
   103    59    61   am
   104    59    58    1
   105    31    32    2
   106    58    57    1
   107    57    54    1
   108    56    55    2
   109    55    54    1
   110    54    53    1
