@<TRIPOS>MOLECULE
tmp/5mxkA00.pdb
 148 144 0 0 0
SMALL
GASTEIGER

@<TRIPOS>ATOM
      1  N        127.5740   35.1190    3.1280 N.3    66  LEU66      -0.1245
      2  CA       127.3100   33.8790    3.8500 C.3    66  LEU66       0.1561
      3  C        126.3080   34.1020    4.9760 C.2    66  LEU66       0.2260
      4  O        125.4040   33.2850    5.1870 O.2    66  LEU66      -0.2867
      5  CB       128.6220   33.3220    4.4000 C.3    66  LEU66       0.0270
      6  CG       128.6780   31.8430    4.7660 C.3    66  LEU66       0.0019
      7  CD1      128.2590   30.9900    3.5890 C.3    66  LEU66       0.0001
      8  CD2      130.0850   31.4850    5.2100 C.3    66  LEU66       0.0001
      9  N        122.1470   23.4290   -1.4270 N.3    81  MET81      -0.1230
     10  CA       122.3980   24.3120   -0.3040 C.3    81  MET81       0.1702
     11  C        123.9020   24.4560   -0.1250 C.2    81  MET81       0.2592
     12  O        124.3930   25.5410   -0.0260 O.2    81  MET81      -0.2718
     13  CB       121.7340   23.8270    0.9750 C.3    81  MET81       0.0401
     14  CG       120.2210   23.9140    0.8860 C.3    81  MET81       0.0596
     15  SD       119.2980   23.3820    2.3150 S.3    81  MET81      -0.1393
     16  CE       118.9660   24.9900    2.9600 C.3    81  MET81       0.0692
     17  N        124.6140   23.3390   -0.0970 N.am   82  TRP82      -0.1976
     18  CA       126.0680   23.4110   -0.0160 C.3    82  TRP82       0.1640
     19  C        126.6400   24.1690   -1.2110 C.2    82  TRP82       0.2290
     20  O        127.5060   25.0330   -1.0470 O.2    82  TRP82      -0.2864
     21  CB       126.6760   22.0080    0.1000 C.3    82  TRP82       0.0576
     22  CG       126.4460   21.4000    1.4580 C.ar   82  TRP82       0.0006
     23  CD1      125.6290   20.3500    1.7690 C.ar   82  TRP82       0.0946
     24  CD2      127.0230   21.8380    2.6950 C.ar   82  TRP82       0.0152
     25  NE1      125.6670   20.1040    3.1330 N.ar   82  TRP82      -0.2442
     26  CE2      126.5120   21.0060    3.7190 C.ar   82  TRP82       0.0810
     27  CE3      127.9200   22.8560    3.0360 C.ar   82  TRP82       0.0012
     28  CZ2      126.8730   21.1600    5.0620 C.ar   82  TRP82       0.0191
     29  CZ3      128.2730   23.0090    4.3720 C.ar   82  TRP82       0.0001
     30  CH2      127.7560   22.1620    5.3630 C.ar   82  TRP82       0.0015
     31  N        126.3960   27.8940   -0.8100 N.3    85  GLY85      -0.1210
     32  CA       127.3420   28.4470    0.1490 C.3    85  GLY85       0.1956
     33  C        128.7610   28.5140   -0.3920 C.2    85  GLY85       0.2611
     34  O        129.4350   29.5450   -0.2780 O.2    85  GLY85      -0.2717
     35  N        129.2510   27.4050   -0.9580 N.am   86  ILE86      -0.1979
     36  CA       130.5630   27.4180   -1.6070 C.3    86  ILE86       0.1595
     37  C        130.6100   28.4840   -2.6980 C.2    86  ILE86       0.2287
     38  O        131.6480   29.1290   -2.9090 O.2    86  ILE86      -0.2864
     39  CB       130.8980   26.0180   -2.1600 C.3    86  ILE86       0.0276
     40  CG1      131.0910   25.0160   -1.0030 C.3    86  ILE86       0.0022
     41  CG2      132.1460   26.0560   -3.0190 C.3    86  ILE86       0.0022
     42  CD1      131.1090   23.5760   -1.4550 C.3    86  ILE86       0.0001
     43  N        132.0780   31.9730   -1.9610 N.3    89  PHE89      -0.1241
     44  CA       133.5180   32.1610   -2.0290 C.3    89  PHE89       0.1605
     45  C        133.9950   32.1830   -3.4700 C.2    89  PHE89       0.2264
     46  O        134.8460   33.0070   -3.8310 O.2    89  PHE89      -0.2867
     47  CB       134.2160   31.0780   -1.2070 C.3    89  PHE89       0.0534
     48  CG       133.8050   31.0910    0.2320 C.ar   89  PHE89      -0.0203
     49  CD1      132.6830   30.3910    0.6560 C.ar   89  PHE89      -0.0042
     50  CD2      134.4820   31.8720    1.1380 C.ar   89  PHE89      -0.0042
     51  CE1      132.2820   30.4190    1.9620 C.ar   89  PHE89      -0.0003
     52  CE2      134.0770   31.9150    2.4670 C.ar   89  PHE89      -0.0003
     53  CZ       132.9650   31.1850    2.8710 C.ar   89  PHE89      -0.0000
     54  N        138.7940   32.3630    8.4690 N.3   121  MET121     -0.1245
     55  CA       138.7650   30.9270    8.2240 C.3   121  MET121      0.1570
     56  C        138.2820   30.1780    9.4600 C.2   121  MET121      0.2261
     57  O        137.4960   29.2320    9.3490 O.2   121  MET121     -0.2867
     58  CB       140.1460   30.4370    7.7890 C.3   121  MET121      0.0387
     59  CG       140.4810   30.7930    6.3400 C.3   121  MET121      0.0595
     60  SD       139.5320   29.8320    5.1210 S.3   121  MET121     -0.1393
     61  CE       140.2790   28.2320    5.2570 C.3   121  MET121      0.0692
     62  N        134.4930   30.5720    9.4320 N.3   124  TRP124     -0.1241
     63  CA       133.7690   29.8250    8.4130 C.3   124  TRP124      0.1605
     64  C        133.8160   28.3270    8.6880 C.2   124  TRP124      0.2264
     65  O        132.8680   27.6030    8.3710 O.2   124  TRP124     -0.2867
     66  CB       134.3550   30.1590    7.0340 C.3   124  TRP124      0.0550
     67  CG       134.2310   31.6110    6.6720 C.ar  124  TRP124      0.0003
     68  CD1      133.2320   32.4610    7.0480 C.ar  124  TRP124      0.0946
     69  CD2      135.1330   32.3850    5.8520 C.ar  124  TRP124      0.0152
     70  NE1      133.4510   33.7120    6.5140 N.ar  124  TRP124     -0.2442
     71  CE2      134.6130   33.6920    5.7800 C.ar  124  TRP124      0.0810
     72  CE3      136.3320   32.0980    5.1800 C.ar  124  TRP124      0.0012
     73  CZ2      135.2530   34.7130    5.0680 C.ar  124  TRP124      0.0191
     74  CZ3      136.9610   33.1120    4.4670 C.ar  124  TRP124      0.0001
     75  CH2      136.4200   34.3980    4.4140 C.ar  124  TRP124      0.0015
     76  N        131.2740   27.5930   11.4740 N.3   127  TYR127     -0.1227
     77  CA       129.9260   27.5790   10.9210 C.3   127  TYR127      0.1736
     78  C        129.6930   26.3020   10.1170 C.2   127  TYR127      0.2596
     79  O        128.6340   25.6760   10.2330 O.2   127  TYR127     -0.2718
     80  CB       129.7050   28.8380   10.0790 C.3   127  TYR127      0.0548
     81  CG       128.3700   28.8990    9.3780 C.ar  127  TYR127     -0.0200
     82  CD1      127.2090   28.4800   10.0070 C.ar  127  TYR127     -0.0009
     83  CD2      128.2690   29.3940    8.0900 C.ar  127  TYR127     -0.0009
     84  CE1      125.9900   28.5360    9.3650 C.ar  127  TYR127      0.0417
     85  CE2      127.0580   29.4530    7.4430 C.ar  127  TYR127      0.0417
     86  CZ       125.9220   29.0210    8.0830 C.ar  127  TYR127      0.1957
     87  OH       124.7070   29.0830    7.4370 O.3   127  TYR127     -0.2866
     88  N        130.6940   25.8730    9.3460 N.am  128  THR128     -0.1953
     89  CA       130.6010   24.6020    8.6260 C.3   128  THR128      0.1897
     90  C        130.3830   23.4430    9.5860 C.2   128  THR128      0.2313
     91  O        129.5450   22.5660    9.3480 O.2   128  THR128     -0.2863
     92  CB       131.8720   24.3530    7.8030 C.3   128  THR128      0.1794
     93  OG1      132.0530   25.4010    6.8400 O.3   128  THR128     -0.2208
     94  CG2      131.7570   23.0220    7.0520 C.3   128  THR128      0.0378
     95  N        126.7800   23.3580   10.9840 N.3   131  VAL131     -0.1245
     96  CA       125.8150   22.8140   10.0260 C.3   131  VAL131      0.1561
     97  C        125.9480   21.2940    9.9360 C.2   131  VAL131      0.2260
     98  O        124.9500   20.5640    9.9640 O.2   131  VAL131     -0.2867
     99  CB       125.9920   23.4780    8.6440 C.3   131  VAL131      0.0252
    100  CG1      125.0240   22.8590    7.6300 C.3   131  VAL131      0.0019
    101  CG2      125.7670   24.9870    8.7510 C.3   131  VAL131      0.0019
    102  N        137.3950   23.2170    4.2520 N.3   155  ASN155     -0.1240
    103  CA       137.5910   24.6470    4.0330 C.3   155  ASN155      0.1653
    104  C        138.9900   24.9320    3.4970 C.2   155  ASN155      0.2266
    105  O        139.1660   25.8050    2.6420 O.2   155  ASN155     -0.2867
    106  CB       137.3270   25.4220    5.3280 C.3   155  ASN155      0.1155
    107  CG       135.8480   25.7610    5.5060 C.2   155  ASN155      0.2627
    108  OD1      135.4170   26.8570    5.1860 O.2   155  ASN155     -0.2716
    109  ND2      135.0660   24.8110    5.9980 N.am  155  ASN155     -0.0877
    110  N        138.9750   24.1430   -0.1800 N.3   158  ASN158     -0.1225
    111  CA       138.4000   25.2050   -1.0060 C.3   158  ASN158      0.1785
    112  C        139.3560   26.3810   -1.1300 C.2   158  ASN158      0.2597
    113  O        139.5060   26.9520   -2.2160 O.2   158  ASN158     -0.2718
    114  CB       137.0650   25.6790   -0.4300 C.3   158  ASN158      0.1169
    115  CG       135.9750   24.6600   -0.6070 C.2   158  ASN158      0.2627
    116  OD1      136.2520   23.5110   -0.9100 O.2   158  ASN158     -0.2716
    117  ND2      134.7310   25.0730   -0.4230 N.am  158  ASN158     -0.0877
    118  N        140.0090   26.7660   -0.0260 N.am  159  GLU159     -0.1979
    119  CA       140.9670   27.8680   -0.1040 C.3   159  GLU159      0.1602
    120  C        142.0470   27.5780   -1.1430 C.2   159  GLU159      0.2287
    121  O        142.2980   28.3940   -2.0360 O.2   159  GLU159     -0.2864
    122  CB       141.6120   28.1310    1.2560 C.3   159  GLU159      0.0415
    123  CG       142.8120   29.0680    1.1810 C.3   159  GLU159      0.1163
    124  CD       143.5620   29.1810    2.5180 C.2   159  GLU159      0.3649
    125  OE1      144.6000   28.5200    2.6760 O.co2 159  GLU159     -0.2457
    126  OE2      143.1100   29.9370    3.3990 O.co2 159  GLU159     -0.2457
    127  N        140.3330   26.8120   -4.9530 N.3   162  LEU162     -0.1245
    128  CA       139.8580   28.0260   -5.6070 C.3   162  LEU162      0.1561
    129  C        141.0200   28.9240   -6.0060 C.2   162  LEU162      0.2260
    130  O        141.0690   29.4110   -7.1390 O.2   162  LEU162     -0.2867
    131  CB       138.8870   28.7780   -4.7050 C.3   162  LEU162      0.0270
    132  CG       137.5260   28.1180   -4.5150 C.3   162  LEU162      0.0019
    133  CD1      136.7610   28.8780   -3.4460 C.3   162  LEU162      0.0001
    134  CD2      136.7530   28.1010   -5.8270 C.3   162  LEU162      0.0001
    135  N        132.5400   17.8870   -0.9460 N.3   186  TRP186     -0.1241
    136  CA       131.8530   18.2440    0.2970 C.3   186  TRP186      0.1605
    137  C        130.6900   17.2940    0.5650 C.2   186  TRP186      0.2264
    138  O        130.5740   16.7190    1.6520 O.2   186  TRP186     -0.2867
    139  CB       131.3550   19.6910    0.2300 C.3   186  TRP186      0.0550
    140  CG       132.4090   20.7470    0.5310 C.ar  186  TRP186      0.0003
    141  CD1      133.5940   20.9440   -0.1330 C.ar  186  TRP186      0.0946
    142  CD2      132.3530   21.7560    1.5610 C.ar  186  TRP186      0.0152
    143  NE1      134.2730   22.0120    0.4170 N.ar  186  TRP186     -0.2442
    144  CE2      133.5350   22.5230    1.4590 C.ar  186  TRP186      0.0810
    145  CE3      131.4100   22.0910    2.5480 C.ar  186  TRP186      0.0012
    146  CZ2      133.8110   23.5930    2.3180 C.ar  186  TRP186      0.0191
    147  CZ3      131.6860   23.1640    3.4040 C.ar  186  TRP186      0.0001
    148  CH2      132.8760   23.8960    3.2840 C.ar  186  TRP186      0.0015
@<TRIPOS>BOND
     1   130   129    2
     2   129   128    1
     3   134   132    1
     4   128   127    1
     5   128   131    1
     6   131   132    1
     7   132   133    1
     8    46    45    2
     9    45    44    1
    10    41    39    1
    11    38    37    2
    12    37    36    1
    13   113   112    2
    14    39    36    1
    15    39    40    1
    16   121   120    2
    17    44    43    1
    18    44    47    1
    19    36    35    1
    20    42    40    1
    21     9    10    1
    22    19    20    2
    23    19    18    1
    24    47    48    1
    25   120   119    1
    26   112   111    1
    27   112   118   am
    28   111   114    1
    29   111   110    1
    30    35    33   am
    31   135   136    1
    32   116   115    2
    33    31    32    1
    34   115   114    1
    35   115   117   am
    36    33    34    2
    37    33    32    1
    38    10    11    1
    39    10    13    1
    40   141   143   ar
    41   141   140   ar
    42    11    17   am
    43    11    12    2
    44   119   118    1
    45   119   122    1
    46    17    18    1
    47    18    21    1
    48    21    22    1
    49   139   136    1
    50   139   140    1
    51    48    49   ar
    52    48    50   ar
    53   136   137    1
    54   143   144   ar
    55   140   142   ar
    56   137   138    2
    57    49    51   ar
    58    14    13    1
    59    14    15    1
    60    50    52   ar
    61   123   122    1
    62   123   124    1
    63    22    23   ar
    64    22    24   ar
    65   144   142   ar
    66   144   146   ar
    67   142   145   ar
    68    23    25   ar
    69    51    53   ar
    70    15    16    1
    71   146   148   ar
    72    52    53   ar
    73   124   125   ar
    74   124   126   ar
    75   145   147   ar
    76   105   104    2
    77    24    27   ar
    78    24    26   ar
    79    27    29   ar
    80     1     2    1
    81    25    26   ar
    82   148   147   ar
    83   104   103    1
    84     7     6    1
    85    26    28   ar
    86     2     5    1
    87     2     3    1
    88   103   102    1
    89   103   106    1
    90    29    30   ar
    91     5     6    1
    92    75    74   ar
    93    75    73   ar
    94    74    72   ar
    95     6     8    1
    96     3     4    2
    97    28    30   ar
    98    73    71   ar
    99    60    61    1
   100    60    59    1
   101    72    69   ar
   102   108   107    2
   103   106   107    1
   104   107   109   am
   105    71    69   ar
   106    71    70   ar
   107    69    67   ar
   108    59    58    1
   109    70    68   ar
   110    67    66    1
   111    67    68   ar
   112    93    92    1
   113    66    63    1
   114    94    92    1
   115    87    86    1
   116    85    86   ar
   117    85    83   ar
   118   100    99    1
   119    58    55    1
   120    92    89    1
   121    86    84   ar
   122    83    81   ar
   123    55    54    1
   124    55    56    1
   125    65    64    2
   126    63    64    1
   127    63    62    1
   128    89    88    1
   129    89    90    1
   130    99   101    1
   131    99    96    1
   132    88    78   am
   133    91    90    2
   134    57    56    2
   135    84    82   ar
   136    81    82   ar
   137    81    80    1
   138    97    98    2
   139    97    96    1
   140    96    95    1
   141    80    77    1
   142    78    79    2
   143    78    77    1
   144    77    76    1
