@<TRIPOS>MOLECULE
tmp/5mxqA00.pdb
 121 117 0 0 0
SMALL
GASTEIGER

@<TRIPOS>ATOM
      1  N        -36.3140  -16.5230   -6.2980 N.3    31  PHE31      -0.1241
      2  CA       -36.7340  -17.8780   -6.5830 C.3    31  PHE31       0.1605
      3  C        -37.5270  -18.3280   -5.3690 C.2    31  PHE31       0.2264
      4  O        -37.0700  -18.1630   -4.2310 O.2    31  PHE31      -0.2867
      5  CB       -35.5220  -18.7970   -6.8440 C.3    31  PHE31       0.0534
      6  CG       -34.7140  -19.1260   -5.6040 C.ar   31  PHE31      -0.0203
      7  CD1      -35.2480  -19.9310   -4.6110 C.ar   31  PHE31      -0.0042
      8  CD2      -33.4310  -18.6480   -5.4410 C.ar   31  PHE31      -0.0042
      9  CE1      -34.5340  -20.2390   -3.4690 C.ar   31  PHE31      -0.0003
     10  CE2      -32.7100  -18.9610   -4.3060 C.ar   31  PHE31      -0.0003
     11  CZ       -33.2600  -19.7540   -3.3170 C.ar   31  PHE31      -0.0000
     12  N        -38.0290  -16.3260   -2.0900 N.3    34  ALA34      -0.1245
     13  CA       -36.8320  -15.8020   -1.4190 C.3    34  ALA34       0.1562
     14  C        -36.0250  -14.9680   -2.4070 C.2    34  ALA34       0.2260
     15  O        -36.2730  -15.0170   -3.5830 O.2    34  ALA34      -0.2867
     16  CB       -35.9800  -16.9310   -0.8800 C.3    34  ALA34       0.0290
     17  N        -31.9700  -14.1050   -3.3380 N.3    36  TYR36      -0.1241
     18  CA       -30.6660  -14.7330   -3.1450 C.3    36  TYR36       0.1605
     19  C        -29.6380  -13.9320   -3.9890 C.2    36  TYR36       0.2264
     20  O        -29.9730  -13.6220   -5.1450 O.2    36  TYR36      -0.2867
     21  CB       -30.8340  -16.2170   -3.6160 C.3    36  TYR36       0.0534
     22  CG       -29.7360  -17.1160   -3.1470 C.ar   36  TYR36      -0.0201
     23  CD1      -29.2970  -17.0800   -1.7970 C.ar   36  TYR36      -0.0009
     24  CD2      -29.1050  -18.0190   -4.0250 C.ar   36  TYR36      -0.0009
     25  CE1      -28.2400  -17.8880   -1.3440 C.ar   36  TYR36       0.0417
     26  CE2      -28.0650  -18.8480   -3.5710 C.ar   36  TYR36       0.0417
     27  CZ       -27.6420  -18.7630   -2.2220 C.ar   36  TYR36       0.1957
     28  OH       -26.6060  -19.5180   -1.7520 O.3    36  TYR36      -0.2866
     29  N        -26.7720  -13.7540  -13.7960 N.3    56  TRP56      -0.1241
     30  CA       -27.9890  -14.5270  -13.6200 C.3    56  TRP56       0.1605
     31  C        -29.2390  -13.9770  -14.3220 C.2    56  TRP56       0.2264
     32  O        -30.1870  -13.6020  -13.6700 O.2    56  TRP56      -0.2867
     33  CB       -28.2560  -14.7050  -12.1170 C.3    56  TRP56       0.0550
     34  CG       -29.1420  -15.8610  -11.7550 C.ar   56  TRP56       0.0003
     35  CD1      -29.8870  -16.6880  -12.6060 C.ar   56  TRP56       0.0946
     36  CD2      -29.4100  -16.3230  -10.4110 C.ar   56  TRP56       0.0152
     37  NE1      -30.5580  -17.6310  -11.8460 N.ar   56  TRP56      -0.2442
     38  CE2      -30.2970  -17.4270  -10.5130 C.ar   56  TRP56       0.0810
     39  CE3      -28.9740  -15.9100   -9.1370 C.ar   56  TRP56       0.0012
     40  CZ2      -30.7540  -18.1250   -9.3800 C.ar   56  TRP56       0.0191
     41  CZ3      -29.4380  -16.5890   -7.9930 C.ar   56  TRP56       0.0001
     42  CH2      -30.3360  -17.6940   -8.1360 C.ar   56  TRP56       0.0015
     43  N        -25.3910  -23.8010  -15.5290 N.3    85  HIS85      -0.1241
     44  CA       -26.6520  -23.4100  -14.9670 C.3    85  HIS85       0.1621
     45  C        -26.8840  -21.9590  -15.3090 C.2    85  HIS85       0.2264
     46  O        -25.9310  -21.2440  -15.6440 O.2    85  HIS85      -0.2867
     47  CB       -26.6390  -23.5840  -13.4680 C.3    85  HIS85       0.0745
     48  CG       -26.7230  -25.0020  -13.0200 C.ar   85  HIS85       0.0817
     49  ND1      -26.2680  -25.4190  -11.7850 N.ar   85  HIS85      -0.2268
     50  CD2      -27.2300  -26.1020  -13.6160 C.ar   85  HIS85       0.1154
     51  CE1      -26.4850  -26.7090  -11.6450 C.ar   85  HIS85       0.1986
     52  NE2      -27.0630  -27.1480  -12.7370 N.ar   85  HIS85      -0.2212
     53  N        -27.3940  -19.2180  -13.6110 N.3    87  ASP87      -0.1239
     54  CA       -26.7180  -18.1530  -12.9230 C.3    87  ASP87       0.1674
     55  C        -25.2900  -17.9420  -13.4380 C.2    87  ASP87       0.2266
     56  O        -24.5270  -17.0430  -12.9270 O.2    87  ASP87      -0.2867
     57  CB       -26.7950  -18.3340  -11.3810 C.3    87  ASP87       0.1410
     58  CG       -26.2860  -19.6520  -10.8780 C.2    87  ASP87       0.3668
     59  OD1      -26.3830  -20.6750  -11.5720 O.co2  87  ASP87      -0.2456
     60  OD2      -25.8630  -19.6360   -9.7040 O.co2  87  ASP87      -0.2456
     61  N        -20.3160  -29.3130   -7.3150 N.3   148  HIS148     -0.1241
     62  CA       -21.6280  -28.7540   -7.5130 C.3   148  HIS148      0.1621
     63  C        -22.2780  -29.1850   -8.8420 C.2   148  HIS148      0.2264
     64  O        -23.5080  -29.3190   -8.9560 O.2   148  HIS148     -0.2867
     65  CB       -21.4840  -27.1910   -7.4030 C.3   148  HIS148      0.0745
     66  CG       -22.7060  -26.4490   -7.8500 C.ar  148  HIS148      0.0817
     67  ND1      -23.7920  -26.2150   -7.0270 N.ar  148  HIS148     -0.2268
     68  CD2      -23.0500  -25.9920   -9.0690 C.ar  148  HIS148      0.1154
     69  CE1      -24.7470  -25.6110   -7.7160 C.ar  148  HIS148      0.1986
     70  NE2      -24.3050  -25.4500   -8.9540 N.ar  148  HIS148     -0.2212
     71  N        -20.0250  -21.8930   -7.7500 N.3   167  CYS167     -0.1235
     72  CA       -20.9590  -22.6630   -6.9940 C.3   167  CYS167      0.1677
     73  C        -20.4080  -23.9370   -6.3350 C.2   167  CYS167      0.2270
     74  O        -21.0790  -24.4780   -5.4750 O.2   167  CYS167     -0.2867
     75  CB       -22.2250  -22.9200   -7.8210 C.3   167  CYS167      0.0956
     76  SG       -22.9260  -21.3550   -8.4580 S.3   167  CYS167     -0.0801
     77  N        -19.1460  -22.7320   -1.0860 N.3   170  TYR170     -0.1241
     78  CA       -20.1810  -22.1150   -0.2590 C.3   170  TYR170      0.1605
     79  C        -19.5920  -21.0190    0.6770 C.2   170  TYR170      0.2264
     80  O        -18.4440  -21.1750    1.2230 O.2   170  TYR170     -0.2867
     81  CB       -20.8400  -23.1970    0.6000 C.3   170  TYR170      0.0534
     82  CG       -21.7510  -24.1580   -0.0890 C.ar  170  TYR170     -0.0201
     83  CD1      -22.1290  -24.0190   -1.4300 C.ar  170  TYR170     -0.0009
     84  CD2      -22.2720  -25.2320    0.6120 C.ar  170  TYR170     -0.0009
     85  CE1      -23.0200  -24.9130   -2.0390 C.ar  170  TYR170      0.0417
     86  CE2      -23.1350  -26.1710   -0.0090 C.ar  170  TYR170      0.0417
     87  CZ       -23.5100  -25.9940   -1.3330 C.ar  170  TYR170      0.1957
     88  OH       -24.4210  -26.8470   -1.8940 O.3   170  TYR170     -0.2866
     89  N        -23.8680  -20.2250    4.6250 N.3   174  ARG174     -0.1245
     90  CA       -24.6480  -21.3370    4.1050 C.3   174  ARG174      0.1563
     91  C        -24.2860  -22.6090    4.8280 C.2   174  ARG174      0.2260
     92  O        -23.1790  -23.1200    4.7280 O.2   174  ARG174     -0.2867
     93  CB       -24.4810  -21.4850    2.5970 C.3   174  ARG174      0.0307
     94  CG       -25.6110  -22.3070    2.0340 C.3   174  ARG174      0.0489
     95  CD       -25.2800  -23.0400    0.7660 C.3   174  ARG174      0.2205
     96  NE       -25.3190  -22.2040   -0.4230 N.pl3 174  ARG174     -0.0865
     97  CZ       -25.5910  -22.6290   -1.6740 C.cat 174  ARG174      0.5346
     98  NH1      -25.9610  -23.8700   -1.9410 N.pl3 174  ARG174      0.1354
     99  NH2      -25.5310  -21.7740   -2.6830 N.pl3 174  ARG174      0.1354
    100  N        -27.2630  -26.6600   -1.1930 N.3   178  GLY178     -0.1210
    101  CA       -28.2820  -25.9450   -1.9440 C.3   178  GLY178      0.1956
    102  C        -28.8900  -26.7780   -3.0480 C.2   178  GLY178      0.2611
    103  O        -29.6960  -27.7000   -2.7930 O.2   178  GLY178     -0.2717
    104  N        -28.5460  -26.3830   -4.2830 N.am  179  ASN179     -0.1974
    105  CA       -29.0580  -27.0120   -5.4600 C.3   179  ASN179      0.1688
    106  C        -28.0610  -28.1000   -5.7180 C.2   179  ASN179      0.2292
    107  O        -26.9340  -27.8260   -6.1590 O.2   179  ASN179     -0.2864
    108  CB       -29.1240  -26.0460   -6.6490 C.3   179  ASN179      0.1181
    109  CG       -29.4110  -26.7660   -7.9770 C.2   179  ASN179      0.2629
    110  OD1      -30.1350  -27.7920   -8.0270 O.2   179  ASN179     -0.2716
    111  ND2      -28.8260  -26.2390   -9.0630 N.am  179  ASN179     -0.0877
    112  N        -22.0630  -17.5960   -4.2580 N.3   209  HIS209     -0.1241
    113  CA       -23.1300  -16.8130   -3.6250 C.3   209  HIS209      0.1621
    114  C        -22.7040  -16.3550   -2.2770 C.2   209  HIS209      0.2264
    115  O        -22.2340  -17.1720   -1.4610 O.2   209  HIS209     -0.2867
    116  CB       -24.4240  -17.6240   -3.5280 C.3   209  HIS209      0.0745
    117  CG       -24.8450  -18.2150   -4.8160 C.ar  209  HIS209      0.0817
    118  ND1      -25.7230  -17.5930   -5.6670 N.ar  209  HIS209     -0.2268
    119  CD2      -24.4630  -19.3560   -5.4400 C.ar  209  HIS209      0.1154
    120  CE1      -25.8860  -18.3300   -6.7530 C.ar  209  HIS209      0.1986
    121  NE2      -25.1310  -19.3980   -6.6350 N.ar  209  HIS209     -0.2212
@<TRIPOS>BOND
     1    46    45    2
     2    43    44    1
     3    45    44    1
     4    44    47    1
     5    31    32    2
     6    31    30    1
     7    29    30    1
     8    30    33    1
     9    50    48   ar
    10    50    52   ar
    11    53    54    1
    12    47    48    1
    13    55    56    2
    14    55    54    1
    15    48    49   ar
    16    54    57    1
    17    52    51   ar
    18    35    37   ar
    19    35    34   ar
    20    33    34    1
    21    37    38   ar
    22    49    51   ar
    23    34    36   ar
    24    59    58   ar
    25    57    58    1
    26    58    60   ar
    27    38    36   ar
    28    38    40   ar
    29    36    39   ar
    30    40    42   ar
    31    39    41   ar
    32    68    70   ar
    33    68    66   ar
    34   111   109   am
    35    64    63    2
    36    70    69   ar
    37    63    62    1
    38    76    75    1
    39    42    41   ar
    40   110   109    2
    41   109   108    1
    42    66    65    1
    43    66    67   ar
    44    75    72    1
    45    71    72    1
    46    69    67   ar
    47    62    65    1
    48    62    61    1
    49    72    73    1
    50     5     2    1
    51     5     6    1
    52   120   121   ar
    53   120   118   ar
    54   108   105    1
    55   121   119   ar
    56     2     1    1
    57     2     3    1
    58    73    74    2
    59   107   106    2
    60   106   105    1
    61   118   117   ar
    62     6     8   ar
    63     6     7   ar
    64   105   104    1
    65     8    10   ar
    66   119   117   ar
    67     3     4    2
    68    20    19    2
    69   117   116    1
    70     7     9   ar
    71    10    11   ar
    72   104   102   am
    73   112   113    1
    74    24    26   ar
    75    24    22   ar
    76    19    18    1
    77   113   116    1
    78   113   114    1
    79    21    22    1
    80    21    18    1
    81    15    14    2
    82    26    27   ar
    83     9    11   ar
    84    17    18    1
    85    22    23   ar
    86   102   103    2
    87   102   101    1
    88    99    97    1
    89    14    13    1
    90   114   115    2
    91    27    28    1
    92    27    25   ar
    93    12    13    1
    94    85    83   ar
    95    85    87   ar
    96   101   100    1
    97    98    97    1
    98    88    87    1
    99    23    25   ar
   100    97    96    2
   101    83    82   ar
   102    13    16    1
   103    87    86   ar
   104    77    78    1
   105    96    95    1
   106    78    81    1
   107    78    79    1
   108    82    81    1
   109    82    84   ar
   110    86    84   ar
   111    79    80    2
   112    95    94    1
   113    94    93    1
   114    93    90    1
   115    90    89    1
   116    90    91    1
   117    92    91    2
