@<TRIPOS>MOLECULE
tmp/5mxrA00.pdb
 124 121 0 0 0
SMALL
GASTEIGER

@<TRIPOS>ATOM
      1  N          2.4000  -22.5060   -6.1880 N.3    31  PHE31      -0.1227
      2  CA         2.5320  -21.0870   -6.4690 C.3    31  PHE31       0.1736
      3  C          3.3990  -20.4870   -5.3770 C.2    31  PHE31       0.2595
      4  O          3.0070  -20.5150   -4.2070 O.2    31  PHE31      -0.2718
      5  CB         1.1340  -20.4320   -6.4770 C.3    31  PHE31       0.0547
      6  CG         0.9120  -19.4840   -7.6210 C.ar   31  PHE31      -0.0202
      7  CD1        0.7270  -19.9820   -8.9190 C.ar   31  PHE31      -0.0042
      8  CD2        0.8680  -18.1000   -7.4180 C.ar   31  PHE31      -0.0042
      9  CE1        0.5220  -19.1190   -9.9950 C.ar   31  PHE31      -0.0003
     10  CE2        0.6580  -17.2410   -8.4970 C.ar   31  PHE31      -0.0003
     11  CZ         0.4880  -17.7500   -9.7830 C.ar   31  PHE31      -0.0000
     12  N          4.5680  -19.9540   -5.7380 N.am   32  ASP32      -0.1974
     13  CA         5.4110  -19.2440   -4.7680 C.3    32  ASP32       0.1709
     14  C          5.7660  -20.0930   -3.5360 C.2    32  ASP32       0.2293
     15  O          5.7540  -19.6360   -2.3900 O.2    32  ASP32      -0.2864
     16  CB         4.7240  -17.9300   -4.3750 C.3    32  ASP32       0.1436
     17  CG         5.3290  -16.7560   -5.0500 C.2    32  ASP32       0.3671
     18  OD1        5.7800  -16.8610   -6.2170 O.co2  32  ASP32      -0.2456
     19  OD2        5.3890  -15.7190   -4.3980 O.co2  32  ASP32      -0.2456
     20  N         -1.8960  -24.7120   -3.3590 N.3    36  TYR36      -0.1241
     21  CA        -3.2300  -24.1430   -3.1300 C.3    36  TYR36       0.1605
     22  C         -4.2090  -24.9160   -4.0370 C.2    36  TYR36       0.2264
     23  O         -3.9080  -25.0590   -5.2250 O.2    36  TYR36      -0.2867
     24  CB        -3.1500  -22.6560   -3.5290 C.3    36  TYR36       0.0534
     25  CG        -4.3010  -21.7750   -3.1220 C.ar   36  TYR36      -0.0201
     26  CD1       -4.8400  -21.8310   -1.8270 C.ar   36  TYR36      -0.0009
     27  CD2       -4.8330  -20.8220   -4.0250 C.ar   36  TYR36      -0.0009
     28  CE1       -5.8810  -20.9940   -1.4490 C.ar   36  TYR36       0.0417
     29  CE2       -5.8720  -19.9920   -3.6370 C.ar   36  TYR36       0.0417
     30  CZ        -6.3850  -20.1030   -2.3520 C.ar   36  TYR36       0.1957
     31  OH        -7.4090  -19.3120   -1.9520 O.3    36  TYR36      -0.2866
     32  N         -7.0930  -25.3500  -13.6870 N.3    56  TRP56      -0.1241
     33  CA        -5.9230  -24.5390  -13.4960 C.3    56  TRP56       0.1605
     34  C         -4.7300  -25.1180  -14.2580 C.2    56  TRP56       0.2264
     35  O         -3.7770  -25.5850  -13.6510 O.2    56  TRP56      -0.2867
     36  CB        -5.6370  -24.3940  -12.0090 C.3    56  TRP56       0.0550
     37  CG        -4.7900  -23.2720  -11.6350 C.ar   56  TRP56       0.0003
     38  CD1       -4.0260  -22.4600  -12.4590 C.ar   56  TRP56       0.0946
     39  CD2       -4.5150  -22.8470  -10.2840 C.ar   56  TRP56       0.0152
     40  NE1       -3.3650  -21.5100  -11.6800 N.ar   56  TRP56      -0.2442
     41  CE2       -3.6540  -21.7350  -10.3580 C.ar   56  TRP56       0.0810
     42  CE3       -4.9520  -23.2880   -9.0120 C.ar   56  TRP56       0.0012
     43  CZ2       -3.1910  -21.0800   -9.2060 C.ar   56  TRP56       0.0191
     44  CZ3       -4.4950  -22.6190   -7.8480 C.ar   56  TRP56       0.0001
     45  CH2       -3.6440  -21.5280   -7.9620 C.ar   56  TRP56       0.0015
     46  N         -8.5840  -15.1760  -15.3700 N.3    85  HIS85      -0.1241
     47  CA        -7.3450  -15.5960  -14.8200 C.3    85  HIS85       0.1621
     48  C         -7.0850  -17.0450  -15.1910 C.2    85  HIS85       0.2264
     49  O         -7.9580  -17.7870  -15.6350 O.2    85  HIS85      -0.2867
     50  CB        -7.3250  -15.4560  -13.3180 C.3    85  HIS85       0.0745
     51  CG        -7.2600  -14.0430  -12.8560 C.ar   85  HIS85       0.0817
     52  ND1       -7.7480  -13.6440  -11.6400 N.ar   85  HIS85      -0.2268
     53  CD2       -6.7740  -12.9400  -13.4440 C.ar   85  HIS85       0.1154
     54  CE1       -7.5690  -12.3410  -11.5000 C.ar   85  HIS85       0.1986
     55  NE2       -6.9720  -11.8950  -12.5810 N.ar   85  HIS85      -0.2212
     56  N         -6.4570  -19.8130  -13.4710 N.3    87  ASP87      -0.1295
     57  CA        -7.1660  -20.9070  -12.8320 C.3    87  ASP87       0.1359
     58  C         -8.5760  -21.1540  -13.3500 C.3    87  ASP87       0.2015
     59  O         -9.3790  -22.0190  -12.7850 O.3    87  ASP87      -0.2188
     60  CB        -7.2040  -20.7640  -11.3020 C.3    87  ASP87       0.1357
     61  CG        -7.6530  -19.4050  -10.7830 C.2    87  ASP87       0.3664
     62  OD1       -7.5920  -18.4020  -11.4780 O.co2  87  ASP87      -0.2456
     63  OD2       -8.0510  -19.4140   -9.5970 O.co2  87  ASP87      -0.2456
     64  N        -13.5780   -9.7590   -7.3000 N.3   148  HIS148     -0.1241
     65  CA       -12.2750  -10.3070   -7.5010 C.3   148  HIS148      0.1621
     66  C        -11.6760   -9.8490   -8.8170 C.2   148  HIS148      0.2264
     67  O        -10.4880   -9.6430   -8.9190 O.2   148  HIS148     -0.2867
     68  CB       -12.4100  -11.8480   -7.4600 C.3   148  HIS148      0.0745
     69  CG       -11.1780  -12.5740   -7.8360 C.ar  148  HIS148      0.0817
     70  ND1      -10.1210  -12.8000   -6.9610 N.ar  148  HIS148     -0.2268
     71  CD2      -10.8130  -13.0800   -9.0150 C.ar  148  HIS148      0.1154
     72  CE1       -9.1730  -13.4360   -7.6130 C.ar  148  HIS148      0.1986
     73  NE2       -9.5830  -13.6150   -8.8480 N.ar  148  HIS148     -0.2212
     74  N        -14.0420  -17.0350   -7.7150 N.3   167  CYS167     -0.1235
     75  CA       -13.0500  -16.3490   -6.9240 C.3   167  CYS167      0.1677
     76  C        -13.5980  -15.1160   -6.2340 C.2   167  CYS167      0.2270
     77  O        -12.9050  -14.5870   -5.4120 O.2   167  CYS167     -0.2867
     78  CB       -11.7730  -16.0790   -7.7250 C.3   167  CYS167      0.0956
     79  SG       -11.0340  -17.6970   -8.3210 S.3   167  CYS167     -0.0801
     80  N        -14.7920  -16.1970   -0.9490 N.3   170  TYR170     -0.1241
     81  CA       -13.7600  -16.8550   -0.2070 C.3   170  TYR170      0.1605
     82  C        -14.3100  -17.9570    0.6990 C.2   170  TYR170      0.2264
     83  O        -15.4220  -17.8150    1.2730 O.2   170  TYR170     -0.2867
     84  CB       -13.0550  -15.8340    0.6590 C.3   170  TYR170      0.0534
     85  CG       -12.1310  -14.8990   -0.0740 C.ar  170  TYR170     -0.0201
     86  CD1      -11.8730  -14.9940   -1.4410 C.ar  170  TYR170     -0.0009
     87  CD2      -11.4730  -13.9070    0.6420 C.ar  170  TYR170     -0.0009
     88  CE1      -10.9770  -14.1320   -2.0680 C.ar  170  TYR170      0.0417
     89  CE2      -10.6060  -13.0250    0.0200 C.ar  170  TYR170      0.0417
     90  CZ       -10.3430  -13.1530   -1.3310 C.ar  170  TYR170      0.1957
     91  OH        -9.4450  -12.2910   -1.9150 O.3   170  TYR170     -0.2866
     92  N        -10.0650  -18.7140    4.6580 N.3   174  ARG174     -0.1245
     93  CA        -9.2810  -17.6030    4.1270 C.3   174  ARG174      0.1563
     94  C         -9.6590  -16.3640    4.8740 C.2   174  ARG174      0.2260
     95  O        -10.7180  -15.8240    4.7430 O.2   174  ARG174     -0.2867
     96  CB        -9.5190  -17.4600    2.6530 C.3   174  ARG174      0.0307
     97  CG        -8.6410  -16.4560    1.8980 C.3   174  ARG174      0.0489
     98  CD        -8.2030  -17.1840    0.6220 C.3   174  ARG174      0.2205
     99  NE        -7.8340  -16.3740   -0.5340 N.pl3 174  ARG174     -0.0865
    100  CZ        -8.3720  -16.4810   -1.7630 C.cat 174  ARG174      0.5346
    101  NH1       -7.9320  -15.6960   -2.7300 N.pl3 174  ARG174      0.1354
    102  NH2       -9.3500  -17.3650   -2.0660 N.pl3 174  ARG174      0.1354
    103  N         -6.7090  -12.6480   -0.8930 N.3   178  GLY178     -0.1210
    104  CA        -5.7230  -13.3000   -1.7560 C.3   178  GLY178      0.1956
    105  C         -5.2640  -12.3820   -2.8660 C.2   178  GLY178      0.2611
    106  O         -4.8190  -11.2800   -2.5990 O.2   178  GLY178     -0.2717
    107  N         -5.3490  -12.8430   -4.1150 N.am  179  ASN179     -0.1974
    108  CA        -4.8030  -12.0680   -5.2060 C.3   179  ASN179      0.1688
    109  C         -5.8370  -11.0160   -5.4680 C.2   179  ASN179      0.2292
    110  O         -6.9510  -11.3530   -5.8700 O.2   179  ASN179     -0.2864
    111  CB        -4.5730  -12.8830   -6.4800 C.3   179  ASN179      0.1181
    112  CG        -4.2940  -11.9840   -7.7050 C.2   179  ASN179      0.2629
    113  OD1       -3.5950  -10.9390   -7.6120 O.2   179  ASN179     -0.2716
    114  ND2       -4.8750  -12.3580   -8.8470 N.am  179  ASN179     -0.0877
    115  N        -11.7960  -21.4440   -4.2570 N.3   209  HIS209     -0.1241
    116  CA       -10.7480  -22.2040   -3.5800 C.3   209  HIS209      0.1621
    117  C        -11.2520  -22.6210   -2.2540 C.2   209  HIS209      0.2264
    118  O        -11.6990  -21.7980   -1.4220 O.2   209  HIS209     -0.2867
    119  CB        -9.4720  -21.3770   -3.4630 C.3   209  HIS209      0.0745
    120  CG        -9.0260  -20.7820   -4.7710 C.ar  209  HIS209      0.0817
    121  ND1       -8.1980  -21.4350   -5.6480 N.ar  209  HIS209     -0.2268
    122  CD2       -9.3040  -19.5890   -5.3540 C.ar  209  HIS209      0.1154
    123  CE1       -8.0050  -20.6900   -6.7230 C.ar  209  HIS209      0.1986
    124  NE2       -8.6200  -19.5510   -6.5460 N.ar  209  HIS209     -0.2212
@<TRIPOS>BOND
     1    49    48    2
     2    46    47    1
     3    48    47    1
     4    47    50    1
     5    34    35    2
     6    34    33    1
     7    32    33    1
     8    33    36    1
     9    56    57    1
    10    53    51   ar
    11    53    55   ar
    12    58    57    1
    13    58    59    1
    14    50    51    1
    15    51    52   ar
    16    57    60    1
    17    55    54   ar
    18    38    40   ar
    19    38    37   ar
    20    36    37    1
    21    40    41   ar
    22    52    54   ar
    23    37    39   ar
    24    62    61   ar
    25    60    61    1
    26    61    63   ar
    27    41    39   ar
    28    41    43   ar
    29    39    42   ar
    30     9    11   ar
    31     9     7   ar
    32    11    10   ar
    33    43    45   ar
    34    71    73   ar
    35    71    69   ar
    36    42    44   ar
    37     7     6   ar
    38    67    66    2
    39    73    72   ar
    40   114   112   am
    41    66    65    1
    42    10     8   ar
    43    79    78    1
    44    45    44   ar
    45    69    68    1
    46    69    70   ar
    47    78    75    1
    48    74    75    1
    49   112   113    2
    50   112   111    1
    51     6     8   ar
    52     6     5    1
    53    72    70   ar
    54    65    68    1
    55    65    64    1
    56    75    76    1
    57   123   124   ar
    58   123   121   ar
    59   124   122   ar
    60   111   108    1
    61     5     2    1
    62     2     1    1
    63     2     3    1
    64    76    77    2
    65    18    17   ar
    66   110   109    2
    67    12     3   am
    68    12    13    1
    69   121   120   ar
    70   109   108    1
    71     3     4    2
    72   122   120   ar
    73    23    22    2
    74   108   107    1
    75    17    19   ar
    76    17    16    1
    77   120   119    1
    78    13    16    1
    79    13    14    1
    80   115   116    1
    81   107   105   am
    82    22    21    1
    83    27    29   ar
    84    27    25   ar
    85    29    30   ar
    86   116   119    1
    87   116   117    1
    88    14    15    2
    89    24    21    1
    90    24    25    1
    91    20    21    1
    92    25    26   ar
    93   105   106    2
    94   105   104    1
    95   101   100    1
    96    30    31    1
    97    30    28   ar
    98   117   118    2
    99    88    86   ar
   100    88    90   ar
   101   102   100    1
   102    91    90    1
   103    26    28   ar
   104   100    99    2
   105   104   103    1
   106    86    85   ar
   107    90    89   ar
   108    80    81    1
   109    99    98    1
   110    81    84    1
   111    81    82    1
   112    85    87   ar
   113    85    84    1
   114    89    87   ar
   115    98    97    1
   116    82    83    2
   117    97    96    1
   118    96    93    1
   119    93    92    1
   120    93    94    1
   121    95    94    2
