@<TRIPOS>MOLECULE
tmp/5mxvA00.pdb
 184 182 0 0 0
SMALL
GASTEIGER

@<TRIPOS>ATOM
      1  N         -6.5100  -35.1940    3.2580 N.3    66  LEU66      -0.1245
      2  CA        -6.2250  -33.9470    3.9550 C.3    66  LEU66       0.1561
      3  C         -5.2250  -34.1700    5.0850 C.2    66  LEU66       0.2260
      4  O         -4.3320  -33.3430    5.3070 O.2    66  LEU66      -0.2867
      5  CB        -7.5270  -33.3560    4.4970 C.3    66  LEU66       0.0270
      6  CG        -7.5210  -31.8830    4.8970 C.3    66  LEU66       0.0019
      7  CD1       -7.2050  -31.0020    3.7010 C.3    66  LEU66       0.0001
      8  CD2       -8.8760  -31.5090    5.4820 C.3    66  LEU66       0.0001
      9  N         -1.0070  -23.3850   -0.9860 N.3    81  MET81      -0.1230
     10  CA        -1.3820  -24.2060    0.1630 C.3    81  MET81       0.1702
     11  C         -2.8950  -24.3880    0.2310 C.2    81  MET81       0.2592
     12  O         -3.3910  -25.5110    0.3690 O.2    81  MET81      -0.2718
     13  CB        -0.8510  -23.5880    1.4670 C.3    81  MET81       0.0401
     14  CG        -1.4840  -24.1670    2.7480 C.3    81  MET81       0.0596
     15  SD        -0.8770  -23.4540    4.3180 S.3    81  MET81      -0.1393
     16  CE        -1.8910  -21.9760    4.4370 C.3    81  MET81       0.0692
     17  N         -3.6500  -23.2910    0.1100 N.am   82  TRP82      -0.1976
     18  CA        -5.1020  -23.4060    0.1560 C.3    82  TRP82       0.1640
     19  C         -5.6260  -24.1660   -1.0540 C.2    82  TRP82       0.2290
     20  O         -6.5340  -24.9930   -0.9270 O.2    82  TRP82      -0.2864
     21  CB        -5.7390  -22.0130    0.2510 C.3    82  TRP82       0.0576
     22  CG        -5.3710  -21.3310    1.5450 C.ar   82  TRP82       0.0006
     23  CD1       -4.4570  -20.3320    1.7130 C.ar   82  TRP82       0.0946
     24  CD2       -5.8710  -21.6460    2.8560 C.ar   82  TRP82       0.0152
     25  NE1       -4.3700  -19.9880    3.0500 N.ar   82  TRP82      -0.2442
     26  CE2       -5.2260  -20.7840    3.7670 C.ar   82  TRP82       0.0810
     27  CE3       -6.7940  -22.5810    3.3450 C.ar   82  TRP82       0.0012
     28  CZ2       -5.4850  -20.8120    5.1410 C.ar   82  TRP82       0.0191
     29  CZ3       -7.0520  -22.6020    4.7230 C.ar   82  TRP82       0.0001
     30  CH2       -6.3920  -21.7310    5.5930 C.ar   82  TRP82       0.0015
     31  N         -5.3340  -27.9050   -0.7030 N.3    85  GLY85      -0.1210
     32  CA        -6.3310  -28.4340    0.2130 C.3    85  GLY85       0.1956
     33  C         -7.7150  -28.5050   -0.4020 C.2    85  GLY85       0.2611
     34  O         -8.4110  -29.5140   -0.2600 O.2    85  GLY85      -0.2717
     35  N         -8.1400  -27.4320   -1.0850 N.am   86  ILE86      -0.1979
     36  CA        -9.4490  -27.4570   -1.7340 C.3    86  ILE86       0.1595
     37  C         -9.4820  -28.5620   -2.7710 C.2    86  ILE86       0.2287
     38  O        -10.5020  -29.2360   -2.9450 O.2    86  ILE86      -0.2864
     39  CB        -9.7880  -26.0860   -2.3600 C.3    86  ILE86       0.0276
     40  CG1       -9.9440  -24.9990   -1.2920 C.3    86  ILE86       0.0022
     41  CG2      -11.0730  -26.1740   -3.2020 C.3    86  ILE86       0.0022
     42  CD1      -10.0500  -23.5760   -1.8490 C.3    86  ILE86       0.0001
     43  N        -10.8550  -32.0660   -1.9440 N.3    89  PHE89      -0.1241
     44  CA       -12.2960  -32.2690   -2.0190 C.3    89  PHE89       0.1605
     45  C        -12.7850  -32.2650   -3.4550 C.2    89  PHE89       0.2264
     46  O        -13.6120  -33.1020   -3.8300 O.2    89  PHE89      -0.2867
     47  CB       -12.9880  -31.2120   -1.1620 C.3    89  PHE89       0.0534
     48  CG       -12.6740  -31.3810    0.2850 C.ar   89  PHE89      -0.0203
     49  CD1      -13.3840  -32.2850    1.0630 C.ar   89  PHE89      -0.0042
     50  CD2      -11.5980  -30.7210    0.8590 C.ar   89  PHE89      -0.0042
     51  CE1      -13.0730  -32.4830    2.4010 C.ar   89  PHE89      -0.0003
     52  CE2      -11.2700  -30.9220    2.1800 C.ar   89  PHE89      -0.0003
     53  CZ       -12.0050  -31.8130    2.9730 C.ar   89  PHE89      -0.0000
     54  N        -14.3410  -35.9590   -4.1730 N.3    93  PHE93      -0.1241
     55  CA       -15.7770  -36.0050   -4.4270 C.3    93  PHE93       0.1605
     56  C        -16.0800  -35.9790   -5.9180 C.2    93  PHE93       0.2264
     57  O        -17.0490  -36.6060   -6.3610 O.2    93  PHE93      -0.2867
     58  CB       -16.4790  -34.8480   -3.7060 C.3    93  PHE93       0.0534
     59  CG       -16.3670  -34.9040   -2.2070 C.ar   93  PHE93      -0.0203
     60  CD1      -16.2170  -33.7420   -1.4810 C.ar   93  PHE93      -0.0042
     61  CD2      -16.4160  -36.1070   -1.5290 C.ar   93  PHE93      -0.0042
     62  CE1      -16.1200  -33.7680   -0.1100 C.ar   93  PHE93      -0.0003
     63  CE2      -16.3120  -36.1370   -0.1200 C.ar   93  PHE93      -0.0003
     64  CZ       -16.1570  -34.9670    0.5670 C.ar   93  PHE93      -0.0000
     65  N        -22.1930  -36.7260    7.7580 N.3   117  TRP117     -0.1241
     66  CA       -21.7590  -35.4940    7.1150 C.3   117  TRP117      0.1605
     67  C        -21.4490  -34.4150    8.1500 C.2   117  TRP117      0.2264
     68  O        -20.4200  -33.7300    8.0570 O.2   117  TRP117     -0.2867
     69  CB       -22.8220  -35.0180    6.1210 C.3   117  TRP117      0.0550
     70  CG       -22.2750  -33.9480    5.2620 C.ar  117  TRP117      0.0003
     71  CD1      -22.5670  -32.6190    5.3210 C.ar  117  TRP117      0.0946
     72  CD2      -21.2670  -34.0970    4.2570 C.ar  117  TRP117      0.0152
     73  NE1      -21.8240  -31.9340    4.3860 N.ar  117  TRP117     -0.2442
     74  CE2      -21.0120  -32.8170    3.7300 C.ar  117  TRP117      0.0810
     75  CE3      -20.5690  -35.1890    3.7420 C.ar  117  TRP117      0.0012
     76  CZ2      -20.0880  -32.5990    2.7000 C.ar  117  TRP117      0.0191
     77  CZ3      -19.6500  -34.9710    2.7210 C.ar  117  TRP117      0.0001
     78  CH2      -19.4180  -33.6840    2.2200 C.ar  117  TRP117      0.0015
     79  N        -17.8540  -32.4730    8.5810 N.3   121  MET121     -0.1245
     80  CA       -17.8160  -31.0230    8.3710 C.3   121  MET121      0.1570
     81  C        -17.2840  -30.3050    9.6130 C.2   121  MET121      0.2261
     82  O        -16.5140  -29.3430    9.5050 O.2   121  MET121     -0.2867
     83  CB       -19.2070  -30.4950    8.0150 C.3   121  MET121      0.0387
     84  CG       -19.6720  -30.8580    6.6020 C.3   121  MET121      0.0595
     85  SD       -18.6810  -30.0480    5.3080 S.3   121  MET121     -0.1393
     86  CE       -19.3420  -28.3690    5.2820 C.3   121  MET121      0.0692
     87  N        -13.5400  -30.7600    9.4980 N.3   124  TRP124     -0.1241
     88  CA       -12.9030  -29.9790    8.4520 C.3   124  TRP124      0.1605
     89  C        -12.9280  -28.4900    8.7790 C.2   124  TRP124      0.2264
     90  O        -11.9380  -27.7850    8.5350 O.2   124  TRP124     -0.2867
     91  CB       -13.5910  -30.2830    7.1220 C.3   124  TRP124      0.0550
     92  CG       -13.3730  -31.7260    6.7240 C.ar  124  TRP124      0.0003
     93  CD1      -12.3190  -32.5180    7.0780 C.ar  124  TRP124      0.0946
     94  CD2      -14.2210  -32.5420    5.8930 C.ar  124  TRP124      0.0152
     95  NE1      -12.4540  -33.7670    6.5230 N.ar  124  TRP124     -0.2442
     96  CE2      -13.6190  -33.8070    5.8020 C.ar  124  TRP124      0.0810
     97  CE3      -15.4480  -32.3270    5.2500 C.ar  124  TRP124      0.0012
     98  CZ2      -14.1820  -34.8650    5.0610 C.ar  124  TRP124      0.0191
     99  CZ3      -16.0120  -33.3850    4.5110 C.ar  124  TRP124      0.0001
    100  CH2      -15.3770  -34.6250    4.4240 C.ar  124  TRP124      0.0015
    101  N        -10.2720  -27.8280   11.4230 N.3   127  TYR127     -0.1227
    102  CA        -8.9250  -27.7970   10.8640 C.3   127  TYR127      0.1736
    103  C         -8.6980  -26.5150   10.0620 C.2   127  TYR127      0.2596
    104  O         -7.6450  -25.8770   10.1880 O.2   127  TYR127     -0.2718
    105  CB        -8.6830  -29.0350    9.9980 C.3   127  TYR127      0.0548
    106  CG        -7.3280  -29.0450    9.3260 C.ar  127  TYR127     -0.0200
    107  CD1       -6.1590  -29.0110   10.0690 C.ar  127  TYR127     -0.0009
    108  CD2       -7.2310  -29.0670    7.9370 C.ar  127  TYR127     -0.0009
    109  CE1       -4.9260  -29.0000    9.4570 C.ar  127  TYR127      0.0417
    110  CE2       -6.0000  -29.0710    7.3150 C.ar  127  TYR127      0.0417
    111  CZ        -4.8560  -29.0320    8.0760 C.ar  127  TYR127      0.1957
    112  OH        -3.6270  -29.0270    7.4590 O.3   127  TYR127     -0.2866
    113  N         -9.6770  -26.1160    9.2480 N.am  128  THR128     -0.1953
    114  CA        -9.5790  -24.8460    8.5340 C.3   128  THR128      0.1897
    115  C         -9.3240  -23.7000    9.5030 C.2   128  THR128      0.2313
    116  O         -8.4440  -22.8590    9.2800 O.2   128  THR128     -0.2863
    117  CB       -10.8650  -24.5840    7.7600 C.3   128  THR128      0.1794
    118  OG1      -11.0490  -25.6240    6.7920 O.3   128  THR128     -0.2208
    119  CG2      -10.7800  -23.2340    7.0370 C.3   128  THR128      0.0378
    120  N         -5.7770  -23.6490   10.7720 N.3   131  VAL131     -0.1245
    121  CA        -4.7950  -23.1500    9.8160 C.3   131  VAL131      0.1561
    122  C         -4.8910  -21.6310    9.6950 C.2   131  VAL131      0.2260
    123  O         -3.8670  -20.9370    9.6520 O.2   131  VAL131     -0.2867
    124  CB        -4.9680  -23.8450    8.4530 C.3   131  VAL131      0.0252
    125  CG1       -3.9470  -23.3030    7.4600 C.3   131  VAL131      0.0019
    126  CG2       -4.7940  -25.3610    8.6050 C.3   131  VAL131      0.0019
    127  N        -16.2670  -23.3470    4.2910 N.3   155  ASN155     -0.1240
    128  CA       -16.5050  -24.7740    4.0890 C.3   155  ASN155      0.1653
    129  C        -17.8960  -25.0350    3.5200 C.2   155  ASN155      0.2266
    130  O        -18.0580  -25.8940    2.6450 O.2   155  ASN155     -0.2867
    131  CB       -16.3130  -25.5360    5.4070 C.3   155  ASN155      0.1155
    132  CG       -14.8670  -25.9730    5.6180 C.2   155  ASN155      0.2627
    133  OD1      -14.5260  -27.1370    5.4160 O.2   155  ASN155     -0.2716
    134  ND2      -14.0090  -25.0300    6.0020 N.am  155  ASN155     -0.0877
    135  N        -17.9030  -24.2320   -0.1120 N.3   158  ASN158     -0.1225
    136  CA       -17.2810  -25.2550   -0.9500 C.3   158  ASN158      0.1785
    137  C        -18.2040  -26.4460   -1.1270 C.2   158  ASN158      0.2597
    138  O        -18.3080  -26.9960   -2.2370 O.2   158  ASN158     -0.2718
    139  CB       -15.9520  -25.7190   -0.3720 C.3   158  ASN158      0.1169
    140  CG       -14.8300  -24.7240   -0.5950 C.2   158  ASN158      0.2627
    141  OD1      -15.0560  -23.5550   -0.9410 O.2   158  ASN158     -0.2716
    142  ND2      -13.6010  -25.1920   -0.4020 N.am  158  ASN158     -0.0877
    143  N        -18.8720  -26.8630   -0.0530 N.am  159  GLU159     -0.1979
    144  CA       -19.8450  -27.9460   -0.1430 C.3   159  GLU159      0.1602
    145  C        -20.8790  -27.6510   -1.2230 C.2   159  GLU159      0.2287
    146  O        -21.0710  -28.4410   -2.1540 O.2   159  GLU159     -0.2864
    147  CB       -20.5300  -28.1570    1.2060 C.3   159  GLU159      0.0415
    148  CG       -21.7140  -29.1540    1.1220 C.3   159  GLU159      0.1163
    149  CD       -22.6010  -29.1140    2.3560 C.2   159  GLU159      0.3649
    150  OE1      -22.0560  -29.1180    3.4710 O.co2 159  GLU159     -0.2457
    151  OE2      -23.8360  -29.0580    2.2060 O.co2 159  GLU159     -0.2457
    152  N        -19.1330  -26.9430   -4.9430 N.3   162  LEU162     -0.1231
    153  CA       -18.5860  -28.1280   -5.5970 C.3   162  LEU162      0.1693
    154  C        -19.7020  -29.0700   -6.0130 C.2   162  LEU162      0.2592
    155  O        -19.7160  -29.5720   -7.1430 O.2   162  LEU162     -0.2718
    156  CB       -17.5900  -28.8470   -4.6860 C.3   162  LEU162      0.0284
    157  CG       -16.2480  -28.1520   -4.4520 C.3   162  LEU162      0.0019
    158  CD1      -15.4480  -29.0000   -3.4580 C.3   162  LEU162      0.0001
    159  CD2      -15.4870  -27.9750   -5.7470 C.3   162  LEU162      0.0001
    160  N        -20.6750  -29.2900   -5.1250 N.am  163  PHE163     -0.1976
    161  CA       -21.7030  -30.2720   -5.4460 C.3   163  PHE163      0.1639
    162  C        -22.6420  -29.7590   -6.5430 C.2   163  PHE163      0.2290
    163  O        -23.1020  -30.5540   -7.3740 O.2   163  PHE163     -0.2864
    164  CB       -22.4590  -30.6670   -4.1770 C.3   163  PHE163      0.0560
    165  CG       -21.5890  -31.3440   -3.1500 C.ar  163  PHE163     -0.0200
    166  CD1      -20.2980  -31.7500   -3.4680 C.ar  163  PHE163     -0.0042
    167  CD2      -22.0530  -31.5660   -1.8730 C.ar  163  PHE163     -0.0042
    168  CE1      -19.4900  -32.3640   -2.5300 C.ar  163  PHE163     -0.0003
    169  CE2      -21.2540  -32.1890   -0.9330 C.ar  163  PHE163     -0.0003
    170  CZ       -19.9740  -32.5840   -1.2620 C.ar  163  PHE163     -0.0000
    171  N        -11.3580  -17.9260   -0.9660 N.3   186  TRP186     -0.1241
    172  CA       -10.6700  -18.3000    0.2760 C.3   186  TRP186      0.1605
    173  C         -9.4990  -17.3600    0.5520 C.2   186  TRP186      0.2264
    174  O         -9.3710  -16.8140    1.6550 O.2   186  TRP186     -0.2867
    175  CB       -10.1740  -19.7570    0.1980 C.3   186  TRP186      0.0550
    176  CG       -11.2190  -20.8010    0.5200 C.ar  186  TRP186      0.0003
    177  CD1      -12.4150  -21.0150   -0.1330 C.ar  186  TRP186      0.0946
    178  CD2      -11.1510  -21.7870    1.5590 C.ar  186  TRP186      0.0152
    179  NE1      -13.0900  -22.0620    0.4590 N.ar  186  TRP186     -0.2442
    180  CE2      -12.3320  -22.5600    1.4880 C.ar  186  TRP186      0.0810
    181  CE3      -10.1950  -22.1020    2.5360 C.ar  186  TRP186      0.0012
    182  CZ2      -12.6030  -23.6030    2.3880 C.ar  186  TRP186      0.0191
    183  CZ3      -10.4580  -23.1450    3.4270 C.ar  186  TRP186      0.0001
    184  CH2      -11.6540  -23.8890    3.3410 C.ar  186  TRP186      0.0015
@<TRIPOS>BOND
     1   163   162    2
     2   155   154    2
     3   162   161    1
     4    57    56    2
     5   154   153    1
     6   154   160   am
     7    56    55    1
     8   159   157    1
     9   153   152    1
    10   153   156    1
    11   161   160    1
    12   161   164    1
    13   156   157    1
    14   157   158    1
    15    55    54    1
    16    55    58    1
    17   164   165    1
    18    46    45    2
    19    58    59    1
    20   166   165   ar
    21   166   168   ar
    22    45    44    1
    23    41    39    1
    24   165   167   ar
    25    38    37    2
    26    37    36    1
    27   168   170   ar
    28    39    36    1
    29    39    40    1
    30   138   137    2
    31    59    61   ar
    32    59    60   ar
    33   146   145    2
    34    44    43    1
    35    44    47    1
    36   167   169   ar
    37    42    40    1
    38    36    35    1
    39    61    63   ar
    40    60    62   ar
    41   170   169   ar
    42   145   144    1
    43    47    48    1
    44   137   136    1
    45   137   143   am
    46    35    33   am
    47    19    20    2
    48    19    18    1
    49     9    10    1
    50   171   172    1
    51   136   139    1
    52   136   135    1
    53   141   140    2
    54    31    32    1
    55   140   142   am
    56   140   139    1
    57    33    34    2
    58    33    32    1
    59   144   143    1
    60   144   147    1
    61   177   179   ar
    62   177   176   ar
    63    63    64   ar
    64    62    64   ar
    65    17    18    1
    66    17    11   am
    67    18    21    1
    68    10    11    1
    69    10    13    1
    70   175   172    1
    71   175   176    1
    72    11    12    2
    73    21    22    1
    74   172   173    1
    75    48    50   ar
    76    48    49   ar
    77   179   180   ar
    78   176   178   ar
    79   173   174    2
    80    50    52   ar
    81    49    51   ar
    82   148   147    1
    83   148   149    1
    84    13    14    1
    85   180   178   ar
    86   180   182   ar
    87    22    23   ar
    88    22    24   ar
    89   178   181   ar
    90    23    25   ar
    91    52    53   ar
    92   151   149   ar
    93    78    76   ar
    94    78    77   ar
    95   149   150   ar
    96   182   184   ar
    97    51    53   ar
    98   181   183   ar
    99   130   129    2
   100    76    74   ar
   101    77    75   ar
   102    14    15    1
   103    24    27   ar
   104    24    26   ar
   105    25    26   ar
   106     1     2    1
   107   184   183   ar
   108    27    29   ar
   109   129   128    1
   110     7     6    1
   111    74    72   ar
   112    74    73   ar
   113    75    72   ar
   114    26    28   ar
   115     2     5    1
   116     2     3    1
   117   128   127    1
   118   128   131    1
   119    72    70   ar
   120    15    16    1
   121    73    71   ar
   122   100    99   ar
   123   100    98   ar
   124     5     6    1
   125    99    97   ar
   126    29    30   ar
   127     6     8    1
   128    98    96   ar
   129     3     4    2
   130    28    30   ar
   131    97    94   ar
   132    70    71   ar
   133    70    69    1
   134    86    85    1
   135    85    84    1
   136   131   132    1
   137   133   132    2
   138   132   134   am
   139    96    94   ar
   140    96    95   ar
   141    94    92   ar
   142    69    66    1
   143    95    93   ar
   144    84    83    1
   145    92    93   ar
   146    92    91    1
   147   118   117    1
   148   119   117    1
   149    66    65    1
   150    66    67    1
   151    91    88    1
   152   110   108   ar
   153   110   111   ar
   154   112   111    1
   155   125   124    1
   156   117   114    1
   157   108   106   ar
   158    83    80    1
   159    68    67    2
   160   111   109   ar
   161    80    79    1
   162    80    81    1
   163    88    89    1
   164    88    87    1
   165   124   126    1
   166   124   121    1
   167   114   113    1
   168   114   115    1
   169    90    89    2
   170   113   103   am
   171   116   115    2
   172   106   105    1
   173   106   107   ar
   174   109   107   ar
   175    82    81    2
   176   123   122    2
   177   122   121    1
   178   121   120    1
   179   105   102    1
   180   103   104    2
   181   103   102    1
   182   102   101    1
