@<TRIPOS>MOLECULE
tmp/5mxwA00.pdb
 164 158 0 0 0
SMALL
GASTEIGER

@<TRIPOS>ATOM
      1  N        108.8820   94.7500    9.4860 N.3     9  TYR9       -0.1241
      2  CA       108.3020   93.4380    9.4720 C.3     9  TYR9        0.1605
      3  C        109.0190   92.5930   10.5230 C.2     9  TYR9        0.2264
      4  O        110.2170   92.7500   10.7510 O.2     9  TYR9       -0.2867
      5  CB       108.4840   92.7650    8.1220 C.3     9  TYR9        0.0534
      6  CG       108.0530   93.6440    6.9890 C.ar    9  TYR9       -0.0201
      7  CD1      106.7220   93.7750    6.6570 C.ar    9  TYR9       -0.0009
      8  CD2      108.9750   94.4640    6.3440 C.ar    9  TYR9       -0.0009
      9  CE1      106.3290   94.6100    5.6530 C.ar    9  TYR9        0.0417
     10  CE2      108.5870   95.3040    5.3210 C.ar    9  TYR9        0.0417
     11  CZ       107.2660   95.3650    4.9780 C.ar    9  TYR9        0.1957
     12  OH       106.8830   96.2560    4.0050 O.3     9  TYR9       -0.2866
     13  N        117.9660   87.1630    4.8060 N.3    19  TYR19      -0.1241
     14  CA       118.7510   88.0140    3.9270 C.3    19  TYR19       0.1605
     15  C        119.2340   87.2320    2.7060 C.2    19  TYR19       0.2264
     16  O        119.2410   87.7330    1.5820 O.2    19  TYR19      -0.2867
     17  CB       119.9810   88.6110    4.6570 C.3    19  TYR19       0.0534
     18  CG       120.7440   89.5920    3.8100 C.ar   19  TYR19      -0.0201
     19  CD1      120.4570   90.9600    3.8410 C.ar   19  TYR19      -0.0009
     20  CD2      121.8390   89.1980    3.0820 C.ar   19  TYR19      -0.0009
     21  CE1      121.1660   91.8660    3.0860 C.ar   19  TYR19       0.0417
     22  CE2      122.5190   90.0510    2.2930 C.ar   19  TYR19       0.0417
     23  CZ       122.2410   91.4140    2.2950 C.ar   19  TYR19       0.1957
     24  OH       122.9640   92.3170    1.6210 O.3    19  TYR19      -0.2866
     25  N        116.2440   86.9520    0.3820 N.3    22  LEU22      -0.1231
     26  CA       115.7940   88.2940   -0.1090 C.3    22  LEU22       0.1693
     27  C        116.7450   88.9670   -1.0370 C.2    22  LEU22       0.2591
     28  O        116.3440   89.8080   -1.8880 O.2    22  LEU22      -0.2718
     29  CB       115.5630   89.2120    1.1220 C.3    22  LEU22       0.0284
     30  CG       114.3060   88.9690    1.9290 C.3    22  LEU22       0.0019
     31  CD1      114.3160   89.7320    3.2290 C.3    22  LEU22       0.0001
     32  CD2      113.0500   89.3140    1.1930 C.3    22  LEU22       0.0001
     33  N        118.0350   88.6550   -0.8660 N.am   23  VAL23      -0.1980
     34  CA       119.0820   89.3830   -1.5280 C.3    23  VAL23       0.1595
     35  C        120.0140   88.4740   -2.2990 C.2    23  VAL23       0.2287
     36  O        120.0020   88.4490   -3.5350 O.2    23  VAL23      -0.2864
     37  CB       119.8920   90.3170   -0.5390 C.3    23  VAL23       0.0276
     38  CG1      120.9700   91.0640   -1.2700 C.3    23  VAL23       0.0022
     39  CG2      118.9560   91.2610    0.1790 C.3    23  VAL23       0.0022
     40  N        118.0430   86.1470   -4.3500 N.3    26  ALA26      -0.1245
     41  CA       116.7760   86.8030   -4.8170 C.3    26  ALA26       0.1562
     42  C        116.3220   86.3800   -6.2270 C.2    26  ALA26       0.2260
     43  O        115.1140   86.2260   -6.5070 O.2    26  ALA26      -0.2867
     44  CB       116.9630   88.3160   -4.8010 C.3    26  ALA26       0.0290
     45  N        112.8120   84.8400   -5.2800 N.3    30  ILE30      -0.1245
     46  CA       111.6780   85.7470   -5.3510 C.3    30  ILE30       0.1561
     47  C        110.6010   85.2510   -6.3650 C.2    30  ILE30       0.2260
     48  O        109.4140   85.2740   -6.0190 O.2    30  ILE30      -0.2867
     49  CB       112.1570   87.2180   -5.6690 C.3    30  ILE30       0.0252
     50  CG1      112.8150   87.7600   -4.4120 C.3    30  ILE30       0.0019
     51  CG2      111.0090   88.0660   -6.1470 C.3    30  ILE30       0.0019
     52  CD1      113.4360   89.1350   -4.6200 C.3    30  ILE30       0.0001
     53  N        112.6240   93.1660  -12.8090 N.3    55  LEU55      -0.1245
     54  CA       111.5930   92.3840  -12.1090 C.3    55  LEU55       0.1561
     55  C        110.3110   92.4450  -12.9430 C.2    55  LEU55       0.2260
     56  O        109.7060   93.5280  -13.0860 O.2    55  LEU55      -0.2867
     57  CB       111.3940   92.9190  -10.6930 C.3    55  LEU55       0.0270
     58  CG       112.6100   92.7680   -9.8260 C.3    55  LEU55       0.0019
     59  CD1      113.4900   94.0470   -9.9230 C.3    55  LEU55       0.0001
     60  CD2      112.0190   92.4400   -8.4290 C.3    55  LEU55       0.0001
     61  N        115.3930   97.8880  -11.0840 N.3    68  HIS68      -0.1241
     62  CA       116.0530   98.3130   -9.8530 C.3    68  HIS68       0.1621
     63  C        117.5520   98.4250  -10.1020 C.2    68  HIS68       0.2264
     64  O        118.1780   97.5630  -10.7530 O.2    68  HIS68      -0.2867
     65  CB       115.8510   97.2410   -8.7700 C.3    68  HIS68       0.0745
     66  CG       114.4480   97.0810   -8.3010 C.ar   68  HIS68       0.0817
     67  ND1      114.0560   96.1330   -7.3680 N.ar   68  HIS68      -0.2268
     68  CD2      113.3490   97.8240   -8.5380 C.ar   68  HIS68       0.1154
     69  CE1      112.7590   96.2360   -7.1660 C.ar   68  HIS68       0.1986
     70  NE2      112.2950   97.2440   -7.8610 N.ar   68  HIS68      -0.2212
     71  N        120.8840   96.3000    2.3220 N.3    80  TYR80      -0.1241
     72  CA       120.6840   96.2750    0.8620 C.3    80  TYR80       0.1605
     73  C        119.8950   97.5370    0.4600 C.2    80  TYR80       0.2264
     74  O        118.7950   97.7750    1.0130 O.2    80  TYR80      -0.2867
     75  CB       119.8630   94.9940    0.3970 C.3    80  TYR80       0.0534
     76  CG       119.4910   94.9390   -1.0700 C.ar   80  TYR80      -0.0201
     77  CD1      120.4590   94.8310   -2.0860 C.ar   80  TYR80      -0.0009
     78  CD2      118.1910   94.9470   -1.4670 C.ar   80  TYR80      -0.0009
     79  CE1      120.1040   94.7530   -3.3900 C.ar   80  TYR80       0.0417
     80  CE2      117.8210   94.9190   -2.8010 C.ar   80  TYR80       0.0417
     81  CZ       118.7550   94.7970   -3.7300 C.ar   80  TYR80       0.1957
     82  OH       118.3980   94.7860   -5.1400 O.3    80  TYR80      -0.2866
     83  N        118.6530  100.1070   -2.8690 N.3    82  TYR82      -0.1241
     84  CA       118.4080  100.1120   -4.3050 C.3    82  TYR82       0.1605
     85  C        117.4620  101.2510   -4.6600 C.2    82  TYR82       0.2264
     86  O        116.7960  101.7840   -3.7820 O.2    82  TYR82      -0.2867
     87  CB       117.8620   98.7710   -4.8000 C.3    82  TYR82       0.0534
     88  CG       116.4120   98.4910   -4.4100 C.ar   82  TYR82      -0.0201
     89  CD1      115.3060   98.8490   -5.2320 C.ar   82  TYR82      -0.0009
     90  CD2      116.1350   97.8920   -3.1810 C.ar   82  TYR82      -0.0009
     91  CE1      113.9930   98.5330   -4.8550 C.ar   82  TYR82       0.0417
     92  CE2      114.8610   97.5490   -2.8700 C.ar   82  TYR82       0.0417
     93  CZ       113.8010   97.9200   -3.6230 C.ar   82  TYR82       0.1957
     94  OH       112.4820   97.6670   -3.2250 O.3    82  TYR82      -0.2866
     95  N        117.3000   99.0490    3.1480 N.3   100  THR100     -0.1203
     96  CA       116.7700   97.9020    3.8700 C.3   100  THR100      0.1994
     97  C        117.8550   97.2630    4.7410 C.2   100  THR100      0.2618
     98  O        119.0930   97.3530    4.4680 O.2   100  THR100     -0.2717
     99  CB       116.1990   96.7760    2.9310 C.3   100  THR100      0.1784
    100  OG1      117.3230   96.0050    2.3640 O.3   100  THR100     -0.2211
    101  CG2      115.2780   97.2980    1.7820 C.3   100  THR100      0.0376
    102  N        117.4050   96.8080    5.9110 N.am  101  LYS101     -0.1965
    103  CA       118.2670   96.1010    6.8400 C.3   101  LYS101      0.1728
    104  C        117.4820   95.0120    7.5260 C.2   101  LYS101      0.2616
    105  O        116.3020   95.2120    7.8690 O.2   101  LYS101     -0.2715
    106  CB       118.8110   97.1230    7.8690 C.3   101  LYS101      0.0311
    107  CG       119.7750   96.5640    8.8960 C.3   101  LYS101      0.0038
    108  CD       120.4990   97.6860    9.6390 C.3   101  LYS101      0.0206
    109  CE       121.3190   97.1410   10.8180 C.3   101  LYS101      0.1093
    110  NZ       121.3460   98.0720   11.9930 N.3   101  LYS101     -0.1314
    111  N        118.1790   93.9350    7.8990 N.am  102  LEU102     -0.1977
    112  CA       117.6420   92.9480    8.7920 C.3   102  LEU102      0.1596
    113  C        118.4550   92.9410   10.0850 C.2   102  LEU102      0.2287
    114  O        119.6620   93.0150   10.0380 O.2   102  LEU102     -0.2864
    115  CB       117.7480   91.5690    8.1630 C.3   102  LEU102      0.0297
    116  CG       116.6890   91.3630    7.0970 C.3   102  LEU102      0.0022
    117  CD1      117.1340   90.3850    6.0360 C.3   102  LEU102      0.0001
    118  CD2      115.3680   90.9500    7.7410 C.3   102  LEU102      0.0001
    119  N        112.8640   93.0720    9.8300 N.3   112  GLY112     -0.1210
    120  CA       113.1830   93.7230    8.5560 C.3   112  GLY112      0.1956
    121  C        112.7200   95.1780    8.5010 C.2   112  GLY112      0.2612
    122  O        111.5720   95.5080    8.9530 O.2   112  GLY112     -0.2717
    123  N        113.6700   96.0560    8.2570 N.am  113  LYS113     -0.1965
    124  CA       113.3950   97.4920    8.2740 C.3   113  LYS113      0.1728
    125  C        113.5620   98.0980    6.8840 C.2   113  LYS113      0.2616
    126  O        114.5720   97.8200    6.2450 O.2   113  LYS113     -0.2715
    127  CB       114.3210   98.1760    9.2670 C.3   113  LYS113      0.0311
    128  CG       114.1390   97.7060   10.6960 C.3   113  LYS113      0.0038
    129  CD       115.2090   98.3280   11.5600 C.3   113  LYS113      0.0206
    130  CE       115.1620   97.7580   12.9610 C.3   113  LYS113      0.1093
    131  NZ       116.2260   98.3690   13.8090 N.3   113  LYS113     -0.1314
    132  N        112.5990   98.8820    6.3980 N.am  114  VAL114     -0.1977
    133  CA       112.7230   99.4630    5.0610 C.3   114  VAL114      0.1596
    134  C        112.4410  100.9460    5.2360 C.2   114  VAL114      0.2287
    135  O        111.3750  101.3010    5.8480 O.2   114  VAL114     -0.2864
    136  CB       111.6600   98.9010    4.0950 C.3   114  VAL114      0.0276
    137  CG1      111.8410   99.5170    2.7280 C.3   114  VAL114      0.0022
    138  CG2      111.7470   97.3550    4.0500 C.3   114  VAL114      0.0022
    139  N        104.5740   95.3080   -0.3700 N.3   138  GLY138     -0.1225
    140  CA       105.6970   95.0300    0.5390 C.3   138  GLY138      0.1811
    141  C        105.3340   94.0040    1.5770 C.2   138  GLY138      0.2280
    142  O        106.0190   93.0260    1.8010 O.2   138  GLY138     -0.2866
    143  N        104.8400   90.6560   -0.0590 N.3   141  PHE141     -0.1227
    144  CA       106.1710   90.1830   -0.4560 C.3   141  PHE141      0.1736
    145  C        106.8810   89.4820    0.7170 C.2   141  PHE141      0.2595
    146  O        107.3260   88.3430    0.6180 O.2   141  PHE141     -0.2718
    147  CB       107.0040   91.3690   -0.8870 C.3   141  PHE141      0.0547
    148  CG       108.3840   91.0000   -1.3650 C.ar  141  PHE141     -0.0202
    149  CD1      108.6370   90.7710   -2.7220 C.ar  141  PHE141     -0.0042
    150  CD2      109.4330   91.1470   -0.5060 C.ar  141  PHE141     -0.0042
    151  CE1      109.9550   90.5050   -3.1340 C.ar  141  PHE141     -0.0003
    152  CE2      110.7260   90.9040   -0.9000 C.ar  141  PHE141     -0.0003
    153  CZ       110.9950   90.5040   -2.1830 C.ar  141  PHE141     -0.0000
    154  N        106.9640   90.1780    1.8410 N.am  142  PHE142     -0.1976
    155  CA       107.7120   89.6810    2.9630 C.3   142  PHE142      0.1639
    156  C        107.0230   88.4110    3.4760 C.2   142  PHE142      0.2290
    157  O        107.6710   87.3940    3.6550 O.2   142  PHE142     -0.2864
    158  CB       107.8740   90.7810    4.0250 C.3   142  PHE142      0.0560
    159  CG       108.8050   90.4290    5.1090 C.ar  142  PHE142     -0.0200
    160  CD1      108.3240   89.8650    6.2850 C.ar  142  PHE142     -0.0042
    161  CD2      110.1450   90.7670    5.0120 C.ar  142  PHE142     -0.0042
    162  CE1      109.1850   89.5340    7.2900 C.ar  142  PHE142     -0.0003
    163  CE2      111.0120   90.4900    6.0420 C.ar  142  PHE142     -0.0003
    164  CZ       110.5300   89.8640    7.1780 C.ar  142  PHE142     -0.0000
@<TRIPOS>BOND
     1    56    55    2
     2    55    54    1
     3    53    54    1
     4    54    57    1
     5    61    62    1
     6    64    63    2
     7    57    58    1
     8    63    62    1
     9    59    58    1
    10    62    65    1
    11    58    60    1
    12    65    66    1
    13    68    66   ar
    14    68    70   ar
    15    66    67   ar
    16    70    69   ar
    17    67    69   ar
    18    43    42    2
    19    47    48    2
    20    47    46    1
    21    42    41    1
    22    51    49    1
    23    49    46    1
    24    49    50    1
    25    46    45    1
    26    89    91   ar
    27    89    88   ar
    28    82    81    1
    29    91    93   ar
    30    41    44    1
    31    41    40    1
    32    87    88    1
    33    87    84    1
    34    85    84    1
    35    85    86    2
    36    52    50    1
    37    88    90   ar
    38    84    83    1
    39    81    79   ar
    40    81    80   ar
    41    93    94    1
    42    93    92   ar
    43    36    35    2
    44    79    77   ar
    45    90    92   ar
    46   151   149   ar
    47   151   153   ar
    48    80    78   ar
    49   149   148   ar
    50    35    34    1
    51   153   152   ar
    52    77    76   ar
    53    28    27    2
    54    34    33    1
    55    34    37    1
    56    78    76   ar
    57   148   147    1
    58   148   150   ar
    59    38    37    1
    60    76    75    1
    61    27    33   am
    62    27    26    1
    63   152   150   ar
    64   147   144    1
    65    37    39    1
    66   144   143    1
    67   144   145    1
    68   139   140    1
    69    26    25    1
    70    26    29    1
    71    75    72    1
    72    73    72    1
    73    73    74    2
    74   140   141    1
    75   146   145    2
    76   145   154   am
    77    72    71    1
    78    29    30    1
    79    32    30    1
    80   141   142    2
    81    16    15    2
    82    24    23    1
    83   101    99    1
    84   154   155    1
    85    30    31    1
    86    22    23   ar
    87    22    20   ar
    88    23    21   ar
    89   100    99    1
    90    15    14    1
    91   137   136    1
    92    99    96    1
    93   155   156    1
    94   155   158    1
    95    20    18   ar
    96    21    19   ar
    97    95    96    1
    98   156   157    2
    99    18    19   ar
   100    18    17    1
   101    96    97    1
   102    14    17    1
   103    14    13    1
   104    12    11    1
   105   158   159    1
   106   138   136    1
   107   136   133    1
   108    98    97    2
   109    97   102   am
   110    11    10   ar
   111    11     9   ar
   112   161   159   ar
   113   161   163   ar
   114   133   134    1
   115   133   132    1
   116   159   160   ar
   117   134   135    2
   118    10     8   ar
   119     9     7   ar
   120   102   103    1
   121   117   116    1
   122   163   164   ar
   123   126   125    2
   124   160   162   ar
   125     8     6   ar
   126   132   125   am
   127     7     6   ar
   128   103   104    1
   129   103   106    1
   130   125   124    1
   131     6     5    1
   132   116   118    1
   133   116   115    1
   134   164   162   ar
   135   104   105    2
   136   104   111   am
   137   106   107    1
   138   111   112    1
   139     5     2    1
   140   115   112    1
   141   123   124    1
   142   123   121   am
   143   124   127    1
   144   121   120    1
   145   121   122    2
   146   120   119    1
   147   112   113    1
   148   107   108    1
   149   127   128    1
   150     2     1    1
   151     2     3    1
   152   108   109    1
   153   114   113    2
   154     3     4    2
   155   128   129    1
   156   109   110    1
   157   129   130    1
   158   130   131    1
